MODEL 1
REMARK VINA RESULT: -5.267649176      0.000      0.000
REMARK  3 active torsions:
REMARK  status: ('A' for Active; 'I' for Inactive)
REMARK    1  A    between atoms: C3_3  and  N1_4 
REMARK    2  A    between atoms: N1_4  and  C4_6 
REMARK    3  A    between atoms: C4_6  and  C5_7 
ROOT
HETATM    1  C5  UNL     1      80.072  53.000  32.682  1.00  0.00     0.032 C 
HETATM    2  C6  UNL     1      79.948  54.508  32.377  1.00  0.00    -0.005 C 
HETATM    3  C7  UNL     1      78.540  54.723  31.922  1.00  0.00     0.006 C 
HETATM    4  C8  UNL     1      78.374  53.448  31.071  1.00  0.00     0.006 C 
HETATM    5  C9  UNL     1      79.741  52.857  31.241  1.00  0.00    -0.005 C 
HETATM    6  C10 UNL     1      80.619  54.107  31.054  1.00  0.00     0.010 C 
ENDROOT
BRANCH   1   7
HETATM    7  C4  UNL     1      79.113  52.570  33.717  1.00  0.00     0.061 C 
BRANCH   7   8
HETATM    8  N1  UNL     1      79.529  51.679  34.701  1.00  0.00    -0.397 N 
ATOM      9  H1  UNL     1      80.337  51.086  34.511  1.00  0.00     0.159 HD
BRANCH   8  10
HETATM   10  C3  UNL     1      78.892  51.558  35.937  1.00  0.00     0.080 A 
HETATM   11  C1  UNL     1      79.464  51.330  37.252  1.00  0.00     0.027 A 
HETATM   12  C2  UNL     1      78.826  50.134  36.561  1.00  0.00     0.027 A 
ENDBRANCH   8  10
ENDBRANCH   7   8
ENDBRANCH   1   7
TORSDOF 3
ENDMDL
MODEL 2
REMARK VINA RESULT: -5.212541779      0.918      1.949
REMARK  3 active torsions:
REMARK  status: ('A' for Active; 'I' for Inactive)
REMARK    1  A    between atoms: C3_3  and  N1_4 
REMARK    2  A    between atoms: N1_4  and  C4_6 
REMARK    3  A    between atoms: C4_6  and  C5_7 
ROOT
HETATM    1  C5  UNL     1      78.383  53.397  33.490  1.00  0.00     0.032 C 
HETATM    2  C6  UNL     1      77.968  53.659  32.026  1.00  0.00    -0.005 C 
HETATM    3  C7  UNL     1      79.144  54.313  31.375  1.00  0.00     0.006 C 
HETATM    4  C8  UNL     1      79.576  55.227  32.538  1.00  0.00     0.006 C 
HETATM    5  C9  UNL     1      78.515  54.876  33.537  1.00  0.00    -0.005 C 
HETATM    6  C10 UNL     1      77.264  54.880  32.639  1.00  0.00     0.010 C 
ENDROOT
BRANCH   1   7
HETATM    7  C4  UNL     1      79.578  52.536  33.575  1.00  0.00     0.061 C 
BRANCH   7   8
HETATM    8  N1  UNL     1      79.599  51.491  34.493  1.00  0.00    -0.397 N 
ATOM      9  H1  UNL     1      80.215  50.697  34.312  1.00  0.00     0.159 HD
BRANCH   8  10
HETATM   10  C3  UNL     1      78.818  51.477  35.649  1.00  0.00     0.080 A 
HETATM   11  C1  UNL     1      79.228  51.542  37.041  1.00  0.00     0.027 A 
HETATM   12  C2  UNL     1      78.840  50.174  36.500  1.00  0.00     0.027 A 
ENDBRANCH   8  10
ENDBRANCH   7   8
ENDBRANCH   1   7
TORSDOF 3
ENDMDL
MODEL 3
REMARK VINA RESULT: -4.956707535      2.339      3.102
REMARK  3 active torsions:
REMARK  status: ('A' for Active; 'I' for Inactive)
REMARK    1  A    between atoms: C3_3  and  N1_4 
REMARK    2  A    between atoms: N1_4  and  C4_6 
REMARK    3  A    between atoms: C4_6  and  C5_7 
ROOT
HETATM    1  C5  UNL     1      78.112  55.533  34.138  1.00  0.00     0.032 C 
HETATM    2  C6  UNL     1      77.474  56.936  34.047  1.00  0.00    -0.005 C 
HETATM    3  C7  UNL     1      76.804  56.999  32.711  1.00  0.00     0.006 C 
HETATM    4  C8  UNL     1      77.872  56.259  31.881  1.00  0.00     0.006 C 
HETATM    5  C9  UNL     1      78.883  55.995  32.955  1.00  0.00    -0.005 C 
HETATM    6  C10 UNL     1      78.903  57.358  33.671  1.00  0.00     0.010 C 
ENDROOT
BRANCH   1   7
HETATM    7  C4  UNL     1      77.105  54.464  34.004  1.00  0.00     0.061 C 
BRANCH   7   8
HETATM    8  N1  UNL     1      77.213  53.324  34.793  1.00  0.00    -0.397 N 
ATOM      9  H1  UNL     1      76.359  52.835  35.063  1.00  0.00     0.159 HD
BRANCH   8  10
HETATM   10  C3  UNL     1      78.437  52.817  35.233  1.00  0.00     0.080 A 
HETATM   11  C1  UNL     1      79.242  51.740  34.683  1.00  0.00     0.027 A 
HETATM   12  C2  UNL     1      78.416  51.420  35.920  1.00  0.00     0.027 A 
ENDBRANCH   8  10
ENDBRANCH   7   8
ENDBRANCH   1   7
TORSDOF 3
ENDMDL
MODEL 4
REMARK VINA RESULT: -4.900632835      2.182      3.280
REMARK  3 active torsions:
REMARK  status: ('A' for Active; 'I' for Inactive)
REMARK    1  A    between atoms: C3_3  and  N1_4 
REMARK    2  A    between atoms: N1_4  and  C4_6 
REMARK    3  A    between atoms: C4_6  and  C5_7 
ROOT
HETATM    1  C5  UNL     1      76.903  55.583  33.744  1.00  0.00     0.032 C 
HETATM    2  C6  UNL     1      77.029  56.251  32.357  1.00  0.00    -0.005 C 
HETATM    3  C7  UNL     1      78.363  55.842  31.821  1.00  0.00     0.006 C 
HETATM    4  C8  UNL     1      79.177  55.939  33.127  1.00  0.00     0.006 C 
HETATM    5  C9  UNL     1      78.100  56.406  34.057  1.00  0.00    -0.005 C 
HETATM    6  C10 UNL     1      77.419  57.481  33.190  1.00  0.00     0.010 C 
ENDROOT
BRANCH   1   7
HETATM    7  C4  UNL     1      77.008  54.114  33.656  1.00  0.00     0.061 C 
BRANCH   7   8
HETATM    8  N1  UNL     1      77.181  53.374  34.821  1.00  0.00    -0.397 N 
ATOM      9  H1  UNL     1      76.366  53.189  35.406  1.00  0.00     0.159 HD
BRANCH   8  10
HETATM   10  C3  UNL     1      78.418  52.872  35.227  1.00  0.00     0.080 A 
HETATM   11  C1  UNL     1      79.221  51.812  34.643  1.00  0.00     0.027 A 
HETATM   12  C2  UNL     1      78.426  51.466  35.893  1.00  0.00     0.027 A 
ENDBRANCH   8  10
ENDBRANCH   7   8
ENDBRANCH   1   7
TORSDOF 3
ENDMDL
MODEL 5
REMARK VINA RESULT: -4.872525298      0.985      1.201
REMARK  3 active torsions:
REMARK  status: ('A' for Active; 'I' for Inactive)
REMARK    1  A    between atoms: C3_3  and  N1_4 
REMARK    2  A    between atoms: N1_4  and  C4_6 
REMARK    3  A    between atoms: C4_6  and  C5_7 
ROOT
HETATM    1  C5  UNL     1      79.169  53.275  32.846  1.00  0.00     0.032 C 
HETATM    2  C6  UNL     1      79.969  54.557  32.524  1.00  0.00    -0.005 C 
HETATM    3  C7  UNL     1      78.989  55.515  31.926  1.00  0.00     0.006 C 
HETATM    4  C8  UNL     1      78.185  54.519  31.067  1.00  0.00     0.006 C 
HETATM    5  C9  UNL     1      78.935  53.260  31.378  1.00  0.00    -0.005 C 
HETATM    6  C10 UNL     1      80.388  53.761  31.279  1.00  0.00     0.010 C 
ENDROOT
BRANCH   1   7
HETATM    7  C4  UNL     1      78.058  53.543  33.778  1.00  0.00     0.061 C 
BRANCH   7   8
HETATM    8  N1  UNL     1      78.082  52.972  35.046  1.00  0.00    -0.397 N 
ATOM      9  H1  UNL     1      77.510  53.392  35.779  1.00  0.00     0.159 HD
BRANCH   8  10
HETATM   10  C3  UNL     1      78.853  51.853  35.363  1.00  0.00     0.080 A 
HETATM   11  C1  UNL     1      78.533  50.724  36.219  1.00  0.00     0.027 A 
HETATM   12  C2  UNL     1      79.452  51.791  36.798  1.00  0.00     0.027 A 
ENDBRANCH   8  10
ENDBRANCH   7   8
ENDBRANCH   1   7
TORSDOF 3
ENDMDL
