MODEL 1
REMARK VINA RESULT: -5.671464237      0.000      0.000
REMARK  4 active torsions:
REMARK  status: ('A' for Active; 'I' for Inactive)
REMARK    1  A    between atoms: N1_1  and  C1_5 
REMARK    2  A    between atoms: C1_5  and  C2_6 
REMARK    3  A    between atoms: C1_5  and  C7_11 
REMARK    4  A    between atoms: C3_7  and  C4_8 
ROOT
HETATM    1  C1  UNL     1      80.501  52.633  32.756  1.00  0.00     0.210 C 
ENDROOT
BRANCH   1   2
HETATM    2  N1  UNL     1      81.306  51.433  32.598  1.00  0.00    -0.071 N 
ATOM      3  H13 UNL     1      81.144  50.777  33.362  1.00  0.00     0.275 HD
ATOM      4  H12 UNL     1      80.969  50.863  31.822  1.00  0.00     0.275 HD
ATOM      5  H11 UNL     1      82.298  51.643  32.496  1.00  0.00     0.275 HD
ENDBRANCH   1   2
BRANCH   1   6
HETATM    6  C2  UNL     1      79.426  52.459  33.753  1.00  0.00     0.002 C 
HETATM    7  C3  UNL     1      79.576  51.628  34.761  1.00  0.00    -0.024 C 
BRANCH   7   8
HETATM    8  C4  UNL     1      78.547  51.393  35.804  1.00  0.00     0.008 A 
HETATM    9  C5  UNL     1      78.570  50.179  36.644  1.00  0.00     0.009 A 
HETATM   10  C6  UNL     1      79.065  51.494  37.212  1.00  0.00     0.009 A 
ENDBRANCH   7   8
ENDBRANCH   1   6
BRANCH   1  11
HETATM   11  C7  UNL     1      79.856  52.925  31.401  1.00  0.00     0.020 A 
HETATM   12  C8  UNL     1      78.508  53.589  31.502  1.00  0.00     0.007 A 
HETATM   13  C9  UNL     1      79.101  54.818  30.854  1.00  0.00     0.001 A 
HETATM   14  C10 UNL     1      80.423  54.123  30.694  1.00  0.00     0.007 A 
ENDBRANCH   1  11
TORSDOF 4
ENDMDL
MODEL 2
REMARK VINA RESULT: -5.485093974      2.933      3.430
REMARK  4 active torsions:
REMARK  status: ('A' for Active; 'I' for Inactive)
REMARK    1  A    between atoms: N1_1  and  C1_5 
REMARK    2  A    between atoms: C1_5  and  C2_6 
REMARK    3  A    between atoms: C1_5  and  C7_11 
REMARK    4  A    between atoms: C3_7  and  C4_8 
ROOT
HETATM    1  C1  UNL     1      77.274  54.167  33.739  1.00  0.00     0.210 C 
ENDROOT
BRANCH   1   2
HETATM    2  N1  UNL     1      76.046  54.011  34.501  1.00  0.00    -0.071 N 
ATOM      3  H13 UNL     1      75.979  53.077  34.905  1.00  0.00     0.275 HD
ATOM      4  H12 UNL     1      76.074  54.558  35.362  1.00  0.00     0.275 HD
ATOM      5  H11 UNL     1      75.217  54.234  33.951  1.00  0.00     0.275 HD
ENDBRANCH   1   2
BRANCH   1   6
HETATM    6  C2  UNL     1      78.351  53.281  34.225  1.00  0.00     0.002 C 
HETATM    7  C3  UNL     1      78.140  52.461  35.231  1.00  0.00    -0.024 C 
BRANCH   7   8
HETATM    8  C4  UNL     1      79.165  51.541  35.781  1.00  0.00     0.008 A 
HETATM    9  C5  UNL     1      79.415  51.451  37.233  1.00  0.00     0.009 A 
HETATM   10  C6  UNL     1      78.600  50.376  36.545  1.00  0.00     0.009 A 
ENDBRANCH   7   8
ENDBRANCH   1   6
BRANCH   1  11
HETATM   11  C7  UNL     1      77.731  55.616  33.912  1.00  0.00     0.020 A 
HETATM   12  C8  UNL     1      78.443  56.175  32.708  1.00  0.00     0.007 A 
HETATM   13  C9  UNL     1      77.301  57.146  32.524  1.00  0.00     0.001 A 
HETATM   14  C10 UNL     1      76.633  56.630  33.766  1.00  0.00     0.007 A 
ENDBRANCH   1  11
TORSDOF 4
ENDMDL
MODEL 3
REMARK VINA RESULT: -5.361024489      1.007      1.302
REMARK  4 active torsions:
REMARK  status: ('A' for Active; 'I' for Inactive)
REMARK    1  A    between atoms: N1_1  and  C1_5 
REMARK    2  A    between atoms: C1_5  and  C2_6 
REMARK    3  A    between atoms: C1_5  and  C7_11 
REMARK    4  A    between atoms: C3_7  and  C4_8 
ROOT
HETATM    1  C1  UNL     1      80.331  52.822  32.352  1.00  0.00     0.210 C 
ENDROOT
BRANCH   1   2
HETATM    2  N1  UNL     1      79.912  52.138  31.139  1.00  0.00    -0.071 N 
ATOM      3  H13 UNL     1      79.340  51.322  31.356  1.00  0.00     0.275 HD
ATOM      4  H12 UNL     1      79.222  52.687  30.626  1.00  0.00     0.275 HD
ATOM      5  H11 UNL     1      80.700  51.888  30.544  1.00  0.00     0.275 HD
ENDBRANCH   1   2
BRANCH   1   6
HETATM    6  C2  UNL     1      79.352  52.671  33.447  1.00  0.00     0.002 C 
HETATM    7  C3  UNL     1      79.559  51.805  34.415  1.00  0.00    -0.024 C 
BRANCH   7   8
HETATM    8  C4  UNL     1      78.628  51.590  35.551  1.00  0.00     0.008 A 
HETATM    9  C5  UNL     1      78.703  50.373  36.383  1.00  0.00     0.009 A 
HETATM   10  C6  UNL     1      79.279  51.674  36.903  1.00  0.00     0.009 A 
ENDBRANCH   7   8
ENDBRANCH   1   6
BRANCH   1  11
HETATM   11  C7  UNL     1      80.446  54.309  32.014  1.00  0.00     0.020 A 
HETATM   12  C8  UNL     1      80.083  54.636  30.590  1.00  0.00     0.007 A 
HETATM   13  C9  UNL     1      78.898  55.420  31.106  1.00  0.00     0.001 A 
HETATM   14  C10 UNL     1      79.309  55.146  32.525  1.00  0.00     0.007 A 
ENDBRANCH   1  11
TORSDOF 4
ENDMDL
MODEL 4
REMARK VINA RESULT: -5.286604374      2.099      2.547
REMARK  4 active torsions:
REMARK  status: ('A' for Active; 'I' for Inactive)
REMARK    1  A    between atoms: N1_1  and  C1_5 
REMARK    2  A    between atoms: C1_5  and  C2_6 
REMARK    3  A    between atoms: C1_5  and  C7_11 
REMARK    4  A    between atoms: C3_7  and  C4_8 
ROOT
HETATM    1  C1  UNL     1      77.385  54.069  33.645  1.00  0.00     0.210 C 
ENDROOT
BRANCH   1   2
HETATM    2  N1  UNL     1      77.383  55.378  34.279  1.00  0.00    -0.071 N 
ATOM      3  H13 UNL     1      77.754  55.328  35.227  1.00  0.00     0.275 HD
ATOM      4  H12 UNL     1      78.085  55.990  33.862  1.00  0.00     0.275 HD
ATOM      5  H11 UNL     1      76.461  55.813  34.265  1.00  0.00     0.275 HD
ENDBRANCH   1   2
BRANCH   1   6
HETATM    6  C2  UNL     1      78.436  53.185  34.188  1.00  0.00     0.002 C 
HETATM    7  C3  UNL     1      78.183  52.391  35.204  1.00  0.00    -0.024 C 
BRANCH   7   8
HETATM    8  C4  UNL     1      79.179  51.473  35.810  1.00  0.00     0.008 A 
HETATM    9  C5  UNL     1      79.408  51.445  37.268  1.00  0.00     0.009 A 
HETATM   10  C6  UNL     1      78.577  50.358  36.618  1.00  0.00     0.009 A 
ENDBRANCH   7   8
ENDBRANCH   1   6
BRANCH   1  11
HETATM   11  C7  UNL     1      77.665  54.289  32.158  1.00  0.00     0.020 A 
HETATM   12  C8  UNL     1      78.195  55.662  31.838  1.00  0.00     0.007 A 
HETATM   13  C9  UNL     1      79.498  55.025  31.414  1.00  0.00     0.001 A 
HETATM   14  C10 UNL     1      78.936  53.655  31.670  1.00  0.00     0.007 A 
ENDBRANCH   1  11
TORSDOF 4
ENDMDL
MODEL 5
REMARK VINA RESULT: -5.258663625      2.249      2.469
REMARK  4 active torsions:
REMARK  status: ('A' for Active; 'I' for Inactive)
REMARK    1  A    between atoms: N1_1  and  C1_5 
REMARK    2  A    between atoms: C1_5  and  C2_6 
REMARK    3  A    between atoms: C1_5  and  C7_11 
REMARK    4  A    between atoms: C3_7  and  C4_8 
ROOT
HETATM    1  C1  UNL     1      77.503  54.222  33.620  1.00  0.00     0.210 C 
ENDROOT
BRANCH   1   2
HETATM    2  N1  UNL     1      77.441  55.601  34.074  1.00  0.00    -0.071 N 
ATOM      3  H13 UNL     1      78.079  56.193  33.543  1.00  0.00     0.275 HD
ATOM      4  H12 UNL     1      76.557  56.037  33.810  1.00  0.00     0.275 HD
ATOM      5  H11 UNL     1      77.608  55.686  35.076  1.00  0.00     0.275 HD
ENDBRANCH   1   2
BRANCH   1   6
HETATM    6  C2  UNL     1      77.299  53.259  34.721  1.00  0.00     0.002 C 
HETATM    7  C3  UNL     1      78.299  52.530  35.166  1.00  0.00    -0.024 C 
BRANCH   7   8
HETATM    8  C4  UNL     1      78.181  51.541  36.265  1.00  0.00     0.008 A 
HETATM    9  C5  UNL     1      78.972  50.295  36.264  1.00  0.00     0.009 A 
HETATM   10  C6  UNL     1      79.396  51.452  37.146  1.00  0.00     0.009 A 
ENDBRANCH   7   8
ENDBRANCH   1   6
BRANCH   1  11
HETATM   11  C7  UNL     1      78.903  54.001  33.044  1.00  0.00     0.020 A 
HETATM   12  C8  UNL     1      78.901  53.454  31.640  1.00  0.00     0.007 A 
HETATM   13  C9  UNL     1      79.522  54.748  31.170  1.00  0.00     0.001 A 
HETATM   14  C10 UNL     1      79.585  55.256  32.582  1.00  0.00     0.007 A 
ENDBRANCH   1  11
TORSDOF 4
ENDMDL
