MODEL 1
REMARK VINA RESULT: -7.231886220      0.000      0.000
REMARK  4 active torsions:
REMARK  status: ('A' for Active; 'I' for Inactive)
REMARK    1  A    between atoms: C1_2  and  C2_3 
REMARK    2  A    between atoms: C1_2  and  C6_9 
REMARK    3  A    between atoms: C2_3  and  N1_4 
REMARK    4  A    between atoms: N1_4  and  C3_6 
ROOT
HETATM    1  C6  UNL     1      21.346   4.959   0.064  1.00  0.00     0.057 C 
HETATM    2  C7  UNL     1      22.510   4.189  -0.429  1.00  0.00     0.012 C 
HETATM    3  C8  UNL     1      23.820   4.957  -0.228  1.00  0.00     0.001 C 
HETATM    4  C9  UNL     1      24.703   4.342   0.805  1.00  0.00     0.000 C 
HETATM    5  C10 UNL     1      24.658   5.093   2.139  1.00  0.00     0.000 C 
HETATM    6  C11 UNL     1      24.424   4.123   3.236  1.00  0.00     0.000 C 
HETATM    7  C12 UNL     1      23.354   4.427   4.203  1.00  0.00     0.000 C 
HETATM    8  C13 UNL     1      22.075   4.959   3.700  1.00  0.00     0.000 C 
HETATM    9  C14 UNL     1      20.998   3.893   3.499  1.00  0.00     0.000 C 
HETATM   10  C15 UNL     1      21.040   3.387   2.045  1.00  0.00     0.001 C 
HETATM   11  C16 UNL     1      20.487   4.342   1.084  1.00  0.00     0.012 C 
ENDROOT
BRANCH   1  12
HETATM   12  C1  UNL     1      20.467   5.376  -1.082  1.00  0.00     0.148 C 
HETATM   13  O1  UNL     1      20.722   6.433  -1.628  1.00  0.00    -0.296 OA
BRANCH  12  14
HETATM   14  C2  UNL     1      19.331   4.560  -1.554  1.00  0.00     0.193 C 
BRANCH  14  15
HETATM   15  N1  UNL     1      19.729   3.801  -2.696  1.00  0.00    -0.411 N 
ATOM     16  H1  UNL     1      20.067   4.240  -3.552  1.00  0.00     0.154 HD
BRANCH  15  17
HETATM   17  C3  UNL     1      19.621   2.382  -2.555  1.00  0.00     0.077 A 
HETATM   18  C4  UNL     1      20.842   1.524  -2.465  1.00  0.00     0.027 A 
HETATM   19  C5  UNL     1      19.836   1.665  -1.293  1.00  0.00     0.027 A 
ENDBRANCH  15  17
ENDBRANCH  14  15
ENDBRANCH  12  14
ENDBRANCH   1  12
TORSDOF 4
ENDMDL
MODEL 2
REMARK VINA RESULT: -7.223311301      2.286      4.043
REMARK  4 active torsions:
REMARK  status: ('A' for Active; 'I' for Inactive)
REMARK    1  A    between atoms: C1_2  and  C2_3 
REMARK    2  A    between atoms: C1_2  and  C6_9 
REMARK    3  A    between atoms: C2_3  and  N1_4 
REMARK    4  A    between atoms: N1_4  and  C3_6 
ROOT
HETATM    1  C6  UNL     1      21.020   3.528   1.232  1.00  0.00     0.057 C 
HETATM    2  C7  UNL     1      20.724   4.634   2.170  1.00  0.00     0.012 C 
HETATM    3  C8  UNL     1      21.237   4.328   3.582  1.00  0.00     0.001 C 
HETATM    4  C9  UNL     1      22.385   5.193   3.983  1.00  0.00     0.000 C 
HETATM    5  C10 UNL     1      23.728   4.462   3.895  1.00  0.00     0.000 C 
HETATM    6  C11 UNL     1      24.689   5.301   3.138  1.00  0.00     0.000 C 
HETATM    7  C12 UNL     1      25.437   4.666   2.038  1.00  0.00     0.000 C 
HETATM    8  C13 UNL     1      24.721   3.751   1.131  1.00  0.00     0.000 C 
HETATM    9  C14 UNL     1      24.236   4.413  -0.158  1.00  0.00     0.000 C 
HETATM   10  C15 UNL     1      22.791   4.910   0.031  1.00  0.00     0.001 C 
HETATM   11  C16 UNL     1      21.802   3.831   0.026  1.00  0.00     0.012 C 
ENDROOT
BRANCH   1  12
HETATM   12  C1  UNL     1      19.750   2.853   0.796  1.00  0.00     0.148 C 
HETATM   13  O1  UNL     1      19.225   3.255  -0.225  1.00  0.00    -0.296 OA
BRANCH  12  14
HETATM   14  C2  UNL     1      19.136   1.744   1.552  1.00  0.00     0.193 C 
BRANCH  14  15
HETATM   15  N1  UNL     1      20.045   0.644   1.611  1.00  0.00    -0.411 N 
ATOM     16  H1  UNL     1      20.470   0.241   0.776  1.00  0.00     0.154 HD
BRANCH  15  17
HETATM   17  C3  UNL     1      20.319   0.148   2.924  1.00  0.00     0.077 A 
HETATM   18  C4  UNL     1      21.472   0.674   3.719  1.00  0.00     0.027 A 
HETATM   19  C5  UNL     1      19.998   0.876   4.158  1.00  0.00     0.027 A 
ENDBRANCH  15  17
ENDBRANCH  14  15
ENDBRANCH  12  14
ENDBRANCH   1  12
TORSDOF 4
ENDMDL
MODEL 3
REMARK VINA RESULT: -7.139312141      1.509      3.251
REMARK  4 active torsions:
REMARK  status: ('A' for Active; 'I' for Inactive)
REMARK    1  A    between atoms: C1_2  and  C2_3 
REMARK    2  A    between atoms: C1_2  and  C6_9 
REMARK    3  A    between atoms: C2_3  and  N1_4 
REMARK    4  A    between atoms: N1_4  and  C3_6 
ROOT
HETATM    1  C6  UNL     1      21.281   3.616   0.556  1.00  0.00     0.057 C 
HETATM    2  C7  UNL     1      20.784   4.690   1.446  1.00  0.00     0.012 C 
HETATM    3  C8  UNL     1      20.904   4.299   2.922  1.00  0.00     0.001 C 
HETATM    4  C9  UNL     1      21.932   5.094   3.654  1.00  0.00     0.000 C 
HETATM    5  C10 UNL     1      23.230   4.312   3.875  1.00  0.00     0.000 C 
HETATM    6  C11 UNL     1      24.379   5.143   3.439  1.00  0.00     0.000 C 
HETATM    7  C12 UNL     1      25.368   4.527   2.536  1.00  0.00     0.000 C 
HETATM    8  C13 UNL     1      24.886   3.686   1.426  1.00  0.00     0.000 C 
HETATM    9  C14 UNL     1      24.772   4.427   0.094  1.00  0.00     0.000 C 
HETATM   10  C15 UNL     1      23.343   4.976  -0.069  1.00  0.00     0.001 C 
HETATM   11  C16 UNL     1      22.358   3.941  -0.389  1.00  0.00     0.012 C 
ENDROOT
BRANCH   1  12
HETATM   12  C1  UNL     1      20.149   3.018  -0.230  1.00  0.00     0.148 C 
HETATM   13  O1  UNL     1      19.139   2.719   0.380  1.00  0.00    -0.296 OA
BRANCH  12  14
HETATM   14  C2  UNL     1      20.223   2.787  -1.686  1.00  0.00     0.193 C 
BRANCH  14  15
HETATM   15  N1  UNL     1      19.222   3.563  -2.345  1.00  0.00    -0.411 N 
ATOM     16  H1  UNL     1      18.229   3.339  -2.283  1.00  0.00     0.154 HD
BRANCH  15  17
HETATM   17  C3  UNL     1      19.710   4.675  -3.100  1.00  0.00     0.077 A 
HETATM   18  C4  UNL     1      20.070   5.961  -2.427  1.00  0.00     0.027 A 
HETATM   19  C5  UNL     1      21.120   5.076  -3.149  1.00  0.00     0.027 A 
ENDBRANCH  15  17
ENDBRANCH  14  15
ENDBRANCH  12  14
ENDBRANCH   1  12
TORSDOF 4
ENDMDL
MODEL 4
REMARK VINA RESULT: -6.929681956      2.432      3.161
REMARK  4 active torsions:
REMARK  status: ('A' for Active; 'I' for Inactive)
REMARK    1  A    between atoms: C1_2  and  C2_3 
REMARK    2  A    between atoms: C1_2  and  C6_9 
REMARK    3  A    between atoms: C2_3  and  N1_4 
REMARK    4  A    between atoms: N1_4  and  C3_6 
ROOT
HETATM    1  C6  UNL     1      20.582   4.922   1.271  1.00  0.00     0.057 C 
HETATM    2  C7  UNL     1      21.157   4.136   0.155  1.00  0.00     0.012 C 
HETATM    3  C8  UNL     1      22.299   4.890  -0.533  1.00  0.00     0.001 C 
HETATM    4  C9  UNL     1      23.634   4.267  -0.297  1.00  0.00     0.000 C 
HETATM    5  C10 UNL     1      24.457   5.022   0.751  1.00  0.00     0.000 C 
HETATM    6  C11 UNL     1      24.970   4.057   1.753  1.00  0.00     0.000 C 
HETATM    7  C12 UNL     1      24.767   4.375   3.178  1.00  0.00     0.000 C 
HETATM    8  C13 UNL     1      23.466   4.921   3.603  1.00  0.00     0.000 C 
HETATM    9  C14 UNL     1      22.502   3.867   4.146  1.00  0.00     0.000 C 
HETATM   10  C15 UNL     1      21.601   3.358   3.005  1.00  0.00     0.001 C 
HETATM   11  C16 UNL     1      20.568   4.317   2.611  1.00  0.00     0.012 C 
ENDROOT
BRANCH   1  12
HETATM   12  C1  UNL     1      19.178   5.346   0.948  1.00  0.00     0.148 C 
HETATM   13  O1  UNL     1      18.763   6.361   1.475  1.00  0.00    -0.296 OA
BRANCH  12  14
HETATM   14  C2  UNL     1      18.306   4.587   0.029  1.00  0.00     0.193 C 
BRANCH  14  15
HETATM   15  N1  UNL     1      17.018   4.418   0.621  1.00  0.00    -0.411 N 
ATOM     16  H1  UNL     1      16.184   4.875   0.254  1.00  0.00     0.154 HD
BRANCH  15  17
HETATM   17  C3  UNL     1      16.980   3.562   1.766  1.00  0.00     0.077 A 
HETATM   18  C4  UNL     1      16.310   3.999   3.030  1.00  0.00     0.027 A 
HETATM   19  C5  UNL     1      15.794   2.805   2.184  1.00  0.00     0.027 A 
ENDBRANCH  15  17
ENDBRANCH  14  15
ENDBRANCH  12  14
ENDBRANCH   1  12
TORSDOF 4
ENDMDL
MODEL 5
REMARK VINA RESULT: -6.851869831      2.478      3.668
REMARK  4 active torsions:
REMARK  status: ('A' for Active; 'I' for Inactive)
REMARK    1  A    between atoms: C1_2  and  C2_3 
REMARK    2  A    between atoms: C1_2  and  C6_9 
REMARK    3  A    between atoms: C2_3  and  N1_4 
REMARK    4  A    between atoms: N1_4  and  C3_6 
ROOT
HETATM    1  C6  UNL     1      20.639   4.737   0.977  1.00  0.00     0.057 C 
HETATM    2  C7  UNL     1      21.389   4.031  -0.087  1.00  0.00     0.012 C 
HETATM    3  C8  UNL     1      22.545   4.883  -0.621  1.00  0.00     0.001 C 
HETATM    4  C9  UNL     1      23.885   4.343  -0.252  1.00  0.00     0.000 C 
HETATM    5  C10 UNL     1      24.532   5.116   0.902  1.00  0.00     0.000 C 
HETATM    6  C11 UNL     1      24.996   4.154   1.931  1.00  0.00     0.000 C 
HETATM    7  C12 UNL     1      24.615   4.409   3.331  1.00  0.00     0.000 C 
HETATM    8  C13 UNL     1      23.239   4.852   3.620  1.00  0.00     0.000 C 
HETATM    9  C14 UNL     1      22.297   3.717   4.022  1.00  0.00     0.000 C 
HETATM   10  C15 UNL     1      21.567   3.188   2.774  1.00  0.00     0.001 C 
HETATM   11  C16 UNL     1      20.519   4.088   2.290  1.00  0.00     0.012 C 
ENDROOT
BRANCH   1  12
HETATM   12  C1  UNL     1      19.253   5.077   0.507  1.00  0.00     0.148 C 
HETATM   13  O1  UNL     1      19.135   5.513  -0.622  1.00  0.00    -0.296 OA
BRANCH  12  14
HETATM   14  C2  UNL     1      18.058   4.900   1.356  1.00  0.00     0.193 C 
BRANCH  14  15
HETATM   15  N1  UNL     1      17.618   6.172   1.832  1.00  0.00    -0.411 N 
ATOM     16  H1  UNL     1      17.651   7.013   1.256  1.00  0.00     0.154 HD
BRANCH  15  17
HETATM   17  C3  UNL     1      17.128   6.185   3.176  1.00  0.00     0.077 A 
HETATM   18  C4  UNL     1      16.084   5.211   3.622  1.00  0.00     0.027 A 
HETATM   19  C5  UNL     1      17.523   5.212   4.201  1.00  0.00     0.027 A 
ENDBRANCH  15  17
ENDBRANCH  14  15
ENDBRANCH  12  14
ENDBRANCH   1  12
TORSDOF 4
ENDMDL
