MODEL 1
REMARK VINA RESULT: -4.629884812      0.000      0.000
REMARK  5 active torsions:
REMARK  status: ('A' for Active; 'I' for Inactive)
REMARK    1  A    between atoms: C3_9  and  N4_10 
REMARK    2  A    between atoms: N4_10  and  O1_12 
REMARK    3  A    between atoms: C4_14  and  C5_15 
REMARK    4  A    between atoms: C5_15  and  N5_16 
REMARK    5  A    between atoms: C5_15  and  N6_20 
ROOT
HETATM    1  C1  UNL     1      15.118 -23.948 -19.416  1.00  0.00     0.178 C 
HETATM    2  N1  UNL     1      13.828 -23.340 -19.215  1.00  0.00    -0.293 N 
HETATM    3  N2  UNL     1      12.932 -23.773 -18.342  1.00  0.00    -0.282 N 
ATOM      4  H2  UNL     1      13.061 -24.576 -17.726  1.00  0.00     0.189 HD
HETATM    5  C2  UNL     1      11.836 -23.014 -18.379  1.00  0.00     0.145 A 
HETATM    6  N3  UNL     1      10.759 -23.127 -17.677  1.00  0.00    -0.382 N 
ATOM      7  H31 UNL     1       9.920 -22.546 -17.706  1.00  0.00     0.157 HD
ATOM      8  H32 UNL     1      10.574 -23.834 -16.967  1.00  0.00     0.157 HD
HETATM    9  C3  UNL     1      12.086 -22.055 -19.342  1.00  0.00     0.127 A 
HETATM   10  C4  UNL     1      13.346 -22.272 -19.862  1.00  0.00     0.117 A 
ENDROOT
BRANCH  10  11
HETATM   11  C5  UNL     1      14.039 -21.503 -20.909  1.00  0.00     0.431 C 
BRANCH  11  12
HETATM   12  N5  UNL     1      14.100 -20.088 -20.630  1.00  0.00    -0.045 N 
ATOM     13  H53 UNL     1      13.169 -19.672 -20.660  1.00  0.00     0.277 HD
ATOM     14  H52 UNL     1      14.327 -19.921 -19.650  1.00  0.00     0.277 HD
ATOM     15  H51 UNL     1      14.741 -19.585 -21.242  1.00  0.00     0.277 HD
ENDBRANCH  11  12
BRANCH  11  16
HETATM   16  N6  UNL     1      13.519 -21.771 -22.232  1.00  0.00    -0.045 N 
ATOM     17  H63 UNL     1      13.246 -22.749 -22.328  1.00  0.00     0.277 HD
ATOM     18  H62 UNL     1      12.607 -21.333 -22.363  1.00  0.00     0.277 HD
ATOM     19  H61 UNL     1      14.166 -21.497 -22.971  1.00  0.00     0.277 HD
ENDBRANCH  11  16
ENDBRANCH  10  11
BRANCH   9  20
HETATM   20  N4  UNL     1      11.183 -21.011 -19.731  1.00  0.00    -0.263 N 
ATOM     21  H4  UNL     1      11.453 -20.027 -19.718  1.00  0.00     0.194 HD
BRANCH  20  22
HETATM   22  O1  UNL     1      10.046 -21.384 -20.088  1.00  0.00    -0.289 OA
ATOM     23  H1  UNL     1       9.624 -22.017 -19.519  1.00  0.00     0.244 HD
ENDBRANCH  20  22
ENDBRANCH   9  20
TORSDOF 5
ENDMDL
MODEL 2
REMARK VINA RESULT: -4.436948367      1.848      3.420
REMARK  5 active torsions:
REMARK  status: ('A' for Active; 'I' for Inactive)
REMARK    1  A    between atoms: C3_9  and  N4_10 
REMARK    2  A    between atoms: N4_10  and  O1_12 
REMARK    3  A    between atoms: C4_14  and  C5_15 
REMARK    4  A    between atoms: C5_15  and  N5_16 
REMARK    5  A    between atoms: C5_15  and  N6_20 
ROOT
HETATM    1  C1  UNL     1      13.673 -20.530 -20.011  1.00  0.00     0.178 C 
HETATM    2  N1  UNL     1      12.506 -21.223 -19.529  1.00  0.00    -0.293 N 
HETATM    3  N2  UNL     1      11.271 -20.966 -19.932  1.00  0.00    -0.282 N 
ATOM      4  H2  UNL     1      11.020 -20.256 -20.620  1.00  0.00     0.189 HD
HETATM    5  C2  UNL     1      10.399 -21.763 -19.312  1.00  0.00     0.145 A 
HETATM    6  N3  UNL     1       9.117 -21.806 -19.446  1.00  0.00    -0.382 N 
ATOM      7  H31 UNL     1       8.450 -22.415 -18.973  1.00  0.00     0.157 HD
ATOM      8  H32 UNL     1       8.556 -21.219 -20.063  1.00  0.00     0.157 HD
HETATM    9  C3  UNL     1      11.159 -22.557 -18.476  1.00  0.00     0.127 A 
HETATM   10  C4  UNL     1      12.486 -22.207 -18.621  1.00  0.00     0.117 A 
ENDROOT
BRANCH  10  11
HETATM   11  C5  UNL     1      13.657 -22.780 -17.935  1.00  0.00     0.431 C 
BRANCH  11  12
HETATM   12  N5  UNL     1      13.947 -24.135 -18.341  1.00  0.00    -0.045 N 
ATOM     13  H53 UNL     1      13.105 -24.711 -18.311  1.00  0.00     0.277 HD
ATOM     14  H52 UNL     1      14.145 -24.179 -19.341  1.00  0.00     0.277 HD
ATOM     15  H51 UNL     1      14.699 -24.563 -17.802  1.00  0.00     0.277 HD
ENDBRANCH  11  12
BRANCH  11  16
HETATM   16  N6  UNL     1      13.575 -22.653 -16.496  1.00  0.00    -0.045 N 
ATOM     17  H63 UNL     1      12.653 -22.322 -16.209  1.00  0.00     0.277 HD
ATOM     18  H62 UNL     1      13.568 -23.569 -16.047  1.00  0.00     0.277 HD
ATOM     19  H61 UNL     1      14.312 -22.063 -16.112  1.00  0.00     0.277 HD
ENDBRANCH  11  16
ENDBRANCH  10  11
BRANCH   9  20
HETATM   20  N4  UNL     1      10.649 -23.576 -17.604  1.00  0.00    -0.263 N 
ATOM     21  H4  UNL     1      10.837 -23.576 -16.601  1.00  0.00     0.194 HD
BRANCH  20  22
HETATM   22  O1  UNL     1       9.961 -24.461 -18.152  1.00  0.00    -0.289 OA
ATOM     23  H1  UNL     1      10.447 -25.137 -18.609  1.00  0.00     0.244 HD
ENDBRANCH  20  22
ENDBRANCH   9  20
TORSDOF 5
ENDMDL
MODEL 3
REMARK VINA RESULT: -4.399787897      2.691      3.961
REMARK  5 active torsions:
REMARK  status: ('A' for Active; 'I' for Inactive)
REMARK    1  A    between atoms: C3_9  and  N4_10 
REMARK    2  A    between atoms: N4_10  and  O1_12 
REMARK    3  A    between atoms: C4_14  and  C5_15 
REMARK    4  A    between atoms: C5_15  and  N5_16 
REMARK    5  A    between atoms: C5_15  and  N6_20 
ROOT
HETATM    1  C1  UNL     1      10.880 -23.572 -16.351  1.00  0.00     0.178 C 
HETATM    2  N1  UNL     1       9.792 -23.322 -17.261  1.00  0.00    -0.293 N 
HETATM    3  N2  UNL     1       8.574 -23.823 -17.116  1.00  0.00    -0.282 N 
ATOM      4  H2  UNL     1       8.284 -24.433 -16.352  1.00  0.00     0.189 HD
HETATM    5  C2  UNL     1       7.780 -23.420 -18.109  1.00  0.00     0.145 A 
HETATM    6  N3  UNL     1       6.536 -23.701 -18.304  1.00  0.00    -0.382 N 
ATOM      7  H31 UNL     1       5.928 -23.393 -19.063  1.00  0.00     0.157 HD
ATOM      8  H32 UNL     1       5.952 -24.292 -17.712  1.00  0.00     0.157 HD
HETATM    9  C3  UNL     1       8.571 -22.621 -18.911  1.00  0.00     0.127 A 
HETATM   10  C4  UNL     1       9.838 -22.567 -18.365  1.00  0.00     0.117 A 
ENDROOT
BRANCH  10  11
HETATM   11  C5  UNL     1      11.013 -21.838 -18.870  1.00  0.00     0.431 C 
BRANCH  11  12
HETATM   12  N5  UNL     1      10.679 -20.828 -19.847  1.00  0.00    -0.045 N 
ATOM     13  H53 UNL     1      10.190 -21.239 -20.642  1.00  0.00     0.277 HD
ATOM     14  H52 UNL     1       9.944 -20.214 -19.497  1.00  0.00     0.277 HD
ATOM     15  H51 UNL     1      11.486 -20.287 -20.157  1.00  0.00     0.277 HD
ENDBRANCH  11  12
BRANCH  11  16
HETATM   16  N6  UNL     1      12.055 -22.723 -19.344  1.00  0.00    -0.045 N 
ATOM     17  H63 UNL     1      12.979 -22.364 -19.102  1.00  0.00     0.277 HD
ATOM     18  H62 UNL     1      12.072 -23.590 -18.807  1.00  0.00     0.277 HD
ATOM     19  H61 UNL     1      11.985 -22.912 -20.343  1.00  0.00     0.277 HD
ENDBRANCH  11  16
ENDBRANCH  10  11
BRANCH   9  20
HETATM   20  N4  UNL     1       8.143 -21.959 -20.109  1.00  0.00    -0.263 N 
ATOM     21  H4  UNL     1       8.499 -21.042 -20.379  1.00  0.00     0.194 HD
BRANCH  20  22
HETATM   22  O1  UNL     1       7.307 -22.577 -20.799  1.00  0.00    -0.289 OA
ATOM     23  H1  UNL     1       6.463 -22.152 -20.903  1.00  0.00     0.244 HD
ENDBRANCH  20  22
ENDBRANCH   9  20
TORSDOF 5
ENDMDL
MODEL 4
REMARK VINA RESULT: -4.396199029      0.418      1.033
REMARK  5 active torsions:
REMARK  status: ('A' for Active; 'I' for Inactive)
REMARK    1  A    between atoms: C3_9  and  N4_10 
REMARK    2  A    between atoms: N4_10  and  O1_12 
REMARK    3  A    between atoms: C4_14  and  C5_15 
REMARK    4  A    between atoms: C5_15  and  N5_16 
REMARK    5  A    between atoms: C5_15  and  N6_20 
ROOT
HETATM    1  C1  UNL     1      14.963 -23.705 -19.752  1.00  0.00     0.178 C 
HETATM    2  N1  UNL     1      13.664 -23.178 -19.421  1.00  0.00    -0.293 N 
HETATM    3  N2  UNL     1      12.867 -23.696 -18.499  1.00  0.00    -0.282 N 
ATOM      4  H2  UNL     1      13.088 -24.515 -17.933  1.00  0.00     0.189 HD
HETATM    5  C2  UNL     1      11.733 -22.998 -18.414  1.00  0.00     0.145 A 
HETATM    6  N3  UNL     1      10.725 -23.199 -17.634  1.00  0.00    -0.382 N 
ATOM      7  H31 UNL     1       9.858 -22.666 -17.569  1.00  0.00     0.157 HD
ATOM      8  H32 UNL     1      10.637 -23.945 -16.944  1.00  0.00     0.157 HD
HETATM    9  C3  UNL     1      11.853 -21.988 -19.349  1.00  0.00     0.127 A 
HETATM   10  C4  UNL     1      13.075 -22.113 -19.978  1.00  0.00     0.117 A 
ENDROOT
BRANCH  10  11
HETATM   11  C5  UNL     1      13.639 -21.265 -21.041  1.00  0.00     0.431 C 
BRANCH  11  12
HETATM   12  N5  UNL     1      13.648 -21.906 -22.335  1.00  0.00    -0.045 N 
ATOM     13  H53 UNL     1      13.130 -22.784 -22.308  1.00  0.00     0.277 HD
ATOM     14  H52 UNL     1      13.072 -21.390 -23.000  1.00  0.00     0.277 HD
ATOM     15  H51 UNL     1      14.588 -22.051 -22.704  1.00  0.00     0.277 HD
ENDBRANCH  11  12
BRANCH  11  16
HETATM   16  N6  UNL     1      14.938 -20.729 -20.695  1.00  0.00    -0.045 N 
ATOM     17  H63 UNL     1      15.244 -20.038 -21.380  1.00  0.00     0.277 HD
ATOM     18  H62 UNL     1      14.880 -20.129 -19.872  1.00  0.00     0.277 HD
ATOM     19  H61 UNL     1      15.641 -21.456 -20.568  1.00  0.00     0.277 HD
ENDBRANCH  11  16
ENDBRANCH  10  11
BRANCH   9  20
HETATM   20  N4  UNL     1      10.868 -20.980 -19.617  1.00  0.00    -0.263 N 
ATOM     21  H4  UNL     1      11.040 -19.991 -19.436  1.00  0.00     0.194 HD
BRANCH  20  22
HETATM   22  O1  UNL     1       9.787 -21.392 -20.087  1.00  0.00    -0.289 OA
ATOM     23  H1  UNL     1       9.194 -20.721 -20.403  1.00  0.00     0.244 HD
ENDBRANCH  20  22
ENDBRANCH   9  20
TORSDOF 5
ENDMDL
MODEL 5
REMARK VINA RESULT: -4.249128698      0.905      3.366
REMARK  5 active torsions:
REMARK  status: ('A' for Active; 'I' for Inactive)
REMARK    1  A    between atoms: C3_9  and  N4_10 
REMARK    2  A    between atoms: N4_10  and  O1_12 
REMARK    3  A    between atoms: C4_14  and  C5_15 
REMARK    4  A    between atoms: C5_15  and  N5_16 
REMARK    5  A    between atoms: C5_15  and  N6_20 
ROOT
HETATM    1  C1  UNL     1      14.360 -24.436 -18.597  1.00  0.00     0.178 C 
HETATM    2  N1  UNL     1      13.657 -23.290 -19.114  1.00  0.00    -0.293 N 
HETATM    3  N2  UNL     1      14.135 -22.485 -20.050  1.00  0.00    -0.282 N 
ATOM      4  H2  UNL     1      15.044 -22.593 -20.499  1.00  0.00     0.189 HD
HETATM    5  C2  UNL     1      13.263 -21.514 -20.325  1.00  0.00     0.145 A 
HETATM    6  N3  UNL     1      13.378 -20.552 -21.177  1.00  0.00    -0.382 N 
ATOM      7  H31 UNL     1      12.712 -19.809 -21.387  1.00  0.00     0.157 HD
ATOM      8  H32 UNL     1      14.176 -20.380 -21.788  1.00  0.00     0.157 HD
HETATM    9  C3  UNL     1      12.182 -21.746 -19.497  1.00  0.00     0.127 A 
HETATM   10  C4  UNL     1      12.442 -22.869 -18.738  1.00  0.00     0.117 A 
ENDROOT
BRANCH  10  11
HETATM   11  C5  UNL     1      11.582 -23.496 -17.720  1.00  0.00     0.431 C 
BRANCH  11  12
HETATM   12  N5  UNL     1      10.176 -23.421 -18.041  1.00  0.00    -0.045 N 
ATOM     13  H53 UNL     1       9.868 -22.450 -18.100  1.00  0.00     0.277 HD
ATOM     14  H52 UNL     1      10.007 -23.710 -19.004  1.00  0.00     0.277 HD
ATOM     15  H51 UNL     1       9.589 -23.949 -17.396  1.00  0.00     0.277 HD
ENDBRANCH  11  12
BRANCH  11  16
HETATM   16  N6  UNL     1      11.858 -23.013 -16.385  1.00  0.00    -0.045 N 
ATOM     17  H63 UNL     1      11.729 -22.002 -16.327  1.00  0.00     0.277 HD
ATOM     18  H62 UNL     1      11.133 -23.308 -15.731  1.00  0.00     0.277 HD
ATOM     19  H61 UNL     1      12.783 -23.284 -16.053  1.00  0.00     0.277 HD
ENDBRANCH  11  16
ENDBRANCH  10  11
BRANCH   9  20
HETATM   20  N4  UNL     1      10.990 -20.951 -19.441  1.00  0.00    -0.263 N 
ATOM     21  H4  UNL     1      10.929 -20.104 -18.875  1.00  0.00     0.194 HD
BRANCH  20  22
HETATM   22  O1  UNL     1      10.033 -21.361 -20.129  1.00  0.00    -0.289 OA
ATOM     23  H1  UNL     1       9.171 -21.083 -19.842  1.00  0.00     0.244 HD
ENDBRANCH  20  22
ENDBRANCH   9  20
TORSDOF 5
ENDMDL
