MODEL 1
REMARK VINA RESULT: -9.383764473      0.000      0.000
REMARK  10 active torsions:
REMARK  status: ('A' for Active; 'I' for Inactive)
REMARK    1  A    between atoms: C2_2  and  C3_3 
REMARK    2  A    between atoms: C3_3  and  N1_4 
REMARK    3  A    between atoms: N1_4  and  C4_6 
REMARK    4  A    between atoms: C7_9  and  O1_10 
REMARK    5  A    between atoms: C10_14  and  O2_15 
REMARK    6  A    between atoms: C21_27  and  C22_28 
REMARK    7  A    between atoms: C22_28  and  O3_29 
REMARK    8  A    between atoms: C22_28  and  C23_31 
REMARK    9  A    between atoms: C23_31  and  C24_32 
REMARK   10  A    between atoms: C24_32  and  C25_33 
ROOT
HETATM    1  C4  UNL     1      14.733  20.914  28.702  1.00  0.00     0.095 C 
HETATM    2  C5  UNL     1      14.884  21.912  29.860  1.00  0.00     0.043 C 
HETATM    3  C6  UNL     1      15.989  22.919  29.674  1.00  0.00     0.015 C 
HETATM    4  C7  UNL     1      14.765  21.432  31.271  1.00  0.00     0.086 C 
HETATM    5  C8  UNL     1      13.371  21.438  31.837  1.00  0.00     0.045 C 
HETATM    6  C9  UNL     1      12.732  20.166  31.343  1.00  0.00     0.036 C 
HETATM    7  C10 UNL     1      13.109  19.956  29.944  1.00  0.00     0.129 C 
HETATM    8  C11 UNL     1      14.446  19.637  29.451  1.00  0.00     0.010 C 
HETATM    9  C12 UNL     1      14.438  18.301  28.837  1.00  0.00     0.015 C 
HETATM   10  C13 UNL     1      15.039  17.147  29.512  1.00  0.00     0.011 C 
HETATM   11  C14 UNL     1      14.955  16.866  30.960  1.00  0.00    -0.033 A 
HETATM   12  C15 UNL     1      13.601  16.411  31.462  1.00  0.00     0.016 C 
HETATM   13  C16 UNL     1      16.099  17.142  31.821  1.00  0.00     0.005 A 
HETATM   14  C17 UNL     1      15.739  18.006  32.934  1.00  0.00     0.033 C 
HETATM   15  C18 UNL     1      15.268  19.378  32.623  1.00  0.00    -0.020 C 
HETATM   16  C19 UNL     1      15.277  20.013  31.508  1.00  0.00    -0.048 C 
HETATM   17  C20 UNL     1      15.727  19.600  30.211  1.00  0.00     0.051 C 
HETATM   18  C21 UNL     1      15.874  15.760  31.482  1.00  0.00     0.028 A 
ENDROOT
BRANCH  18  19
HETATM   19  C22 UNL     1      16.696  14.981  30.505  1.00  0.00     0.123 C 
BRANCH  19  20
HETATM   20  O3  UNL     1      16.046  13.873  29.983  1.00  0.00    -0.395 OA
ATOM     21  H3  UNL     1      16.631  13.233  29.595  1.00  0.00     0.210 HD
ENDBRANCH  19  20
BRANCH  19  22
HETATM   22  C23 UNL     1      17.936  14.428  31.188  1.00  0.00     0.033 C 
BRANCH  22  23
HETATM   23  C24 UNL     1      17.614  13.313  32.127  1.00  0.00     0.014 C 
BRANCH  23  24
HETATM   24  C25 UNL     1      18.091  13.602  33.510  1.00  0.00    -0.010 C 
HETATM   25  C26 UNL     1      19.509  14.120  33.546  1.00  0.00     0.018 C 
HETATM   26  C27 UNL     1      17.227  14.573  34.281  1.00  0.00     0.188 C 
HETATM   27  O4  UNL     1      16.131  13.732  34.645  1.00  0.00    -0.320 OA
HETATM   28  C28 UNL     1      16.665  12.484  34.988  1.00  0.00     0.263 C 
HETATM   29  O5  UNL     1      16.144  11.555  35.659  1.00  0.00    -0.265 OA
HETATM   30  C29 UNL     1      18.027  12.386  34.416  1.00  0.00     0.091 C 
HETATM   31  C30 UNL     1      18.318  11.103  33.720  1.00  0.00     0.021 C 
ENDBRANCH  23  24
ENDBRANCH  22  23
ENDBRANCH  19  22
ENDBRANCH  18  19
BRANCH   1  32
HETATM   32  N1  UNL     1      15.662  20.919  27.678  1.00  0.00    -0.413 N 
ATOM     33  H1  UNL     1      16.547  20.423  27.782  1.00  0.00     0.153 HD
BRANCH  32  34
HETATM   34  C3  UNL     1      15.367  21.631  26.469  1.00  0.00     0.141 C 
BRANCH  34  35
HETATM   35  C2  UNL     1      15.541  23.106  26.628  1.00  0.00    -0.018 C 
HETATM   36  C1  UNL     1      15.216  23.992  25.707  1.00  0.00     0.008 C 
ENDBRANCH  34  35
ENDBRANCH  32  34
ENDBRANCH   1  32
BRANCH   7  37
HETATM   37  O2  UNL     1      12.134  19.067  29.403  1.00  0.00    -0.395 OA
ATOM     38  H2  UNL     1      11.511  19.613  28.938  1.00  0.00     0.210 HD
ENDBRANCH   7  37
BRANCH   4  39
HETATM   39  O1  UNL     1      15.527  22.241  32.091  1.00  0.00    -0.385 OA
ATOM     40  H1  UNL     1      15.670  21.799  32.920  1.00  0.00     0.211 HD
ENDBRANCH   4  39
TORSDOF 10
ENDMDL
MODEL 2
REMARK VINA RESULT: -9.052157767      1.419      1.877
REMARK  10 active torsions:
REMARK  status: ('A' for Active; 'I' for Inactive)
REMARK    1  A    between atoms: C2_2  and  C3_3 
REMARK    2  A    between atoms: C3_3  and  N1_4 
REMARK    3  A    between atoms: N1_4  and  C4_6 
REMARK    4  A    between atoms: C7_9  and  O1_10 
REMARK    5  A    between atoms: C10_14  and  O2_15 
REMARK    6  A    between atoms: C21_27  and  C22_28 
REMARK    7  A    between atoms: C22_28  and  O3_29 
REMARK    8  A    between atoms: C22_28  and  C23_31 
REMARK    9  A    between atoms: C23_31  and  C24_32 
REMARK   10  A    between atoms: C24_32  and  C25_33 
ROOT
HETATM    1  C4  UNL     1      14.811  21.071  28.600  1.00  0.00     0.095 C 
HETATM    2  C5  UNL     1      15.031  22.015  29.792  1.00  0.00     0.043 C 
HETATM    3  C6  UNL     1      16.209  22.942  29.642  1.00  0.00     0.015 C 
HETATM    4  C7  UNL     1      14.870  21.498  31.185  1.00  0.00     0.086 C 
HETATM    5  C8  UNL     1      13.478  21.589  31.748  1.00  0.00     0.045 C 
HETATM    6  C9  UNL     1      12.748  20.386  31.210  1.00  0.00     0.036 C 
HETATM    7  C10 UNL     1      13.114  20.196  29.805  1.00  0.00     0.129 C 
HETATM    8  C11 UNL     1      14.426  19.794  29.304  1.00  0.00     0.010 C 
HETATM    9  C12 UNL     1      14.321  18.485  28.645  1.00  0.00     0.015 C 
HETATM   10  C13 UNL     1      14.831  17.266  29.281  1.00  0.00     0.011 C 
HETATM   11  C14 UNL     1      14.719  16.944  30.719  1.00  0.00    -0.033 A 
HETATM   12  C15 UNL     1      13.333  16.574  31.202  1.00  0.00     0.016 C 
HETATM   13  C16 UNL     1      15.877  17.104  31.591  1.00  0.00     0.005 A 
HETATM   14  C17 UNL     1      15.577  17.954  32.732  1.00  0.00     0.033 C 
HETATM   15  C18 UNL     1      15.212  19.367  32.467  1.00  0.00    -0.020 C 
HETATM   16  C19 UNL     1      15.274  20.038  31.375  1.00  0.00    -0.048 C 
HETATM   17  C20 UNL     1      15.696  19.636  30.065  1.00  0.00     0.051 C 
HETATM   18  C21 UNL     1      15.551  15.755  31.205  1.00  0.00     0.028 A 
ENDROOT
BRANCH  18  19
HETATM   19  C22 UNL     1      16.317  14.950  30.204  1.00  0.00     0.123 C 
BRANCH  19  20
HETATM   20  O3  UNL     1      15.541  14.037  29.507  1.00  0.00    -0.395 OA
ATOM     21  H3  UNL     1      15.274  14.337  28.646  1.00  0.00     0.210 HD
ENDBRANCH  19  20
BRANCH  19  22
HETATM   22  C23 UNL     1      17.378  14.117  30.903  1.00  0.00     0.033 C 
BRANCH  22  23
HETATM   23  C24 UNL     1      17.049  13.871  32.338  1.00  0.00     0.014 C 
BRANCH  23  24
HETATM   24  C25 UNL     1      18.257  13.974  33.206  1.00  0.00    -0.010 C 
HETATM   25  C26 UNL     1      18.564  12.690  33.942  1.00  0.00     0.018 C 
HETATM   26  C27 UNL     1      19.514  14.399  32.482  1.00  0.00     0.188 C 
HETATM   27  O4  UNL     1      19.282  15.801  32.336  1.00  0.00    -0.320 OA
HETATM   28  C28 UNL     1      18.694  16.248  33.526  1.00  0.00     0.263 C 
HETATM   29  O5  UNL     1      18.609  17.420  33.978  1.00  0.00    -0.265 OA
HETATM   30  C29 UNL     1      18.140  15.076  34.242  1.00  0.00     0.091 C 
HETATM   31  C30 UNL     1      16.760  15.264  34.765  1.00  0.00     0.021 C 
ENDBRANCH  23  24
ENDBRANCH  22  23
ENDBRANCH  19  22
ENDBRANCH  18  19
BRANCH   1  32
HETATM   32  N1  UNL     1      15.742  21.041  27.578  1.00  0.00    -0.413 N 
ATOM     33  H1  UNL     1      16.621  20.536  27.696  1.00  0.00     0.153 HD
BRANCH  32  34
HETATM   34  C3  UNL     1      15.459  21.730  26.353  1.00  0.00     0.141 C 
BRANCH  34  35
HETATM   35  C2  UNL     1      15.114  23.165  26.582  1.00  0.00    -0.018 C 
HETATM   36  C1  UNL     1      15.331  24.126  25.704  1.00  0.00     0.008 C 
ENDBRANCH  34  35
ENDBRANCH  32  34
ENDBRANCH   1  32
BRANCH   7  37
HETATM   37  O2  UNL     1      12.078  19.401  29.233  1.00  0.00    -0.395 OA
ATOM     38  H2  UNL     1      12.511  18.778  28.661  1.00  0.00     0.210 HD
ENDBRANCH   7  37
BRANCH   4  39
HETATM   39  O1  UNL     1      15.687  22.219  32.033  1.00  0.00    -0.385 OA
ATOM     40  H1  UNL     1      16.573  22.219  31.689  1.00  0.00     0.211 HD
ENDBRANCH   4  39
TORSDOF 10
ENDMDL
MODEL 3
REMARK VINA RESULT: -8.877875028      2.284      7.818
REMARK  10 active torsions:
REMARK  status: ('A' for Active; 'I' for Inactive)
REMARK    1  A    between atoms: C2_2  and  C3_3 
REMARK    2  A    between atoms: C3_3  and  N1_4 
REMARK    3  A    between atoms: N1_4  and  C4_6 
REMARK    4  A    between atoms: C7_9  and  O1_10 
REMARK    5  A    between atoms: C10_14  and  O2_15 
REMARK    6  A    between atoms: C21_27  and  C22_28 
REMARK    7  A    between atoms: C22_28  and  O3_29 
REMARK    8  A    between atoms: C22_28  and  C23_31 
REMARK    9  A    between atoms: C23_31  and  C24_32 
REMARK   10  A    between atoms: C24_32  and  C25_33 
ROOT
HETATM    1  C4  UNL     1      18.587  17.115  32.820  1.00  0.00     0.095 C 
HETATM    2  C5  UNL     1      18.857  15.839  32.007  1.00  0.00     0.043 C 
HETATM    3  C6  UNL     1      19.933  15.983  30.964  1.00  0.00     0.015 C 
HETATM    4  C7  UNL     1      17.710  14.997  31.550  1.00  0.00     0.086 C 
HETATM    5  C8  UNL     1      17.266  13.934  32.517  1.00  0.00     0.045 C 
HETATM    6  C9  UNL     1      16.366  14.636  33.502  1.00  0.00     0.036 C 
HETATM    7  C10 UNL     1      16.951  15.936  33.836  1.00  0.00     0.129 C 
HETATM    8  C11 UNL     1      17.084  17.078  32.935  1.00  0.00     0.010 C 
HETATM    9  C12 UNL     1      16.264  18.193  33.429  1.00  0.00     0.015 C 
HETATM   10  C13 UNL     1      15.003  18.562  32.778  1.00  0.00     0.011 C 
HETATM   11  C14 UNL     1      14.010  17.609  32.241  1.00  0.00    -0.033 A 
HETATM   12  C15 UNL     1      13.212  16.842  33.275  1.00  0.00     0.016 C 
HETATM   13  C16 UNL     1      13.930  17.374  30.804  1.00  0.00     0.005 A 
HETATM   14  C17 UNL     1      14.051  15.962  30.482  1.00  0.00     0.033 C 
HETATM   15  C18 UNL     1      15.324  15.279  30.820  1.00  0.00    -0.020 C 
HETATM   16  C19 UNL     1      16.439  15.776  31.216  1.00  0.00    -0.048 C 
HETATM   17  C20 UNL     1      16.806  17.138  31.473  1.00  0.00     0.051 C 
HETATM   18  C21 UNL     1      12.905  18.211  31.372  1.00  0.00     0.028 A 
ENDROOT
BRANCH  18  19
HETATM   19  C22 UNL     1      12.838  19.697  31.214  1.00  0.00     0.123 C 
BRANCH  19  20
HETATM   20  O3  UNL     1      11.671  20.262  31.705  1.00  0.00    -0.395 OA
ATOM     21  H3  UNL     1      11.320  20.955  31.159  1.00  0.00     0.210 HD
ENDBRANCH  19  20
BRANCH  19  22
HETATM   22  C23 UNL     1      12.868  20.069  29.741  1.00  0.00     0.033 C 
BRANCH  22  23
HETATM   23  C24 UNL     1      13.523  21.389  29.503  1.00  0.00     0.014 C 
BRANCH  23  24
HETATM   24  C25 UNL     1      14.918  21.229  29.000  1.00  0.00    -0.010 C 
HETATM   25  C26 UNL     1      15.692  20.165  29.742  1.00  0.00     0.018 C 
HETATM   26  C27 UNL     1      15.021  20.926  27.523  1.00  0.00     0.188 C 
HETATM   27  O4  UNL     1      14.778  22.218  26.963  1.00  0.00    -0.320 OA
HETATM   28  C28 UNL     1      15.441  23.149  27.773  1.00  0.00     0.263 C 
HETATM   29  O5  UNL     1      15.776  24.334  27.509  1.00  0.00    -0.265 OA
HETATM   30  C29 UNL     1      15.719  22.516  29.082  1.00  0.00     0.091 C 
HETATM   31  C30 UNL     1      15.385  23.357  30.263  1.00  0.00     0.021 C 
ENDBRANCH  23  24
ENDBRANCH  22  23
ENDBRANCH  19  22
ENDBRANCH  18  19
BRANCH   1  32
HETATM   32  N1  UNL     1      19.224  18.290  32.467  1.00  0.00    -0.413 N 
ATOM     33  H1  UNL     1      19.955  18.287  31.755  1.00  0.00     0.153 HD
BRANCH  32  34
HETATM   34  C3  UNL     1      18.845  19.513  33.112  1.00  0.00     0.141 C 
BRANCH  34  35
HETATM   35  C2  UNL     1      18.592  20.611  32.131  1.00  0.00    -0.018 C 
HETATM   36  C1  UNL     1      17.557  21.427  32.188  1.00  0.00     0.008 C 
ENDBRANCH  34  35
ENDBRANCH  32  34
ENDBRANCH   1  32
BRANCH   7  37
HETATM   37  O2  UNL     1      16.363  16.324  35.076  1.00  0.00    -0.395 OA
ATOM     38  H2  UNL     1      17.084  16.428  35.687  1.00  0.00     0.210 HD
ENDBRANCH   7  37
BRANCH   4  39
HETATM   39  O1  UNL     1      18.061  14.348  30.383  1.00  0.00    -0.385 OA
ATOM     40  H1  UNL     1      17.612  13.511  30.345  1.00  0.00     0.211 HD
ENDBRANCH   4  39
TORSDOF 10
ENDMDL
MODEL 4
REMARK VINA RESULT: -8.813702568      2.739      8.668
REMARK  10 active torsions:
REMARK  status: ('A' for Active; 'I' for Inactive)
REMARK    1  A    between atoms: C2_2  and  C3_3 
REMARK    2  A    between atoms: C3_3  and  N1_4 
REMARK    3  A    between atoms: N1_4  and  C4_6 
REMARK    4  A    between atoms: C7_9  and  O1_10 
REMARK    5  A    between atoms: C10_14  and  O2_15 
REMARK    6  A    between atoms: C21_27  and  C22_28 
REMARK    7  A    between atoms: C22_28  and  O3_29 
REMARK    8  A    between atoms: C22_28  and  C23_31 
REMARK    9  A    between atoms: C23_31  and  C24_32 
REMARK   10  A    between atoms: C24_32  and  C25_33 
ROOT
HETATM    1  C4  UNL     1      15.763  14.877  33.855  1.00  0.00     0.095 C 
HETATM    2  C5  UNL     1      16.851  13.802  33.711  1.00  0.00     0.043 C 
HETATM    3  C6  UNL     1      17.352  13.246  35.018  1.00  0.00     0.015 C 
HETATM    4  C7  UNL     1      17.936  13.978  32.698  1.00  0.00     0.086 C 
HETATM    5  C8  UNL     1      17.632  13.434  31.329  1.00  0.00     0.045 C 
HETATM    6  C9  UNL     1      16.813  14.499  30.646  1.00  0.00     0.036 C 
HETATM    7  C10 UNL     1      15.851  15.047  31.605  1.00  0.00     0.129 C 
HETATM    8  C11 UNL     1      16.171  15.853  32.780  1.00  0.00     0.010 C 
HETATM    9  C12 UNL     1      15.600  17.199  32.623  1.00  0.00     0.015 C 
HETATM   10  C13 UNL     1      16.444  18.356  32.314  1.00  0.00     0.011 C 
HETATM   11  C14 UNL     1      17.588  18.351  31.379  1.00  0.00    -0.033 A 
HETATM   12  C15 UNL     1      17.234  18.261  29.910  1.00  0.00     0.016 C 
HETATM   13  C16 UNL     1      18.951  18.316  31.898  1.00  0.00     0.005 A 
HETATM   14  C17 UNL     1      19.712  17.211  31.338  1.00  0.00     0.033 C 
HETATM   15  C18 UNL     1      19.250  15.832  31.631  1.00  0.00    -0.020 C 
HETATM   16  C19 UNL     1      18.357  15.426  32.458  1.00  0.00    -0.048 C 
HETATM   17  C20 UNL     1      17.512  16.170  33.346  1.00  0.00     0.051 C 
HETATM   18  C21 UNL     1      18.486  19.590  31.412  1.00  0.00     0.028 A 
ENDROOT
BRANCH  18  19
HETATM   19  C22 UNL     1      18.098  20.741  32.285  1.00  0.00     0.123 C 
BRANCH  19  20
HETATM   20  O3  UNL     1      18.136  20.453  33.641  1.00  0.00    -0.395 OA
ATOM     21  H3  UNL     1      17.879  21.181  34.195  1.00  0.00     0.210 HD
ENDBRANCH  19  20
BRANCH  19  22
HETATM   22  C23 UNL     1      16.661  21.148  32.007  1.00  0.00     0.033 C 
BRANCH  22  23
HETATM   23  C24 UNL     1      16.465  21.604  30.599  1.00  0.00     0.014 C 
BRANCH  23  24
HETATM   24  C25 UNL     1      15.048  21.989  30.336  1.00  0.00    -0.010 C 
HETATM   25  C26 UNL     1      14.085  21.410  31.346  1.00  0.00     0.018 C 
HETATM   26  C27 UNL     1      14.805  23.479  30.272  1.00  0.00     0.188 C 
HETATM   27  O4  UNL     1      15.313  23.782  28.972  1.00  0.00    -0.320 OA
HETATM   28  C28 UNL     1      14.926  22.736  28.124  1.00  0.00     0.263 C 
HETATM   29  O5  UNL     1      14.864  22.715  26.866  1.00  0.00    -0.265 OA
HETATM   30  C29 UNL     1      14.573  21.565  28.959  1.00  0.00     0.091 C 
HETATM   31  C30 UNL     1      15.152  20.275  28.495  1.00  0.00     0.021 C 
ENDBRANCH  23  24
ENDBRANCH  22  23
ENDBRANCH  19  22
ENDBRANCH  18  19
BRANCH   1  32
HETATM   32  N1  UNL     1      15.428  15.338  35.115  1.00  0.00    -0.413 N 
ATOM     33  H1  UNL     1      16.145  15.722  35.730  1.00  0.00     0.153 HD
BRANCH  32  34
HETATM   34  C3  UNL     1      14.063  15.268  35.546  1.00  0.00     0.141 C 
BRANCH  34  35
HETATM   35  C2  UNL     1      13.834  14.151  36.511  1.00  0.00    -0.018 C 
HETATM   36  C1  UNL     1      13.737  12.883  36.161  1.00  0.00     0.008 C 
ENDBRANCH  34  35
ENDBRANCH  32  34
ENDBRANCH   1  32
BRANCH   7  37
HETATM   37  O2  UNL     1      14.822  15.655  30.826  1.00  0.00    -0.395 OA
ATOM     38  H2  UNL     1      14.033  15.609  31.353  1.00  0.00     0.210 HD
ENDBRANCH   7  37
BRANCH   4  39
HETATM   39  O1  UNL     1      19.074  13.331  33.136  1.00  0.00    -0.385 OA
ATOM     40  H1  UNL     1      19.453  13.820  33.858  1.00  0.00     0.211 HD
ENDBRANCH   4  39
TORSDOF 10
ENDMDL
MODEL 5
REMARK VINA RESULT: -8.567609032      6.046     11.320
REMARK  10 active torsions:
REMARK  status: ('A' for Active; 'I' for Inactive)
REMARK    1  A    between atoms: C2_2  and  C3_3 
REMARK    2  A    between atoms: C3_3  and  N1_4 
REMARK    3  A    between atoms: N1_4  and  C4_6 
REMARK    4  A    between atoms: C7_9  and  O1_10 
REMARK    5  A    between atoms: C10_14  and  O2_15 
REMARK    6  A    between atoms: C21_27  and  C22_28 
REMARK    7  A    between atoms: C22_28  and  O3_29 
REMARK    8  A    between atoms: C22_28  and  C23_31 
REMARK    9  A    between atoms: C23_31  and  C24_32 
REMARK   10  A    between atoms: C24_32  and  C25_33 
ROOT
HETATM    1  C4  UNL     1      12.230  11.706  40.784  1.00  0.00     0.095 C 
HETATM    2  C5  UNL     1      12.506  10.205  40.602  1.00  0.00     0.043 C 
HETATM    3  C6  UNL     1      13.488   9.630  41.588  1.00  0.00     0.015 C 
HETATM    4  C7  UNL     1      12.664   9.643  39.226  1.00  0.00     0.086 C 
HETATM    5  C8  UNL     1      11.391   9.189  38.567  1.00  0.00     0.045 C 
HETATM    6  C9  UNL     1      10.769  10.435  37.993  1.00  0.00     0.036 C 
HETATM    7  C10 UNL     1      10.914  11.527  38.958  1.00  0.00     0.129 C 
HETATM    8  C11 UNL     1      12.167  12.168  39.350  1.00  0.00     0.010 C 
HETATM    9  C12 UNL     1      12.149  13.578  38.934  1.00  0.00     0.015 C 
HETATM   10  C13 UNL     1      12.936  14.048  37.791  1.00  0.00     0.011 C 
HETATM   11  C14 UNL     1      13.121  13.313  36.523  1.00  0.00    -0.033 A 
HETATM   12  C15 UNL     1      11.909  13.251  35.618  1.00  0.00     0.016 C 
HETATM   13  C16 UNL     1      14.373  12.611  36.266  1.00  0.00     0.005 A 
HETATM   14  C17 UNL     1      14.148  11.211  35.941  1.00  0.00     0.033 C 
HETATM   15  C18 UNL     1      13.535  10.348  36.980  1.00  0.00    -0.020 C 
HETATM   16  C19 UNL     1      13.309  10.593  38.219  1.00  0.00    -0.048 C 
HETATM   17  C20 UNL     1      13.558  11.776  38.988  1.00  0.00     0.051 C 
HETATM   18  C21 UNL     1      14.192  13.864  35.579  1.00  0.00     0.028 A 
ENDROOT
BRANCH  18  19
HETATM   19  C22 UNL     1      14.888  15.137  35.940  1.00  0.00     0.123 C 
BRANCH  19  20
HETATM   20  O3  UNL     1      14.297  16.271  35.403  1.00  0.00    -0.395 OA
ATOM     21  H3  UNL     1      14.093  16.196  34.478  1.00  0.00     0.210 HD
ENDBRANCH  19  20
BRANCH  19  22
HETATM   22  C23 UNL     1      16.306  15.133  35.393  1.00  0.00     0.033 C 
BRANCH  22  23
HETATM   23  C24 UNL     1      16.392  14.486  34.051  1.00  0.00     0.014 C 
BRANCH  23  24
HETATM   24  C25 UNL     1      16.704  15.476  32.980  1.00  0.00    -0.010 C 
HETATM   25  C26 UNL     1      15.474  15.946  32.238  1.00  0.00     0.018 C 
HETATM   26  C27 UNL     1      17.447  16.702  33.459  1.00  0.00     0.188 C 
HETATM   27  O4  UNL     1      18.768  16.179  33.604  1.00  0.00    -0.320 OA
HETATM   28  C28 UNL     1      18.991  15.315  32.525  1.00  0.00     0.263 C 
HETATM   29  O5  UNL     1      20.081  14.887  32.062  1.00  0.00    -0.265 OA
HETATM   30  C29 UNL     1      17.679  14.937  31.951  1.00  0.00     0.091 C 
HETATM   31  C30 UNL     1      17.518  13.483  31.675  1.00  0.00     0.021 C 
ENDBRANCH  23  24
ENDBRANCH  22  23
ENDBRANCH  19  22
ENDBRANCH  18  19
BRANCH   1  32
HETATM   32  N1  UNL     1      12.968  12.423  41.708  1.00  0.00    -0.413 N 
ATOM     33  H1  UNL     1      13.985  12.452  41.645  1.00  0.00     0.153 HD
BRANCH  32  34
HETATM   34  C3  UNL     1      12.285  13.124  42.756  1.00  0.00     0.141 C 
BRANCH  34  35
HETATM   35  C2  UNL     1      10.909  12.590  42.986  1.00  0.00    -0.018 C 
HETATM   36  C1  UNL     1      10.538  11.952  44.079  1.00  0.00     0.008 C 
ENDBRANCH  34  35
ENDBRANCH  32  34
ENDBRANCH   1  32
BRANCH   7  37
HETATM   37  O2  UNL     1       9.926  12.494  38.609  1.00  0.00    -0.395 OA
ATOM     38  H2  UNL     1       9.496  12.735  39.421  1.00  0.00     0.210 HD
ENDBRANCH   7  37
BRANCH   4  39
HETATM   39  O1  UNL     1      13.496   8.542  39.279  1.00  0.00    -0.385 OA
ATOM     40  H1  UNL     1      13.987   8.483  38.467  1.00  0.00     0.211 HD
ENDBRANCH   4  39
TORSDOF 10
ENDMDL
