MODEL 1
REMARK VINA RESULT: -7.478680503      0.000      0.000
REMARK  7 active torsions:
REMARK  status: ('A' for Active; 'I' for Inactive)
REMARK    1  A    between atoms: O1_2  and  C2_3 
REMARK    2  A    between atoms: C2_3  and  C3_5 
REMARK    3  A    between atoms: C5_7  and  N1_8 
REMARK    4  A    between atoms: C8_12  and  C9_13 
REMARK    5  A    between atoms: C9_13  and  N2_14 
REMARK    6  A    between atoms: C9_13  and  N3_18 
REMARK    7  A    between atoms: C10_24  and  N7_25 
ROOT
HETATM    1  N1  UNL     1      12.615  52.363 -50.958  1.00  0.00    -0.352 N 
ATOM      2  H1  UNL     1      13.333  51.736 -51.322  1.00  0.00     0.166 HD
HETATM    3  C6  UNL     1      12.013  52.114 -49.844  1.00  0.00     0.107 A 
HETATM    4  C7  UNL     1      12.324  50.982 -49.102  1.00  0.00     0.077 A 
HETATM    5  C8  UNL     1      11.694  50.699 -47.910  1.00  0.00     0.066 A 
HETATM    6  N8  UNL     1      10.756  51.558 -47.475  1.00  0.00    -0.352 N 
ATOM      7  H8  UNL     1      10.276  51.369 -46.595  1.00  0.00     0.166 HD
HETATM    8  C11 UNL     1      10.432  52.672 -48.181  1.00  0.00     0.182 A 
HETATM    9  N9  UNL     1      11.064  52.925 -49.344  1.00  0.00    -0.339 N 
ATOM     10  H9  UNL     1      10.813  53.765 -49.865  1.00  0.00     0.168 HD
ENDROOT
BRANCH   5  11
HETATM   11  C9  UNL     1      12.001  49.503 -47.096  1.00  0.00     0.370 C 
BRANCH  11  12
HETATM   12  N2  UNL     1      11.191  49.566 -45.880  1.00  0.00    -0.051 N 
ATOM     13  H23 UNL     1      11.746  49.755 -45.045  1.00  0.00     0.277 HD
ATOM     14  H22 UNL     1      10.600  50.397 -45.842  1.00  0.00     0.277 HD
ATOM     15  H21 UNL     1      10.658  48.699 -45.813  1.00  0.00     0.277 HD
ENDBRANCH  11  12
BRANCH  11  16
HETATM   16  N3  UNL     1      13.400  49.366 -46.824  1.00  0.00    -0.068 N 
HETATM   17  N4  UNL     1      14.084  49.974 -45.868  1.00  0.00     0.013 NA
HETATM   18  N5  UNL     1      15.367  49.589 -45.931  1.00  0.00    -0.211 N 
HETATM   19  N6  UNL     1      15.505  48.738 -46.922  1.00  0.00    -0.118 N 
ATOM     20  H5  UNL     1      16.113  49.905 -45.311  1.00  0.00     0.206 HD
HETATM   21  C10 UNL     1      14.291  48.598 -47.475  1.00  0.00     0.709 A 
ATOM     22  H6  UNL     1      16.366  48.275 -47.215  1.00  0.00     0.207 HD
BRANCH  21  23
HETATM   23  N7  UNL     1      13.996  47.849 -48.479  1.00  0.00    -0.232 N 
ATOM     24  H72 UNL     1      14.132  48.082 -49.463  1.00  0.00     0.174 HD
ATOM     25  H71 UNL     1      13.584  46.919 -48.395  1.00  0.00     0.174 HD
ENDBRANCH  21  23
ENDBRANCH  11  16
ENDBRANCH   5  11
BRANCH   1  26
HETATM   26  C5  UNL     1      12.241  53.545 -51.663  1.00  0.00     0.102 C 
HETATM   27  C3  UNL     1      13.121  54.500 -51.853  1.00  0.00     0.029 C 
HETATM   28  C4  UNL     1      14.506  54.358 -51.337  1.00  0.00     0.056 C 
BRANCH  27  29
HETATM   29  C2  UNL     1      12.783  55.719 -52.564  1.00  0.00     0.289 C 
HETATM   30  O2  UNL     1      13.665  56.601 -52.712  1.00  0.00    -0.260 OA
BRANCH  29  31
HETATM   31  O1  UNL     1      11.527  55.964 -53.095  1.00  0.00    -0.323 OA
HETATM   32  C1  UNL     1      10.948  57.247 -53.155  1.00  0.00     0.213 C 
ENDBRANCH  29  31
ENDBRANCH  27  29
ENDBRANCH   1  26
TORSDOF 7
ENDMDL
MODEL 2
REMARK VINA RESULT: -7.298073968      4.654      5.867
REMARK  7 active torsions:
REMARK  status: ('A' for Active; 'I' for Inactive)
REMARK    1  A    between atoms: O1_2  and  C2_3 
REMARK    2  A    between atoms: C2_3  and  C3_5 
REMARK    3  A    between atoms: C5_7  and  N1_8 
REMARK    4  A    between atoms: C8_12  and  C9_13 
REMARK    5  A    between atoms: C9_13  and  N2_14 
REMARK    6  A    between atoms: C9_13  and  N3_18 
REMARK    7  A    between atoms: C10_24  and  N7_25 
ROOT
HETATM    1  N1  UNL     1      14.194  48.317 -52.209  1.00  0.00    -0.352 N 
ATOM      2  H1  UNL     1      14.583  47.588 -51.612  1.00  0.00     0.166 HD
HETATM    3  C6  UNL     1      13.671  49.384 -51.707  1.00  0.00     0.107 A 
HETATM    4  C7  UNL     1      13.619  49.575 -50.333  1.00  0.00     0.077 A 
HETATM    5  C8  UNL     1      13.065  50.706 -49.776  1.00  0.00     0.066 A 
HETATM    6  N8  UNL     1      12.568  51.638 -50.609  1.00  0.00    -0.352 N 
ATOM      7  H8  UNL     1      12.153  52.485 -50.220  1.00  0.00     0.166 HD
HETATM    8  C11 UNL     1      12.605  51.477 -51.957  1.00  0.00     0.182 A 
HETATM    9  N9  UNL     1      13.153  50.360 -52.474  1.00  0.00    -0.339 N 
ATOM     10  H9  UNL     1      13.176  50.250 -53.488  1.00  0.00     0.168 HD
ENDROOT
BRANCH   5  11
HETATM   11  C9  UNL     1      12.994  50.940 -48.318  1.00  0.00     0.370 C 
BRANCH  11  12
HETATM   12  N2  UNL     1      14.166  50.317 -47.704  1.00  0.00    -0.051 N 
ATOM     13  H23 UNL     1      13.997  49.352 -47.419  1.00  0.00     0.277 HD
ATOM     14  H22 UNL     1      14.912  50.133 -48.375  1.00  0.00     0.277 HD
ATOM     15  H21 UNL     1      14.469  50.910 -46.932  1.00  0.00     0.277 HD
ENDBRANCH  11  12
BRANCH  11  16
HETATM   16  N3  UNL     1      11.762  50.487 -47.746  1.00  0.00    -0.068 N 
HETATM   17  N4  UNL     1      11.502  49.273 -47.289  1.00  0.00     0.013 NA
HETATM   18  N5  UNL     1      10.242  49.236 -46.831  1.00  0.00    -0.211 N 
HETATM   19  N6  UNL     1       9.698  50.420 -46.994  1.00  0.00    -0.118 N 
ATOM     20  H5  UNL     1       9.782  48.422 -46.423  1.00  0.00     0.206 HD
HETATM   21  C10 UNL     1      10.636  51.195 -47.558  1.00  0.00     0.709 A 
ATOM     22  H6  UNL     1       8.749  50.696 -46.741  1.00  0.00     0.207 HD
BRANCH  21  23
HETATM   23  N7  UNL     1      10.502  52.433 -47.883  1.00  0.00    -0.232 N 
ATOM     24  H72 UNL     1      10.979  52.909 -48.649  1.00  0.00     0.174 HD
ATOM     25  H71 UNL     1       9.890  53.088 -47.395  1.00  0.00     0.174 HD
ENDBRANCH  21  23
ENDBRANCH  11  16
ENDBRANCH   5  11
BRANCH   1  26
HETATM   26  C5  UNL     1      14.211  48.194 -53.631  1.00  0.00     0.102 C 
HETATM   27  C3  UNL     1      15.349  48.261 -54.280  1.00  0.00     0.029 C 
HETATM   28  C4  UNL     1      16.623  48.466 -53.544  1.00  0.00     0.056 C 
BRANCH  27  29
HETATM   29  C2  UNL     1      15.412  48.141 -55.725  1.00  0.00     0.289 C 
HETATM   30  O2  UNL     1      14.341  48.048 -56.375  1.00  0.00    -0.260 OA
BRANCH  29  31
HETATM   31  O1  UNL     1      16.603  48.124 -56.433  1.00  0.00    -0.323 OA
HETATM   32  C1  UNL     1      16.982  49.139 -57.335  1.00  0.00     0.213 C 
ENDBRANCH  29  31
ENDBRANCH  27  29
ENDBRANCH   1  26
TORSDOF 7
ENDMDL
MODEL 3
REMARK VINA RESULT: -7.078522469      4.592      6.018
REMARK  7 active torsions:
REMARK  status: ('A' for Active; 'I' for Inactive)
REMARK    1  A    between atoms: O1_2  and  C2_3 
REMARK    2  A    between atoms: C2_3  and  C3_5 
REMARK    3  A    between atoms: C5_7  and  N1_8 
REMARK    4  A    between atoms: C8_12  and  C9_13 
REMARK    5  A    between atoms: C9_13  and  N2_14 
REMARK    6  A    between atoms: C9_13  and  N3_18 
REMARK    7  A    between atoms: C10_24  and  N7_25 
ROOT
HETATM    1  N1  UNL     1      13.873  49.947 -52.939  1.00  0.00    -0.352 N 
ATOM      2  H1  UNL     1      13.402  50.735 -53.384  1.00  0.00     0.166 HD
HETATM    3  C6  UNL     1      13.876  49.808 -51.656  1.00  0.00     0.107 A 
HETATM    4  C7  UNL     1      13.235  50.728 -50.836  1.00  0.00     0.077 A 
HETATM    5  C8  UNL     1      13.225  50.597 -49.466  1.00  0.00     0.066 A 
HETATM    6  N8  UNL     1      13.861  49.540 -48.930  1.00  0.00    -0.352 N 
ATOM      7  H8  UNL     1      13.867  49.422 -47.917  1.00  0.00     0.166 HD
HETATM    8  C11 UNL     1      14.496  48.626 -49.708  1.00  0.00     0.182 A 
HETATM    9  N9  UNL     1      14.490  48.778 -51.047  1.00  0.00    -0.339 N 
ATOM     10  H9  UNL     1      14.970  48.085 -51.620  1.00  0.00     0.168 HD
ENDROOT
BRANCH   5  11
HETATM   11  C9  UNL     1      12.553  51.558 -48.565  1.00  0.00     0.370 C 
BRANCH  11  12
HETATM   12  N2  UNL     1      13.565  52.122 -47.673  1.00  0.00    -0.051 N 
ATOM     13  H23 UNL     1      13.235  52.218 -46.712  1.00  0.00     0.277 HD
ATOM     14  H22 UNL     1      14.333  51.477 -47.489  1.00  0.00     0.277 HD
ATOM     15  H21 UNL     1      13.879  53.006 -48.073  1.00  0.00     0.277 HD
ENDBRANCH  11  12
BRANCH  11  16
HETATM   16  N3  UNL     1      11.453  50.975 -47.858  1.00  0.00    -0.068 N 
HETATM   17  N4  UNL     1      11.451  49.822 -47.210  1.00  0.00     0.013 NA
HETATM   18  N5  UNL     1      10.238  49.619 -46.676  1.00  0.00    -0.211 N 
HETATM   19  N6  UNL     1       9.466  50.638 -46.980  1.00  0.00    -0.118 N 
ATOM     20  H5  UNL     1       9.960  48.808 -46.124  1.00  0.00     0.206 HD
HETATM   21  C10 UNL     1      10.215  51.477 -47.709  1.00  0.00     0.709 A 
ATOM     22  H6  UNL     1       8.490  50.765 -46.713  1.00  0.00     0.207 HD
BRANCH  21  23
HETATM   23  N7  UNL     1       9.830  52.601 -48.207  1.00  0.00    -0.232 N 
ATOM     24  H72 UNL     1      10.437  53.351 -48.537  1.00  0.00     0.174 HD
ATOM     25  H71 UNL     1       8.852  52.867 -48.324  1.00  0.00     0.174 HD
ENDBRANCH  21  23
ENDBRANCH  11  16
ENDBRANCH   5  11
BRANCH   1  26
HETATM   26  C5  UNL     1      14.554  48.961 -53.713  1.00  0.00     0.102 C 
HETATM   27  C3  UNL     1      15.539  49.315 -54.504  1.00  0.00     0.029 C 
HETATM   28  C4  UNL     1      15.952  50.739 -54.599  1.00  0.00     0.056 C 
BRANCH  27  29
HETATM   29  C2  UNL     1      16.259  48.345 -55.309  1.00  0.00     0.289 C 
HETATM   30  O2  UNL     1      15.616  47.419 -55.864  1.00  0.00    -0.260 OA
BRANCH  29  31
HETATM   31  O1  UNL     1      17.630  48.387 -55.501  1.00  0.00    -0.323 OA
HETATM   32  C1  UNL     1      18.564  48.122 -54.478  1.00  0.00     0.213 C 
ENDBRANCH  29  31
ENDBRANCH  27  29
ENDBRANCH   1  26
TORSDOF 7
ENDMDL
MODEL 4
REMARK VINA RESULT: -7.074211733      1.445      2.715
REMARK  7 active torsions:
REMARK  status: ('A' for Active; 'I' for Inactive)
REMARK    1  A    between atoms: O1_2  and  C2_3 
REMARK    2  A    between atoms: C2_3  and  C3_5 
REMARK    3  A    between atoms: C5_7  and  N1_8 
REMARK    4  A    between atoms: C8_12  and  C9_13 
REMARK    5  A    between atoms: C9_13  and  N2_14 
REMARK    6  A    between atoms: C9_13  and  N3_18 
REMARK    7  A    between atoms: C10_24  and  N7_25 
ROOT
HETATM    1  N1  UNL     1      12.417  53.281 -50.572  1.00  0.00    -0.352 N 
ATOM      2  H1  UNL     1      12.547  53.820 -49.716  1.00  0.00     0.166 HD
HETATM    3  C6  UNL     1      12.639  52.011 -50.603  1.00  0.00     0.107 A 
HETATM    4  C7  UNL     1      13.063  51.332 -49.468  1.00  0.00     0.077 A 
HETATM    5  C8  UNL     1      13.305  49.976 -49.479  1.00  0.00     0.066 A 
HETATM    6  N8  UNL     1      13.117  49.314 -50.635  1.00  0.00    -0.352 N 
ATOM      7  H8  UNL     1      13.289  48.309 -50.667  1.00  0.00     0.166 HD
HETATM    8  C11 UNL     1      12.704  49.953 -51.760  1.00  0.00     0.182 A 
HETATM    9  N9  UNL     1      12.474  51.280 -51.720  1.00  0.00    -0.339 N 
ATOM     10  H9  UNL     1      12.164  51.748 -52.571  1.00  0.00     0.168 HD
ENDROOT
BRANCH   5  11
HETATM   11  C9  UNL     1      13.757  49.224 -48.290  1.00  0.00     0.370 C 
BRANCH  11  12
HETATM   12  N2  UNL     1      13.921  47.824 -48.678  1.00  0.00    -0.051 N 
ATOM     13  H23 UNL     1      14.259  47.239 -47.913  1.00  0.00     0.277 HD
ATOM     14  H22 UNL     1      13.032  47.349 -48.830  1.00  0.00     0.277 HD
ATOM     15  H21 UNL     1      14.529  47.794 -49.496  1.00  0.00     0.277 HD
ENDBRANCH  11  12
BRANCH  11  16
HETATM   16  N3  UNL     1      12.883  49.389 -47.168  1.00  0.00    -0.068 N 
HETATM   17  N4  UNL     1      11.569  49.227 -47.157  1.00  0.00     0.013 NA
HETATM   18  N5  UNL     1      11.106  49.470 -45.922  1.00  0.00    -0.211 N 
HETATM   19  N6  UNL     1      12.117  49.786 -45.145  1.00  0.00    -0.118 N 
ATOM     20  H5  UNL     1      10.129  49.418 -45.634  1.00  0.00     0.206 HD
HETATM   21  C10 UNL     1      13.216  49.736 -45.913  1.00  0.00     0.709 A 
ATOM     22  H6  UNL     1      12.075  50.023 -44.154  1.00  0.00     0.207 HD
BRANCH  21  23
HETATM   23  N7  UNL     1      14.420  49.981 -45.530  1.00  0.00    -0.232 N 
ATOM     24  H72 UNL     1      14.729  50.799 -45.003  1.00  0.00     0.174 HD
ATOM     25  H71 UNL     1      15.214  49.368 -45.719  1.00  0.00     0.174 HD
ENDBRANCH  21  23
ENDBRANCH  11  16
ENDBRANCH   5  11
BRANCH   1  26
HETATM   26  C5  UNL     1      11.984  53.907 -51.779  1.00  0.00     0.102 C 
HETATM   27  C3  UNL     1      12.741  54.811 -52.355  1.00  0.00     0.029 C 
HETATM   28  C4  UNL     1      14.047  55.189 -51.758  1.00  0.00     0.056 C 
BRANCH  27  29
HETATM   29  C2  UNL     1      12.339  55.473 -53.583  1.00  0.00     0.289 C 
HETATM   30  O2  UNL     1      12.246  54.795 -54.636  1.00  0.00    -0.260 OA
BRANCH  29  31
HETATM   31  O1  UNL     1      12.050  56.826 -53.655  1.00  0.00    -0.323 OA
HETATM   32  C1  UNL     1      10.884  57.399 -53.108  1.00  0.00     0.213 C 
ENDBRANCH  29  31
ENDBRANCH  27  29
ENDBRANCH   1  26
TORSDOF 7
ENDMDL
MODEL 5
REMARK VINA RESULT: -7.031855013      5.113      5.953
REMARK  7 active torsions:
REMARK  status: ('A' for Active; 'I' for Inactive)
REMARK    1  A    between atoms: O1_2  and  C2_3 
REMARK    2  A    between atoms: C2_3  and  C3_5 
REMARK    3  A    between atoms: C5_7  and  N1_8 
REMARK    4  A    between atoms: C8_12  and  C9_13 
REMARK    5  A    between atoms: C9_13  and  N2_14 
REMARK    6  A    between atoms: C9_13  and  N3_18 
REMARK    7  A    between atoms: C10_24  and  N7_25 
ROOT
HETATM    1  N1  UNL     1      15.022  48.065 -53.583  1.00  0.00    -0.352 N 
ATOM      2  H1  UNL     1      15.213  47.096 -53.327  1.00  0.00     0.166 HD
HETATM    3  C6  UNL     1      14.722  48.946 -52.689  1.00  0.00     0.107 A 
HETATM    4  C7  UNL     1      14.648  48.603 -51.345  1.00  0.00     0.077 A 
HETATM    5  C8  UNL     1      14.330  49.527 -50.375  1.00  0.00     0.066 A 
HETATM    6  N8  UNL     1      14.088  50.791 -50.766  1.00  0.00    -0.352 N 
ATOM      7  H8  UNL     1      13.851  51.493 -50.066  1.00  0.00     0.166 HD
HETATM    8  C11 UNL     1      14.153  51.154 -52.074  1.00  0.00     0.182 A 
HETATM    9  N9  UNL     1      14.467  50.229 -53.002  1.00  0.00    -0.339 N 
ATOM     10  H9  UNL     1      14.513  50.513 -53.980  1.00  0.00     0.168 HD
ENDROOT
BRANCH   5  11
HETATM   11  C9  UNL     1      14.243  49.195 -48.937  1.00  0.00     0.370 C 
BRANCH  11  12
HETATM   12  N2  UNL     1      14.199  47.738 -48.814  1.00  0.00    -0.051 N 
ATOM     13  H23 UNL     1      13.520  47.421 -48.121  1.00  0.00     0.277 HD
ATOM     14  H22 UNL     1      13.786  47.285 -49.628  1.00  0.00     0.277 HD
ATOM     15  H21 UNL     1      15.145  47.411 -48.618  1.00  0.00     0.277 HD
ENDBRANCH  11  12
BRANCH  11  16
HETATM   16  N3  UNL     1      13.142  49.839 -48.288  1.00  0.00    -0.068 N 
HETATM   17  N4  UNL     1      11.993  50.193 -48.841  1.00  0.00     0.013 NA
HETATM   18  N5  UNL     1      11.216  50.769 -47.912  1.00  0.00    -0.211 N 
HETATM   19  N6  UNL     1      11.863  50.784 -46.769  1.00  0.00    -0.118 N 
ATOM     20  H5  UNL     1      10.277  51.135 -48.068  1.00  0.00     0.206 HD
HETATM   21  C10 UNL     1      13.052  50.209 -46.999  1.00  0.00     0.709 A 
ATOM     22  H6  UNL     1      11.527  51.158 -45.882  1.00  0.00     0.207 HD
BRANCH  21  23
HETATM   23  N7  UNL     1      13.988  50.029 -46.132  1.00  0.00    -0.232 N 
ATOM     24  H72 UNL     1      14.252  49.138 -45.710  1.00  0.00     0.174 HD
ATOM     25  H71 UNL     1      14.577  50.776 -45.765  1.00  0.00     0.174 HD
ENDBRANCH  21  23
ENDBRANCH  11  16
ENDBRANCH   5  11
BRANCH   1  26
HETATM   26  C5  UNL     1      15.078  48.495 -54.943  1.00  0.00     0.102 C 
HETATM   27  C3  UNL     1      16.231  48.539 -55.567  1.00  0.00     0.029 C 
HETATM   28  C4  UNL     1      17.481  48.146 -54.867  1.00  0.00     0.056 C 
BRANCH  27  29
HETATM   29  C2  UNL     1      16.334  48.969 -56.950  1.00  0.00     0.289 C 
HETATM   30  O2  UNL     1      17.322  48.598 -57.630  1.00  0.00    -0.260 OA
BRANCH  29  31
HETATM   31  O1  UNL     1      15.389  49.774 -57.565  1.00  0.00    -0.323 OA
HETATM   32  C1  UNL     1      15.722  50.856 -58.406  1.00  0.00     0.213 C 
ENDBRANCH  29  31
ENDBRANCH  27  29
ENDBRANCH   1  26
TORSDOF 7
ENDMDL
