MODEL 1
REMARK VINA RESULT: -7.823193214      0.000      0.000
REMARK  5 active torsions:
REMARK  status: ('A' for Active; 'I' for Inactive)
REMARK       I    between atoms: C2_2  and  N1_4 
REMARK    1  A    between atoms: N1_4  and  C3_6 
REMARK    2  A    between atoms: C4_7  and  C5_8 
REMARK    3  A    between atoms: N5_15  and  C6_16 
REMARK    4  A    between atoms: C7_19  and  N7_20 
REMARK    5  A    between atoms: C9_27  and  N9_28 
ROOT
HETATM    1  C3  UNL     1      15.044  49.228 -53.576  1.00  0.00     0.167 A 
HETATM    2  C4  UNL     1      13.740  48.852 -53.566  1.00  0.00     0.161 A 
HETATM    3  N3  UNL     1      13.596  48.015 -54.672  1.00  0.00    -0.278 N 
ATOM      4  H3  UNL     1      12.733  47.557 -54.965  1.00  0.00     0.189 HD
HETATM    5  N4  UNL     1      14.738  47.918 -55.259  1.00  0.00    -0.232 N 
ATOM      6  H4  UNL     1      14.896  47.357 -56.096  1.00  0.00     0.209 HD
HETATM    7  N5  UNL     1      15.668  48.612 -54.669  1.00  0.00    -0.203 N 
ENDROOT
BRANCH   7   8
HETATM    8  C6  UNL     1      17.033  48.768 -55.006  1.00  0.00     0.184 A 
HETATM    9  N6  UNL     1      18.030  48.242 -54.285  1.00  0.00    -0.172 N 
HETATM   10  C7  UNL     1      19.321  48.394 -54.617  1.00  0.00     0.680 A 
ATOM     11  H6  UNL     1      17.800  47.704 -53.449  1.00  0.00     0.186 HD
HETATM   12  N8  UNL     1      19.666  49.098 -55.713  1.00  0.00    -0.154 N 
HETATM   13  C8  UNL     1      18.712  49.654 -56.482  1.00  0.00     0.296 A 
ATOM     14  H8  UNL     1      20.650  49.210 -55.960  1.00  0.00     0.187 HD
HETATM   15  O3  UNL     1      19.030  50.321 -57.521  1.00  0.00    -0.265 OA
HETATM   16  C9  UNL     1      17.386  49.495 -56.137  1.00  0.00     0.217 A 
BRANCH  10  17
HETATM   17  N7  UNL     1      20.220  47.844 -53.853  1.00  0.00    -0.234 N 
ATOM     18  H72 UNL     1      20.004  47.027 -53.282  1.00  0.00     0.174 HD
ATOM     19  H71 UNL     1      21.153  48.253 -53.839  1.00  0.00     0.174 HD
ENDBRANCH  10  17
BRANCH  16  20
HETATM   20  N9  UNL     1      16.422  50.093 -56.979  1.00  0.00    -0.106 N 
HETATM   21  O4  UNL     1      16.095  51.267 -56.794  1.00  0.00    -0.531 OA
HETATM   22  O5  UNL     1      15.856  49.375 -57.987  1.00  0.00    -0.531 OA
ENDBRANCH  16  20
ENDBRANCH   7   8
BRANCH   1  23
HETATM   23  N1  UNL     1      15.731  50.202 -52.848  1.00  0.00    -0.310 N 
HETATM   24  C2  UNL     1      15.409  51.486 -52.449  1.00  0.00     0.219 C 
HETATM   25  C1  UNL     1      16.326  52.235 -51.475  1.00  0.00     0.117 C 
HETATM   26  O1  UNL     1      14.405  52.128 -52.814  1.00  0.00    -0.274 OA
ATOM     27  H1  UNL     1      16.661  49.905 -52.549  1.00  0.00     0.170 HD
ENDBRANCH   1  23
BRANCH   2  28
HETATM   28  C5  UNL     1      12.678  49.004 -52.600  1.00  0.00     0.286 C 
HETATM   29  N2  UNL     1      13.005  48.997 -51.196  1.00  0.00    -0.056 NA
HETATM   30  O2  UNL     1      11.493  49.141 -52.898  1.00  0.00    -0.269 OA
ENDBRANCH   2  28
TORSDOF 5
ENDMDL
MODEL 2
REMARK VINA RESULT: -7.666386597      1.257      1.257
REMARK  5 active torsions:
REMARK  status: ('A' for Active; 'I' for Inactive)
REMARK       I    between atoms: C2_2  and  N1_4 
REMARK    1  A    between atoms: N1_4  and  C3_6 
REMARK    2  A    between atoms: C4_7  and  C5_8 
REMARK    3  A    between atoms: N5_15  and  C6_16 
REMARK    4  A    between atoms: C7_19  and  N7_20 
REMARK    5  A    between atoms: C9_27  and  N9_28 
ROOT
HETATM    1  C3  UNL     1      15.360  49.054 -53.582  1.00  0.00     0.167 A 
HETATM    2  C4  UNL     1      14.046  48.749 -53.727  1.00  0.00     0.161 A 
HETATM    3  N3  UNL     1      13.964  48.068 -54.941  1.00  0.00    -0.278 N 
ATOM      4  H3  UNL     1      13.111  47.698 -55.361  1.00  0.00     0.189 HD
HETATM    5  N4  UNL     1      15.147  47.987 -55.442  1.00  0.00    -0.232 N 
ATOM      6  H4  UNL     1      15.354  47.530 -56.330  1.00  0.00     0.209 HD
HETATM    7  N5  UNL     1      16.051  48.552 -54.693  1.00  0.00    -0.203 N 
ENDROOT
BRANCH   7   8
HETATM    8  C6  UNL     1      17.445  48.677 -54.895  1.00  0.00     0.184 A 
HETATM    9  N6  UNL     1      18.354  48.047 -54.141  1.00  0.00    -0.172 N 
HETATM   10  C7  UNL     1      19.674  48.172 -54.346  1.00  0.00     0.680 A 
ATOM     11  H6  UNL     1      18.031  47.448 -53.382  1.00  0.00     0.186 HD
HETATM   12  N8  UNL     1      20.141  48.954 -55.339  1.00  0.00    -0.154 N 
HETATM   13  C8  UNL     1      19.280  49.616 -56.134  1.00  0.00     0.296 A 
ATOM     14  H8  UNL     1      21.146  49.044 -55.489  1.00  0.00     0.187 HD
HETATM   15  O3  UNL     1      19.713  50.357 -57.076  1.00  0.00    -0.265 OA
HETATM   16  C9  UNL     1      17.924  49.484 -55.920  1.00  0.00     0.217 A 
BRANCH  10  17
HETATM   17  N7  UNL     1      20.481  47.519 -53.561  1.00  0.00    -0.234 N 
ATOM     18  H72 UNL     1      20.163  46.712 -53.024  1.00  0.00     0.174 HD
ATOM     19  H71 UNL     1      21.447  47.837 -53.494  1.00  0.00     0.174 HD
ENDBRANCH  10  17
BRANCH  16  20
HETATM   20  N9  UNL     1      17.061  50.194 -56.784  1.00  0.00    -0.106 N 
HETATM   21  O4  UNL     1      16.706  51.337 -56.487  1.00  0.00    -0.531 OA
HETATM   22  O5  UNL     1      16.622  49.619 -57.936  1.00  0.00    -0.531 OA
ENDBRANCH  16  20
ENDBRANCH   7   8
BRANCH   1  23
HETATM   23  N1  UNL     1      16.022  49.890 -52.679  1.00  0.00    -0.310 N 
HETATM   24  C2  UNL     1      16.616  49.671 -51.450  1.00  0.00     0.219 C 
HETATM   25  C1  UNL     1      17.442  50.783 -50.793  1.00  0.00     0.117 C 
HETATM   26  O1  UNL     1      16.549  48.615 -50.790  1.00  0.00    -0.274 OA
ATOM     27  H1  UNL     1      16.078  50.861 -52.990  1.00  0.00     0.170 HD
ENDBRANCH   1  23
BRANCH   2  28
HETATM   28  C5  UNL     1      12.911  48.833 -52.838  1.00  0.00     0.286 C 
HETATM   29  N2  UNL     1      13.135  48.794 -51.415  1.00  0.00    -0.056 NA
HETATM   30  O2  UNL     1      11.746  48.934 -53.219  1.00  0.00    -0.269 OA
ENDBRANCH   2  28
TORSDOF 5
ENDMDL
MODEL 3
REMARK VINA RESULT: -7.312276947      5.339      7.111
REMARK  5 active torsions:
REMARK  status: ('A' for Active; 'I' for Inactive)
REMARK       I    between atoms: C2_2  and  N1_4 
REMARK    1  A    between atoms: N1_4  and  C3_6 
REMARK    2  A    between atoms: C4_7  and  C5_8 
REMARK    3  A    between atoms: N5_15  and  C6_16 
REMARK    4  A    between atoms: C7_19  and  N7_20 
REMARK    5  A    between atoms: C9_27  and  N9_28 
ROOT
HETATM    1  C3  UNL     1      11.959  51.009 -48.392  1.00  0.00     0.167 A 
HETATM    2  C4  UNL     1      10.750  51.093 -47.784  1.00  0.00     0.161 A 
HETATM    3  N3  UNL     1      10.443  52.453 -47.772  1.00  0.00    -0.278 N 
ATOM      4  H3  UNL     1       9.599  52.871 -47.380  1.00  0.00     0.189 HD
HETATM    5  N4  UNL     1      11.407  53.091 -48.339  1.00  0.00    -0.232 N 
ATOM      6  H4  UNL     1      11.420  54.104 -48.458  1.00  0.00     0.209 HD
HETATM    7  N5  UNL     1      12.362  52.304 -48.745  1.00  0.00    -0.203 N 
ENDROOT
BRANCH   7   8
HETATM    8  C6  UNL     1      13.576  52.617 -49.400  1.00  0.00     0.184 A 
HETATM    9  N6  UNL     1      14.659  53.071 -48.758  1.00  0.00    -0.172 N 
HETATM   10  C7  UNL     1      15.806  53.361 -49.392  1.00  0.00     0.680 A 
ATOM     11  H6  UNL     1      14.611  53.202 -47.748  1.00  0.00     0.186 HD
HETATM   12  N8  UNL     1      15.909  53.201 -50.726  1.00  0.00    -0.154 N 
HETATM   13  C8  UNL     1      14.856  52.749 -51.432  1.00  0.00     0.296 A 
ATOM     14  H8  UNL     1      16.784  53.423 -51.200  1.00  0.00     0.187 HD
HETATM   15  O3  UNL     1      14.946  52.595 -52.694  1.00  0.00    -0.265 OA
HETATM   16  C9  UNL     1      13.679  52.451 -50.776  1.00  0.00     0.217 A 
BRANCH  10  17
HETATM   17  N7  UNL     1      16.805  53.796 -48.681  1.00  0.00    -0.234 N 
ATOM     18  H72 UNL     1      16.694  54.033 -47.696  1.00  0.00     0.174 HD
ATOM     19  H71 UNL     1      17.712  53.895 -49.138  1.00  0.00     0.174 HD
ENDBRANCH  10  17
BRANCH  16  20
HETATM   20  N9  UNL     1      12.605  51.975 -51.560  1.00  0.00    -0.106 N 
HETATM   21  O4  UNL     1      12.502  50.767 -51.783  1.00  0.00    -0.531 OA
HETATM   22  O5  UNL     1      11.691  52.846 -52.068  1.00  0.00    -0.531 OA
ENDBRANCH  16  20
ENDBRANCH   7   8
BRANCH   1  23
HETATM   23  N1  UNL     1      12.860  49.949 -48.518  1.00  0.00    -0.310 N 
HETATM   24  C2  UNL     1      13.718  49.328 -47.629  1.00  0.00     0.219 C 
HETATM   25  C1  UNL     1      14.444  48.042 -48.042  1.00  0.00     0.117 C 
HETATM   26  O1  UNL     1      13.974  49.720 -46.474  1.00  0.00    -0.274 OA
ATOM     27  H1  UNL     1      12.892  49.552 -49.458  1.00  0.00     0.170 HD
ENDBRANCH   1  23
BRANCH   2  28
HETATM   28  C5  UNL     1       9.775  50.103 -47.389  1.00  0.00     0.286 C 
HETATM   29  N2  UNL     1      10.234  48.819 -46.923  1.00  0.00    -0.056 NA
HETATM   30  O2  UNL     1       8.559  50.284 -47.425  1.00  0.00    -0.269 OA
ENDBRANCH   2  28
TORSDOF 5
ENDMDL
MODEL 4
REMARK VINA RESULT: -7.304932911      2.111      4.904
REMARK  5 active torsions:
REMARK  status: ('A' for Active; 'I' for Inactive)
REMARK       I    between atoms: C2_2  and  N1_4 
REMARK    1  A    between atoms: N1_4  and  C3_6 
REMARK    2  A    between atoms: C4_7  and  C5_8 
REMARK    3  A    between atoms: N5_15  and  C6_16 
REMARK    4  A    between atoms: C7_19  and  N7_20 
REMARK    5  A    between atoms: C9_27  and  N9_28 
ROOT
HETATM    1  C3  UNL     1      16.322  49.819 -55.795  1.00  0.00     0.167 A 
HETATM    2  C4  UNL     1      15.761  49.767 -57.029  1.00  0.00     0.161 A 
HETATM    3  N3  UNL     1      14.886  48.682 -56.984  1.00  0.00    -0.278 N 
ATOM      4  H3  UNL     1      14.301  48.354 -57.752  1.00  0.00     0.189 HD
HETATM    5  N4  UNL     1      14.944  48.163 -55.807  1.00  0.00    -0.232 N 
ATOM      6  H4  UNL     1      14.393  47.355 -55.519  1.00  0.00     0.209 HD
HETATM    7  N5  UNL     1      15.780  48.782 -55.024  1.00  0.00    -0.203 N 
ENDROOT
BRANCH   7   8
HETATM    8  C6  UNL     1      16.124  48.519 -53.678  1.00  0.00     0.184 A 
HETATM    9  N6  UNL     1      17.318  48.039 -53.307  1.00  0.00    -0.172 N 
HETATM   10  C7  UNL     1      17.633  47.796 -52.025  1.00  0.00     0.680 A 
ATOM     11  H6  UNL     1      18.015  47.850 -54.027  1.00  0.00     0.186 HD
HETATM   12  N8  UNL     1      16.739  48.033 -51.045  1.00  0.00    -0.154 N 
HETATM   13  C8  UNL     1      15.520  48.515 -51.350  1.00  0.00     0.296 A 
ATOM     14  H8  UNL     1      16.986  47.846 -50.073  1.00  0.00     0.187 HD
HETATM   15  O3  UNL     1      14.669  48.741 -50.428  1.00  0.00    -0.265 OA
HETATM   16  C9  UNL     1      15.200  48.763 -52.668  1.00  0.00     0.217 A 
BRANCH  10  17
HETATM   17  N7  UNL     1      18.819  47.331 -51.764  1.00  0.00    -0.234 N 
ATOM     18  H72 UNL     1      19.410  46.937 -52.496  1.00  0.00     0.174 HD
ATOM     19  H71 UNL     1      19.148  47.369 -50.799  1.00  0.00     0.174 HD
ENDBRANCH  10  17
BRANCH  16  20
HETATM   20  N9  UNL     1      13.911  49.274 -52.936  1.00  0.00    -0.106 N 
HETATM   21  O4  UNL     1      13.691  50.479 -52.798  1.00  0.00    -0.531 OA
HETATM   22  O5  UNL     1      12.916  48.439 -53.342  1.00  0.00    -0.531 OA
ENDBRANCH  16  20
ENDBRANCH   7   8
BRANCH   1  23
HETATM   23  N1  UNL     1      17.402  50.554 -55.300  1.00  0.00    -0.310 N 
HETATM   24  C2  UNL     1      18.761  50.524 -55.555  1.00  0.00     0.219 C 
HETATM   25  C1  UNL     1      19.669  51.616 -54.978  1.00  0.00     0.117 C 
HETATM   26  O1  UNL     1      19.352  49.664 -56.237  1.00  0.00    -0.274 OA
ATOM     27  H1  UNL     1      17.134  51.256 -54.610  1.00  0.00     0.170 HD
ENDBRANCH   1  23
BRANCH   2  28
HETATM   28  C5  UNL     1      15.779  50.667 -58.158  1.00  0.00     0.286 C 
HETATM   29  N2  UNL     1      17.048  51.097 -58.688  1.00  0.00    -0.056 NA
HETATM   30  O2  UNL     1      14.767  51.100 -58.707  1.00  0.00    -0.269 OA
ENDBRANCH   2  28
TORSDOF 5
ENDMDL
MODEL 5
REMARK VINA RESULT: -7.200396030      2.209      5.408
REMARK  5 active torsions:
REMARK  status: ('A' for Active; 'I' for Inactive)
REMARK       I    between atoms: C2_2  and  N1_4 
REMARK    1  A    between atoms: N1_4  and  C3_6 
REMARK    2  A    between atoms: C4_7  and  C5_8 
REMARK    3  A    between atoms: N5_15  and  C6_16 
REMARK    4  A    between atoms: C7_19  and  N7_20 
REMARK    5  A    between atoms: C9_27  and  N9_28 
ROOT
HETATM    1  C3  UNL     1      15.833  49.083 -54.539  1.00  0.00     0.167 A 
HETATM    2  C4  UNL     1      15.474  48.832 -55.822  1.00  0.00     0.161 A 
HETATM    3  N3  UNL     1      14.280  48.118 -55.732  1.00  0.00    -0.278 N 
ATOM      4  H3  UNL     1      13.736  47.763 -56.519  1.00  0.00     0.189 HD
HETATM    5  N4  UNL     1      13.982  47.982 -54.487  1.00  0.00    -0.232 N 
ATOM      6  H4  UNL     1      13.148  47.496 -54.156  1.00  0.00     0.209 HD
HETATM    7  N5  UNL     1      14.858  48.531 -53.696  1.00  0.00    -0.203 N 
ENDROOT
BRANCH   7   8
HETATM    8  C6  UNL     1      14.890  48.593 -52.284  1.00  0.00     0.184 A 
HETATM    9  N6  UNL     1      15.878  48.068 -51.549  1.00  0.00    -0.172 N 
HETATM   10  C7  UNL     1      15.898  48.136 -50.209  1.00  0.00     0.680 A 
ATOM     11  H6  UNL     1      16.647  47.597 -52.027  1.00  0.00     0.186 HD
HETATM   12  N8  UNL     1      14.901  48.749 -49.542  1.00  0.00    -0.154 N 
HETATM   13  C8  UNL     1      13.876  49.297 -50.220  1.00  0.00     0.296 A 
ATOM     14  H8  UNL     1      14.923  48.796 -48.523  1.00  0.00     0.187 HD
HETATM   15  O3  UNL     1      12.929  49.879 -49.595  1.00  0.00    -0.265 OA
HETATM   16  C9  UNL     1      13.860  49.225 -51.597  1.00  0.00     0.217 A 
BRANCH  10  17
HETATM   17  N7  UNL     1      16.903  47.596 -49.583  1.00  0.00    -0.234 N 
ATOM     18  H72 UNL     1      17.563  46.985 -50.064  1.00  0.00     0.174 HD
ATOM     19  H71 UNL     1      17.016  47.801 -48.591  1.00  0.00     0.174 HD
ENDBRANCH  10  17
BRANCH  16  20
HETATM   20  N9  UNL     1      12.766  49.821 -52.263  1.00  0.00    -0.106 N 
HETATM   21  O4  UNL     1      12.739  51.043 -52.420  1.00  0.00    -0.531 OA
HETATM   22  O5  UNL     1      11.746  49.048 -52.726  1.00  0.00    -0.531 OA
ENDBRANCH  16  20
ENDBRANCH   7   8
BRANCH   1  23
HETATM   23  N1  UNL     1      17.017  49.580 -53.989  1.00  0.00    -0.310 N 
HETATM   24  C2  UNL     1      18.335  49.164 -54.051  1.00  0.00     0.219 C 
HETATM   25  C1  UNL     1      19.444  50.059 -53.485  1.00  0.00     0.117 C 
HETATM   26  O1  UNL     1      18.734  48.090 -54.543  1.00  0.00    -0.274 OA
ATOM     27  H1  UNL     1      16.883  50.421 -53.427  1.00  0.00     0.170 HD
ENDBRANCH   1  23
BRANCH   2  28
HETATM   28  C5  UNL     1      15.968  49.307 -57.094  1.00  0.00     0.286 C 
HETATM   29  N2  UNL     1      17.233  48.817 -57.578  1.00  0.00    -0.056 NA
HETATM   30  O2  UNL     1      15.372  50.116 -57.803  1.00  0.00    -0.269 OA
ENDBRANCH   2  28
TORSDOF 5
ENDMDL
