MODEL 1
REMARK VINA RESULT: -6.732228644      0.000      0.000
REMARK  6 active torsions:
REMARK  status: ('A' for Active; 'I' for Inactive)
REMARK    1  A    between atoms: C3_3  and  C4_4 
REMARK    2  A    between atoms: N1_7  and  C7_8 
REMARK    3  A    between atoms: C7_8  and  C8_9 
REMARK    4  A    between atoms: C8_9  and  C9_10 
REMARK    5  A    between atoms: C9_10  and  N3_14 
REMARK    6  A    between atoms: N3_14  and  N4_16 
ROOT
HETATM    1  C1  UNL     1       5.027  -3.069  30.635  1.00  0.00     0.012 C 
HETATM    2  C2  UNL     1       3.864  -2.844  30.900  1.00  0.00    -0.113 C 
HETATM    3  C3  UNL     1       2.453  -2.581  31.206  1.00  0.00     0.131 C 
ENDROOT
BRANCH   3   4
HETATM    4  C4  UNL     1       1.880  -1.623  30.225  1.00  0.00    -0.044 A 
HETATM    5  C5  UNL     1       2.655  -0.928  29.318  1.00  0.00     0.025 A 
HETATM    6  C6  UNL     1       2.105  -0.045  28.416  1.00  0.00     0.091 A 
HETATM    7  N1  UNL     1       0.771   0.144  28.422  1.00  0.00    -0.366 N 
HETATM    8  C10 UNL     1      -0.033  -0.514  29.289  1.00  0.00     0.091 A 
HETATM    9  C11 UNL     1       0.522  -1.398  30.192  1.00  0.00     0.025 A 
BRANCH   7  10
HETATM   10  C7  UNL     1       0.168   1.055  27.496  1.00  0.00     0.135 C 
BRANCH  10  11
HETATM   11  C8  UNL     1      -0.563   0.298  26.409  1.00  0.00     0.097 C 
BRANCH  11  12
HETATM   12  C9  UNL     1       0.029   0.499  25.083  1.00  0.00     0.090 C 
HETATM   13  N2  UNL     1       1.247   0.145  24.861  1.00  0.00    -0.388 N 
ATOM     14  H22 UNL     1       1.746  -0.269  25.648  1.00  0.00     0.157 HD
ATOM     15  H21 UNL     1       1.659   0.285  23.939  1.00  0.00     0.157 HD
BRANCH  12  16
HETATM   16  N3  UNL     1      -0.668   1.076  23.985  1.00  0.00    -0.296 N 
ATOM     17  H3  UNL     1      -0.724   0.536  23.122  1.00  0.00     0.187 HD
BRANCH  16  18
HETATM   18  N4  UNL     1      -1.276   2.323  24.007  1.00  0.00    -0.344 N 
ATOM     19  H42 UNL     1      -1.628   2.645  24.909  1.00  0.00     0.176 HD
ATOM     20  H41 UNL     1      -1.391   2.926  23.192  1.00  0.00     0.176 HD
ENDBRANCH  16  18
ENDBRANCH  12  16
ENDBRANCH  11  12
ENDBRANCH  10  11
ENDBRANCH   7  10
ENDBRANCH   3   4
TORSDOF 6
ENDMDL
MODEL 2
REMARK VINA RESULT: -6.667199580      0.246      1.239
REMARK  6 active torsions:
REMARK  status: ('A' for Active; 'I' for Inactive)
REMARK    1  A    between atoms: C3_3  and  C4_4 
REMARK    2  A    between atoms: N1_7  and  C7_8 
REMARK    3  A    between atoms: C7_8  and  C8_9 
REMARK    4  A    between atoms: C8_9  and  C9_10 
REMARK    5  A    between atoms: C9_10  and  N3_14 
REMARK    6  A    between atoms: N3_14  and  N4_16 
ROOT
HETATM    1  C1  UNL     1       4.985  -3.241  30.910  1.00  0.00     0.012 C 
HETATM    2  C2  UNL     1       3.804  -3.044  31.111  1.00  0.00    -0.113 C 
HETATM    3  C3  UNL     1       2.372  -2.815  31.338  1.00  0.00     0.131 C 
ENDROOT
BRANCH   3   4
HETATM    4  C4  UNL     1       1.845  -1.823  30.363  1.00  0.00    -0.044 A 
HETATM    5  C5  UNL     1       0.501  -1.534  30.245  1.00  0.00     0.025 A 
HETATM    6  C6  UNL     1       0.031  -0.612  29.336  1.00  0.00     0.091 A 
HETATM    7  N1  UNL     1       0.914   0.025  28.541  1.00  0.00    -0.366 N 
HETATM    8  C10 UNL     1       2.242  -0.222  28.618  1.00  0.00     0.091 A 
HETATM    9  C11 UNL     1       2.708  -1.147  29.530  1.00  0.00     0.025 A 
BRANCH   7  10
HETATM   10  C7  UNL     1       0.458   0.989  27.586  1.00  0.00     0.135 C 
BRANCH  10  11
HETATM   11  C8  UNL     1      -0.387   0.323  26.523  1.00  0.00     0.097 C 
BRANCH  11  12
HETATM   12  C9  UNL     1       0.182   0.459  25.180  1.00  0.00     0.090 C 
HETATM   13  N2  UNL     1       1.416   0.158  24.969  1.00  0.00    -0.388 N 
ATOM     14  H22 UNL     1       1.944  -0.170  25.778  1.00  0.00     0.157 HD
ATOM     15  H21 UNL     1       1.813   0.253  24.034  1.00  0.00     0.157 HD
BRANCH  12  16
HETATM   16  N3  UNL     1      -0.554   0.916  24.051  1.00  0.00    -0.296 N 
ATOM     17  H3  UNL     1      -0.581   0.315  23.227  1.00  0.00     0.187 HD
BRANCH  16  18
HETATM   18  N4  UNL     1      -1.237   2.123  23.993  1.00  0.00    -0.344 N 
ATOM     19  H42 UNL     1      -1.547   2.516  24.882  1.00  0.00     0.176 HD
ATOM     20  H41 UNL     1      -1.445   2.630  23.133  1.00  0.00     0.176 HD
ENDBRANCH  16  18
ENDBRANCH  12  16
ENDBRANCH  11  12
ENDBRANCH  10  11
ENDBRANCH   7  10
ENDBRANCH   3   4
TORSDOF 6
ENDMDL
MODEL 3
REMARK VINA RESULT: -6.657366535      1.438      2.644
REMARK  6 active torsions:
REMARK  status: ('A' for Active; 'I' for Inactive)
REMARK    1  A    between atoms: C3_3  and  C4_4 
REMARK    2  A    between atoms: N1_7  and  C7_8 
REMARK    3  A    between atoms: C7_8  and  C8_9 
REMARK    4  A    between atoms: C8_9  and  C9_10 
REMARK    5  A    between atoms: C9_10  and  N3_14 
REMARK    6  A    between atoms: N3_14  and  N4_16 
ROOT
HETATM    1  C1  UNL     1       2.139  -2.885  31.011  1.00  0.00     0.012 C 
HETATM    2  C2  UNL     1       2.587  -1.894  30.473  1.00  0.00    -0.113 C 
HETATM    3  C3  UNL     1       3.113  -0.686  29.826  1.00  0.00     0.131 C 
ENDROOT
BRANCH   3   4
HETATM    4  C4  UNL     1       2.386  -0.419  28.557  1.00  0.00    -0.044 A 
HETATM    5  C5  UNL     1       1.041  -0.116  28.517  1.00  0.00     0.025 A 
HETATM    6  C6  UNL     1       0.384   0.130  27.331  1.00  0.00     0.091 A 
HETATM    7  N1  UNL     1       1.080   0.070  26.178  1.00  0.00    -0.366 N 
HETATM    8  C10 UNL     1       2.401  -0.223  26.164  1.00  0.00     0.091 A 
HETATM    9  C11 UNL     1       3.055  -0.467  27.354  1.00  0.00     0.025 A 
BRANCH   7  10
HETATM   10  C7  UNL     1       0.427   0.320  24.929  1.00  0.00     0.135 C 
BRANCH  10  11
HETATM   11  C8  UNL     1      -1.073   0.377  25.118  1.00  0.00     0.097 C 
BRANCH  11  12
HETATM   12  C9  UNL     1      -1.698   1.463  24.358  1.00  0.00     0.090 C 
HETATM   13  N2  UNL     1      -2.895   1.326  23.904  1.00  0.00    -0.388 N 
ATOM     14  H22 UNL     1      -3.355   0.439  24.108  1.00  0.00     0.157 HD
ATOM     15  H21 UNL     1      -3.330   2.082  23.375  1.00  0.00     0.157 HD
BRANCH  12  16
HETATM   16  N3  UNL     1      -1.056   2.700  24.073  1.00  0.00    -0.296 N 
ATOM     17  H3  UNL     1      -0.622   2.810  23.157  1.00  0.00     0.187 HD
BRANCH  16  18
HETATM   18  N4  UNL     1      -0.980   3.769  24.955  1.00  0.00    -0.344 N 
ATOM     19  H42 UNL     1      -0.723   4.673  24.558  1.00  0.00     0.176 HD
ATOM     20  H41 UNL     1      -1.161   3.707  25.957  1.00  0.00     0.176 HD
ENDBRANCH  16  18
ENDBRANCH  12  16
ENDBRANCH  11  12
ENDBRANCH  10  11
ENDBRANCH   7  10
ENDBRANCH   3   4
TORSDOF 6
ENDMDL
MODEL 4
REMARK VINA RESULT: -6.643888842      1.336      2.156
REMARK  6 active torsions:
REMARK  status: ('A' for Active; 'I' for Inactive)
REMARK    1  A    between atoms: C3_3  and  C4_4 
REMARK    2  A    between atoms: N1_7  and  C7_8 
REMARK    3  A    between atoms: C7_8  and  C8_9 
REMARK    4  A    between atoms: C8_9  and  C9_10 
REMARK    5  A    between atoms: C9_10  and  N3_14 
REMARK    6  A    between atoms: N3_14  and  N4_16 
ROOT
HETATM    1  C1  UNL     1       1.629  -3.400  31.826  1.00  0.00     0.012 C 
HETATM    2  C2  UNL     1       2.539  -2.839  31.251  1.00  0.00    -0.113 C 
HETATM    3  C3  UNL     1       3.633  -2.144  30.562  1.00  0.00     0.131 C 
ENDROOT
BRANCH   3   4
HETATM    4  C4  UNL     1       3.103  -1.325  29.441  1.00  0.00    -0.044 A 
HETATM    5  C5  UNL     1       1.848  -0.752  29.463  1.00  0.00     0.025 A 
HETATM    6  C6  UNL     1       1.373   0.004  28.414  1.00  0.00     0.091 A 
HETATM    7  N1  UNL     1       2.161   0.187  27.336  1.00  0.00    -0.366 N 
HETATM    8  C10 UNL     1       3.400  -0.353  27.266  1.00  0.00     0.091 A 
HETATM    9  C11 UNL     1       3.871  -1.110  28.319  1.00  0.00     0.025 A 
BRANCH   7  10
HETATM   10  C7  UNL     1       1.698   0.968  26.229  1.00  0.00     0.135 C 
BRANCH  10  11
HETATM   11  C8  UNL     1       1.053   0.080  25.188  1.00  0.00     0.097 C 
BRANCH  11  12
HETATM   12  C9  UNL     1      -0.354   0.414  24.951  1.00  0.00     0.090 C 
HETATM   13  N2  UNL     1      -1.257   0.020  25.779  1.00  0.00    -0.388 N 
ATOM     14  H22 UNL     1      -0.930  -0.520  26.580  1.00  0.00     0.157 HD
ATOM     15  H21 UNL     1      -2.237   0.253  25.615  1.00  0.00     0.157 HD
BRANCH  12  16
HETATM   16  N3  UNL     1      -0.811   1.168  23.834  1.00  0.00    -0.296 N 
ATOM     17  H3  UNL     1      -0.703   0.755  22.907  1.00  0.00     0.187 HD
BRANCH  16  18
HETATM   18  N4  UNL     1      -1.393   2.424  23.917  1.00  0.00    -0.344 N 
ATOM     19  H42 UNL     1      -2.142   2.537  24.601  1.00  0.00     0.176 HD
ATOM     20  H41 UNL     1      -1.123   3.227  23.348  1.00  0.00     0.176 HD
ENDBRANCH  16  18
ENDBRANCH  12  16
ENDBRANCH  11  12
ENDBRANCH  10  11
ENDBRANCH   7  10
ENDBRANCH   3   4
TORSDOF 6
ENDMDL
MODEL 5
REMARK VINA RESULT: -6.627670912      0.860      1.965
REMARK  6 active torsions:
REMARK  status: ('A' for Active; 'I' for Inactive)
REMARK    1  A    between atoms: C3_3  and  C4_4 
REMARK    2  A    between atoms: N1_7  and  C7_8 
REMARK    3  A    between atoms: C7_8  and  C8_9 
REMARK    4  A    between atoms: C8_9  and  C9_10 
REMARK    5  A    between atoms: C9_10  and  N3_14 
REMARK    6  A    between atoms: N3_14  and  N4_16 
ROOT
HETATM    1  C1  UNL     1       5.008  -3.362  31.140  1.00  0.00     0.012 C 
HETATM    2  C2  UNL     1       3.817  -3.187  31.298  1.00  0.00    -0.113 C 
HETATM    3  C3  UNL     1       2.375  -2.983  31.473  1.00  0.00     0.131 C 
ENDROOT
BRANCH   3   4
HETATM    4  C4  UNL     1       1.877  -1.958  30.518  1.00  0.00    -0.044 A 
HETATM    5  C5  UNL     1       0.538  -1.653  30.381  1.00  0.00     0.025 A 
HETATM    6  C6  UNL     1       0.095  -0.699  29.491  1.00  0.00     0.091 A 
HETATM    7  N1  UNL     1       0.999  -0.047  28.735  1.00  0.00    -0.366 N 
HETATM    8  C10 UNL     1       2.324  -0.308  28.832  1.00  0.00     0.091 A 
HETATM    9  C11 UNL     1       2.763  -1.264  29.725  1.00  0.00     0.025 A 
BRANCH   7  10
HETATM   10  C7  UNL     1       0.572   0.950  27.801  1.00  0.00     0.135 C 
BRANCH  10  11
HETATM   11  C8  UNL     1      -0.128   0.308  26.623  1.00  0.00     0.097 C 
BRANCH  11  12
HETATM   12  C9  UNL     1       0.654   0.390  25.387  1.00  0.00     0.090 C 
HETATM   13  N2  UNL     1       0.063   0.326  24.245  1.00  0.00    -0.388 N 
ATOM     14  H22 UNL     1      -0.952   0.219  24.268  1.00  0.00     0.157 HD
ATOM     15  H21 UNL     1       0.607   0.383  23.384  1.00  0.00     0.157 HD
BRANCH  12  16
HETATM   16  N3  UNL     1       2.068   0.538  25.354  1.00  0.00    -0.296 N 
ATOM     17  H3  UNL     1       2.532   0.859  26.205  1.00  0.00     0.187 HD
BRANCH  16  18
HETATM   18  N4  UNL     1       2.862   0.278  24.246  1.00  0.00    -0.344 N 
ATOM     19  H42 UNL     1       3.162   1.085  23.698  1.00  0.00     0.176 HD
ATOM     20  H41 UNL     1       3.158  -0.653  23.951  1.00  0.00     0.176 HD
ENDBRANCH  16  18
ENDBRANCH  12  16
ENDBRANCH  11  12
ENDBRANCH  10  11
ENDBRANCH   7  10
ENDBRANCH   3   4
TORSDOF 6
ENDMDL
