MODEL 1
REMARK VINA RESULT: -5.004692949      0.000      0.000
REMARK  7 active torsions:
REMARK  status: ('A' for Active; 'I' for Inactive)
REMARK    1  A    between atoms: C2_2  and  C3_3 
REMARK    2  A    between atoms: C3_3  and  N1_4 
REMARK    3  A    between atoms: N1_4  and  C4_6 
REMARK    4  A    between atoms: C4_6  and  C5_7 
REMARK    5  A    between atoms: C5_7  and  C7_9 
REMARK    6  A    between atoms: C7_9  and  N2_10 
REMARK    7  A    between atoms: N2_10  and  C8_12 
ROOT
HETATM    1  C5  UNL     1      63.796  13.240  27.196  1.00  0.00     0.037 C 
HETATM    2  C6  UNL     1      63.645  14.422  28.111  1.00  0.00     0.017 C 
ENDROOT
BRANCH   1   3
HETATM    3  C4  UNL     1      62.452  13.115  26.439  1.00  0.00     0.128 C 
BRANCH   3   4
HETATM    4  N1  UNL     1      62.662  13.336  25.081  1.00  0.00    -0.402 N 
ATOM      5  H1  UNL     1      62.820  14.291  24.761  1.00  0.00     0.158 HD
BRANCH   4   6
HETATM    6  C3  UNL     1      62.666  12.307  24.139  1.00  0.00     0.055 C 
BRANCH   6   7
HETATM    7  C2  UNL     1      63.775  11.311  24.171  1.00  0.00     0.039 C 
HETATM    8  C1  UNL     1      63.450   9.955  24.684  1.00  0.00     0.010 C 
ENDBRANCH   6   7
ENDBRANCH   4   6
ENDBRANCH   3   4
ENDBRANCH   1   3
BRANCH   1   9
HETATM    9  C7  UNL     1      63.966  11.960  27.921  1.00  0.00     0.061 C 
BRANCH   9  10
HETATM   10  N2  UNL     1      65.078  11.155  27.750  1.00  0.00    -0.397 N 
ATOM     11  H2  UNL     1      65.043  10.197  28.098  1.00  0.00     0.159 HD
BRANCH  10  12
HETATM   12  C8  UNL     1      66.245  11.592  27.123  1.00  0.00     0.080 C 
HETATM   13  C9  UNL     1      67.552  11.682  27.803  1.00  0.00     0.025 C 
HETATM   14  C10 UNL     1      67.875  10.259  27.294  1.00  0.00     0.004 C 
HETATM   15  C11 UNL     1      66.819  10.457  26.250  1.00  0.00     0.025 C 
ENDBRANCH  10  12
ENDBRANCH   9  10
ENDBRANCH   1   9
TORSDOF 7
ENDMDL
MODEL 2
REMARK VINA RESULT: -4.900647922      1.170      1.634
REMARK  7 active torsions:
REMARK  status: ('A' for Active; 'I' for Inactive)
REMARK    1  A    between atoms: C2_2  and  C3_3 
REMARK    2  A    between atoms: C3_3  and  N1_4 
REMARK    3  A    between atoms: N1_4  and  C4_6 
REMARK    4  A    between atoms: C4_6  and  C5_7 
REMARK    5  A    between atoms: C5_7  and  C7_9 
REMARK    6  A    between atoms: C7_9  and  N2_10 
REMARK    7  A    between atoms: N2_10  and  C8_12 
ROOT
HETATM    1  C5  UNL     1      63.785  13.281  27.143  1.00  0.00     0.037 C 
HETATM    2  C6  UNL     1      63.551  14.505  27.983  1.00  0.00     0.017 C 
ENDROOT
BRANCH   1   3
HETATM    3  C4  UNL     1      62.453  13.014  26.401  1.00  0.00     0.128 C 
BRANCH   3   4
HETATM    4  N1  UNL     1      62.622  13.256  25.042  1.00  0.00    -0.402 N 
ATOM      5  H1  UNL     1      62.279  14.136  24.656  1.00  0.00     0.158 HD
BRANCH   4   6
HETATM    6  C3  UNL     1      63.241  12.348  24.182  1.00  0.00     0.055 C 
BRANCH   6   7
HETATM    7  C2  UNL     1      62.393  11.368  23.445  1.00  0.00     0.039 C 
HETATM    8  C1  UNL     1      61.215  11.907  22.718  1.00  0.00     0.010 C 
ENDBRANCH   6   7
ENDBRANCH   4   6
ENDBRANCH   3   4
ENDBRANCH   1   3
BRANCH   1   9
HETATM    9  C7  UNL     1      64.046  12.064  27.945  1.00  0.00     0.061 C 
BRANCH   9  10
HETATM   10  N2  UNL     1      65.254  11.394  27.902  1.00  0.00    -0.397 N 
ATOM     11  H2  UNL     1      65.833  11.379  28.742  1.00  0.00     0.159 HD
BRANCH  10  12
HETATM   12  C8  UNL     1      65.721  10.737  26.763  1.00  0.00     0.080 C 
HETATM   13  C9  UNL     1      66.798   9.728  26.785  1.00  0.00     0.025 C 
HETATM   14  C10 UNL     1      65.719   8.630  26.912  1.00  0.00     0.004 C 
HETATM   15  C11 UNL     1      64.732   9.619  26.371  1.00  0.00     0.025 C 
ENDBRANCH  10  12
ENDBRANCH   9  10
ENDBRANCH   1   9
TORSDOF 7
ENDMDL
MODEL 3
REMARK VINA RESULT: -4.859401410      2.770      4.980
REMARK  7 active torsions:
REMARK  status: ('A' for Active; 'I' for Inactive)
REMARK    1  A    between atoms: C2_2  and  C3_3 
REMARK    2  A    between atoms: C3_3  and  N1_4 
REMARK    3  A    between atoms: N1_4  and  C4_6 
REMARK    4  A    between atoms: C4_6  and  C5_7 
REMARK    5  A    between atoms: C5_7  and  C7_9 
REMARK    6  A    between atoms: C7_9  and  N2_10 
REMARK    7  A    between atoms: N2_10  and  C8_12 
ROOT
HETATM    1  C5  UNL     1      62.422  11.488  23.543  1.00  0.00     0.037 C 
HETATM    2  C6  UNL     1      62.995  10.107  23.684  1.00  0.00     0.017 C 
ENDROOT
BRANCH   1   3
HETATM    3  C4  UNL     1      62.698  11.916  22.081  1.00  0.00     0.128 C 
BRANCH   3   4
HETATM    4  N1  UNL     1      61.510  12.329  21.486  1.00  0.00    -0.402 N 
ATOM      5  H1  UNL     1      61.559  12.891  20.636  1.00  0.00     0.158 HD
BRANCH   4   6
HETATM    6  C3  UNL     1      60.254  12.010  22.003  1.00  0.00     0.055 C 
BRANCH   6   7
HETATM    7  C2  UNL     1      59.235  13.090  22.127  1.00  0.00     0.039 C 
HETATM    8  C1  UNL     1      57.870  12.794  21.622  1.00  0.00     0.010 C 
ENDBRANCH   6   7
ENDBRANCH   4   6
ENDBRANCH   3   4
ENDBRANCH   1   3
BRANCH   1   9
HETATM    9  C7  UNL     1      63.107  12.493  24.388  1.00  0.00     0.061 C 
BRANCH   9  10
HETATM   10  N2  UNL     1      62.414  13.375  25.197  1.00  0.00    -0.397 N 
ATOM     11  H2  UNL     1      61.589  13.838  24.817  1.00  0.00     0.159 HD
BRANCH  10  12
HETATM   12  C8  UNL     1      62.793  13.662  26.509  1.00  0.00     0.080 C 
HETATM   13  C9  UNL     1      61.832  13.851  27.614  1.00  0.00     0.025 C 
HETATM   14  C10 UNL     1      61.983  12.351  27.953  1.00  0.00     0.004 C 
HETATM   15  C11 UNL     1      63.278  12.372  27.200  1.00  0.00     0.025 C 
ENDBRANCH  10  12
ENDBRANCH   9  10
ENDBRANCH   1   9
TORSDOF 7
ENDMDL
MODEL 4
REMARK VINA RESULT: -4.831653918      1.490      4.224
REMARK  7 active torsions:
REMARK  status: ('A' for Active; 'I' for Inactive)
REMARK    1  A    between atoms: C2_2  and  C3_3 
REMARK    2  A    between atoms: C3_3  and  N1_4 
REMARK    3  A    between atoms: N1_4  and  C4_6 
REMARK    4  A    between atoms: C4_6  and  C5_7 
REMARK    5  A    between atoms: C5_7  and  C7_9 
REMARK    6  A    between atoms: C7_9  and  N2_10 
REMARK    7  A    between atoms: N2_10  and  C8_12 
ROOT
HETATM    1  C5  UNL     1      63.758  11.905  24.214  1.00  0.00     0.037 C 
HETATM    2  C6  UNL     1      64.200  12.314  22.837  1.00  0.00     0.017 C 
ENDROOT
BRANCH   1   3
HETATM    3  C4  UNL     1      63.313  10.427  24.096  1.00  0.00     0.128 C 
BRANCH   3   4
HETATM    4  N1  UNL     1      63.104   9.902  25.367  1.00  0.00    -0.402 N 
ATOM      5  H1  UNL     1      62.254  10.161  25.868  1.00  0.00     0.158 HD
BRANCH   4   6
HETATM    6  C3  UNL     1      64.007   9.038  25.987  1.00  0.00     0.055 C 
BRANCH   6   7
HETATM    7  C2  UNL     1      65.013   9.608  26.927  1.00  0.00     0.039 C 
HETATM    8  C1  UNL     1      66.283  10.105  26.337  1.00  0.00     0.010 C 
ENDBRANCH   6   7
ENDBRANCH   4   6
ENDBRANCH   3   4
ENDBRANCH   1   3
BRANCH   1   9
HETATM    9  C7  UNL     1      62.565  12.643  24.687  1.00  0.00     0.061 C 
BRANCH   9  10
HETATM   10  N2  UNL     1      62.658  13.752  25.508  1.00  0.00    -0.397 N 
ATOM     11  H2  UNL     1      62.895  14.650  25.087  1.00  0.00     0.159 HD
BRANCH  10  12
HETATM   12  C8  UNL     1      62.442  13.700  26.886  1.00  0.00     0.080 C 
HETATM   13  C9  UNL     1      62.752  12.520  27.717  1.00  0.00     0.025 C 
HETATM   14  C10 UNL     1      64.138  13.136  28.011  1.00  0.00     0.004 C 
HETATM   15  C11 UNL     1      63.567  14.463  27.614  1.00  0.00     0.025 C 
ENDBRANCH  10  12
ENDBRANCH   9  10
ENDBRANCH   1   9
TORSDOF 7
ENDMDL
MODEL 5
REMARK VINA RESULT: -4.774420104      1.462      4.362
REMARK  7 active torsions:
REMARK  status: ('A' for Active; 'I' for Inactive)
REMARK    1  A    between atoms: C2_2  and  C3_3 
REMARK    2  A    between atoms: C3_3  and  N1_4 
REMARK    3  A    between atoms: N1_4  and  C4_6 
REMARK    4  A    between atoms: C4_6  and  C5_7 
REMARK    5  A    between atoms: C5_7  and  C7_9 
REMARK    6  A    between atoms: C7_9  and  N2_10 
REMARK    7  A    between atoms: N2_10  and  C8_12 
ROOT
HETATM    1  C5  UNL     1      63.462  12.212  23.957  1.00  0.00     0.037 C 
HETATM    2  C6  UNL     1      62.917  11.166  23.027  1.00  0.00     0.017 C 
ENDROOT
BRANCH   1   3
HETATM    3  C4  UNL     1      64.608  11.527  24.742  1.00  0.00     0.128 C 
BRANCH   3   4
HETATM    4  N1  UNL     1      65.772  12.278  24.612  1.00  0.00    -0.402 N 
ATOM      5  H1  UNL     1      65.726  13.168  24.116  1.00  0.00     0.158 HD
BRANCH   4   6
HETATM    6  C3  UNL     1      67.000  11.867  25.131  1.00  0.00     0.055 C 
BRANCH   6   7
HETATM    7  C2  UNL     1      67.016  10.797  26.169  1.00  0.00     0.039 C 
HETATM    8  C1  UNL     1      68.345  10.371  26.680  1.00  0.00     0.010 C 
ENDBRANCH   6   7
ENDBRANCH   4   6
ENDBRANCH   3   4
ENDBRANCH   1   3
BRANCH   1   9
HETATM    9  C7  UNL     1      62.485  12.650  24.981  1.00  0.00     0.061 C 
BRANCH   9  10
HETATM   10  N2  UNL     1      62.696  13.760  25.778  1.00  0.00    -0.397 N 
ATOM     11  H2  UNL     1      62.910  14.649  25.327  1.00  0.00     0.159 HD
BRANCH  10  12
HETATM   12  C8  UNL     1      62.630  13.720  27.171  1.00  0.00     0.080 C 
HETATM   13  C9  UNL     1      63.019  12.544  27.974  1.00  0.00     0.025 C 
HETATM   14  C10 UNL     1      64.434  13.150  28.111  1.00  0.00     0.004 C 
HETATM   15  C11 UNL     1      63.834  14.479  27.767  1.00  0.00     0.025 C 
ENDBRANCH  10  12
ENDBRANCH   9  10
ENDBRANCH   1   9
TORSDOF 7
ENDMDL
