MODEL 1
REMARK VINA RESULT: -6.289661888      0.000      0.000
REMARK  9 active torsions:
REMARK  status: ('A' for Active; 'I' for Inactive)
REMARK    1  A    between atoms: N1_1  and  C1_4 
REMARK    2  A    between atoms: C2_5  and  C3_6 
REMARK    3  A    between atoms: C3_6  and  O1_7 
REMARK    4  A    between atoms: C3_6  and  N2_9 
REMARK    5  A    between atoms: N2_9  and  C4_11 
REMARK    6  A    between atoms: C4_11  and  C5_12 
REMARK    7  A    between atoms: C5_12  and  C6_13 
REMARK    8  A    between atoms: C6_13  and  N3_14 
REMARK    9  A    between atoms: N6_22  and  N7_23 
ROOT
HETATM    1  C1  UNL     1       5.037   7.015  -1.134  1.00  0.00     0.172 A 
HETATM    2  C2  UNL     1       5.985   6.120  -1.511  1.00  0.00     0.147 A 
HETATM    3  N4  UNL     1       7.057   6.334  -0.682  1.00  0.00    -0.277 N 
ATOM      4  H4  UNL     1       7.934   5.815  -0.713  1.00  0.00     0.189 HD
HETATM    5  N5  UNL     1       6.787   7.291   0.143  1.00  0.00    -0.219 N 
ATOM      6  H5  UNL     1       7.416   7.646   0.864  1.00  0.00     0.210 HD
HETATM    7  N6  UNL     1       5.579   7.732  -0.091  1.00  0.00    -0.170 N 
ENDROOT
BRANCH   2   8
HETATM    8  C3  UNL     1       5.924   5.129  -2.559  1.00  0.00     0.168 C 
BRANCH   8   9
HETATM    9  O1  UNL     1       4.741   4.876  -3.045  1.00  0.00    -0.344 OA
ATOM     10  H1  UNL     1       4.039   4.783  -2.412  1.00  0.00     0.219 HD
ENDBRANCH   8   9
BRANCH   8  11
HETATM   11  N2  UNL     1       6.956   4.394  -3.133  1.00  0.00    -0.369 N 
ATOM     12  H2  UNL     1       7.709   4.871  -3.631  1.00  0.00     0.161 HD
BRANCH  11  13
HETATM   13  C4  UNL     1       6.959   2.929  -3.020  1.00  0.00     0.123 C 
BRANCH  13  14
HETATM   14  C5  UNL     1       7.090   2.507  -1.584  1.00  0.00     0.047 C 
BRANCH  14  15
HETATM   15  C6  UNL     1       8.448   2.809  -1.024  1.00  0.00     0.231 C 
BRANCH  15  16
HETATM   16  N3  UNL     1       9.416   2.013  -1.784  1.00  0.00    -0.079 N 
ATOM     17  H33 UNL     1       9.607   1.106  -1.360  1.00  0.00     0.274 HD
ATOM     18  H32 UNL     1       9.043   1.668  -2.668  1.00  0.00     0.274 HD
ATOM     19  H31 UNL     1      10.253   2.586  -1.898  1.00  0.00     0.274 HD
ENDBRANCH  15  16
ENDBRANCH  14  15
ENDBRANCH  13  14
ENDBRANCH  11  13
ENDBRANCH   8  11
ENDBRANCH   2   8
BRANCH   1  20
HETATM   20  N1  UNL     1       3.867   7.258  -1.550  1.00  0.00    -0.381 N 
ATOM     21  H12 UNL     1       3.710   7.610  -2.494  1.00  0.00     0.157 HD
ATOM     22  H11 UNL     1       2.946   7.178  -1.119  1.00  0.00     0.157 HD
ENDBRANCH   1  20
BRANCH   7  23
HETATM   23  N7  UNL     1       4.913   8.750   0.573  1.00  0.00    -0.321 N 
ATOM     24  H72 UNL     1       3.995   8.702   1.017  1.00  0.00     0.179 HD
ATOM     25  H71 UNL     1       5.288   9.691   0.691  1.00  0.00     0.179 HD
ENDBRANCH   7  23
TORSDOF 9
ENDMDL
MODEL 2
REMARK VINA RESULT: -6.282036900      1.319      1.489
REMARK  9 active torsions:
REMARK  status: ('A' for Active; 'I' for Inactive)
REMARK    1  A    between atoms: N1_1  and  C1_4 
REMARK    2  A    between atoms: C2_5  and  C3_6 
REMARK    3  A    between atoms: C3_6  and  O1_7 
REMARK    4  A    between atoms: C3_6  and  N2_9 
REMARK    5  A    between atoms: N2_9  and  C4_11 
REMARK    6  A    between atoms: C4_11  and  C5_12 
REMARK    7  A    between atoms: C5_12  and  C6_13 
REMARK    8  A    between atoms: C6_13  and  N3_14 
REMARK    9  A    between atoms: N6_22  and  N7_23 
ROOT
HETATM    1  C1  UNL     1       4.977   7.060  -1.128  1.00  0.00     0.172 A 
HETATM    2  C2  UNL     1       5.917   6.174  -1.543  1.00  0.00     0.147 A 
HETATM    3  N4  UNL     1       6.993   6.347  -0.709  1.00  0.00    -0.277 N 
ATOM      4  H4  UNL     1       7.866   5.824  -0.763  1.00  0.00     0.189 HD
HETATM    5  N5  UNL     1       6.731   7.272   0.155  1.00  0.00    -0.219 N 
ATOM      6  H5  UNL     1       7.364   7.593   0.887  1.00  0.00     0.210 HD
HETATM    7  N6  UNL     1       5.526   7.730  -0.059  1.00  0.00    -0.170 N 
ENDROOT
BRANCH   2   8
HETATM    8  C3  UNL     1       5.848   5.226  -2.630  1.00  0.00     0.168 C 
BRANCH   8   9
HETATM    9  O1  UNL     1       4.652   4.896  -3.031  1.00  0.00    -0.344 OA
ATOM     10  H1  UNL     1       3.974   4.886  -2.365  1.00  0.00     0.219 HD
ENDBRANCH   8   9
BRANCH   8  11
HETATM   11  N2  UNL     1       6.883   4.605  -3.321  1.00  0.00    -0.369 N 
ATOM     12  H2  UNL     1       7.805   5.041  -3.364  1.00  0.00     0.161 HD
BRANCH  11  13
HETATM   13  C4  UNL     1       6.645   3.317  -3.988  1.00  0.00     0.123 C 
BRANCH  13  14
HETATM   14  C5  UNL     1       7.278   2.194  -3.217  1.00  0.00     0.047 C 
BRANCH  14  15
HETATM   15  C6  UNL     1       6.388   1.682  -2.124  1.00  0.00     0.231 C 
BRANCH  15  16
HETATM   16  N3  UNL     1       5.010   1.753  -2.620  1.00  0.00    -0.079 N 
ATOM     17  H33 UNL     1       4.739   0.935  -3.166  1.00  0.00     0.274 HD
ATOM     18  H32 UNL     1       4.314   1.653  -1.881  1.00  0.00     0.274 HD
ATOM     19  H31 UNL     1       4.922   2.627  -3.137  1.00  0.00     0.274 HD
ENDBRANCH  15  16
ENDBRANCH  14  15
ENDBRANCH  13  14
ENDBRANCH  11  13
ENDBRANCH   8  11
ENDBRANCH   2   8
BRANCH   1  20
HETATM   20  N1  UNL     1       3.808   7.327  -1.531  1.00  0.00    -0.381 N 
ATOM     21  H12 UNL     1       3.109   7.710  -0.894  1.00  0.00     0.157 HD
ATOM     22  H11 UNL     1       3.350   7.242  -2.439  1.00  0.00     0.157 HD
ENDBRANCH   1  20
BRANCH   7  23
HETATM   23  N7  UNL     1       4.868   8.725   0.647  1.00  0.00    -0.321 N 
ATOM     24  H72 UNL     1       4.072   8.614   1.276  1.00  0.00     0.179 HD
ATOM     25  H71 UNL     1       5.124   9.712   0.609  1.00  0.00     0.179 HD
ENDBRANCH   7  23
TORSDOF 9
ENDMDL
MODEL 3
REMARK VINA RESULT: -6.261294055      0.993      1.793
REMARK  9 active torsions:
REMARK  status: ('A' for Active; 'I' for Inactive)
REMARK    1  A    between atoms: N1_1  and  C1_4 
REMARK    2  A    between atoms: C2_5  and  C3_6 
REMARK    3  A    between atoms: C3_6  and  O1_7 
REMARK    4  A    between atoms: C3_6  and  N2_9 
REMARK    5  A    between atoms: N2_9  and  C4_11 
REMARK    6  A    between atoms: C4_11  and  C5_12 
REMARK    7  A    between atoms: C5_12  and  C6_13 
REMARK    8  A    between atoms: C6_13  and  N3_14 
REMARK    9  A    between atoms: N6_22  and  N7_23 
ROOT
HETATM    1  C1  UNL     1       6.025   6.504  -0.873  1.00  0.00     0.172 A 
HETATM    2  C2  UNL     1       5.333   5.681  -1.700  1.00  0.00     0.147 A 
HETATM    3  N4  UNL     1       4.149   6.321  -1.966  1.00  0.00    -0.277 N 
ATOM      4  H4  UNL     1       3.406   5.957  -2.563  1.00  0.00     0.189 HD
HETATM    5  N5  UNL     1       4.116   7.454  -1.344  1.00  0.00    -0.219 N 
ATOM      6  H5  UNL     1       3.346   8.122  -1.373  1.00  0.00     0.210 HD
HETATM    7  N6  UNL     1       5.227   7.607  -0.672  1.00  0.00    -0.170 N 
ENDROOT
BRANCH   2   8
HETATM    8  C3  UNL     1       5.720   4.392  -2.223  1.00  0.00     0.168 C 
BRANCH   8   9
HETATM    9  O1  UNL     1       4.810   3.459  -2.187  1.00  0.00    -0.344 OA
ATOM     10  H1  UNL     1       3.928   3.723  -2.422  1.00  0.00     0.219 HD
ENDBRANCH   8   9
BRANCH   8  11
HETATM   11  N2  UNL     1       6.937   3.993  -2.764  1.00  0.00    -0.369 N 
ATOM     12  H2  UNL     1       7.741   4.622  -2.736  1.00  0.00     0.161 HD
BRANCH  11  13
HETATM   13  C4  UNL     1       7.063   2.663  -3.377  1.00  0.00     0.123 C 
BRANCH  13  14
HETATM   14  C5  UNL     1       7.852   1.742  -2.491  1.00  0.00     0.047 C 
BRANCH  14  15
HETATM   15  C6  UNL     1       8.913   2.467  -1.718  1.00  0.00     0.231 C 
BRANCH  15  16
HETATM   16  N3  UNL     1       8.750   2.098  -0.309  1.00  0.00    -0.079 N 
ATOM     17  H33 UNL     1       9.082   1.157  -0.101  1.00  0.00     0.274 HD
ATOM     18  H32 UNL     1       9.385   2.600   0.312  1.00  0.00     0.274 HD
ATOM     19  H31 UNL     1       7.767   2.237  -0.074  1.00  0.00     0.274 HD
ENDBRANCH  15  16
ENDBRANCH  14  15
ENDBRANCH  13  14
ENDBRANCH  11  13
ENDBRANCH   8  11
ENDBRANCH   2   8
BRANCH   1  20
HETATM   20  N1  UNL     1       7.161   6.416  -0.323  1.00  0.00    -0.381 N 
ATOM     21  H12 UNL     1       7.510   5.520   0.018  1.00  0.00     0.157 HD
ATOM     22  H11 UNL     1       7.888   7.102  -0.117  1.00  0.00     0.157 HD
ENDBRANCH   1  20
BRANCH   7  23
HETATM   23  N7  UNL     1       5.586   8.684   0.123  1.00  0.00    -0.321 N 
ATOM     24  H72 UNL     1       5.045   9.533   0.296  1.00  0.00     0.179 HD
ATOM     25  H71 UNL     1       6.464   8.741   0.638  1.00  0.00     0.179 HD
ENDBRANCH   7  23
TORSDOF 9
ENDMDL
MODEL 4
REMARK VINA RESULT: -6.226819992      1.326      2.034
REMARK  9 active torsions:
REMARK  status: ('A' for Active; 'I' for Inactive)
REMARK    1  A    between atoms: N1_1  and  C1_4 
REMARK    2  A    between atoms: C2_5  and  C3_6 
REMARK    3  A    between atoms: C3_6  and  O1_7 
REMARK    4  A    between atoms: C3_6  and  N2_9 
REMARK    5  A    between atoms: N2_9  and  C4_11 
REMARK    6  A    between atoms: C4_11  and  C5_12 
REMARK    7  A    between atoms: C5_12  and  C6_13 
REMARK    8  A    between atoms: C6_13  and  N3_14 
REMARK    9  A    between atoms: N6_22  and  N7_23 
ROOT
HETATM    1  C1  UNL     1       6.043   6.552  -1.151  1.00  0.00     0.172 A 
HETATM    2  C2  UNL     1       5.333   5.791  -2.023  1.00  0.00     0.147 A 
HETATM    3  N4  UNL     1       4.091   6.367  -2.102  1.00  0.00    -0.277 N 
ATOM      4  H4  UNL     1       3.323   6.027  -2.680  1.00  0.00     0.189 HD
HETATM    5  N5  UNL     1       4.042   7.406  -1.335  1.00  0.00    -0.219 N 
ATOM      6  H5  UNL     1       3.230   8.012  -1.211  1.00  0.00     0.210 HD
HETATM    7  N6  UNL     1       5.197   7.557  -0.741  1.00  0.00    -0.170 N 
ENDROOT
BRANCH   2   8
HETATM    8  C3  UNL     1       5.754   4.612  -2.742  1.00  0.00     0.168 C 
BRANCH   8   9
HETATM    9  O1  UNL     1       6.816   4.740  -3.488  1.00  0.00    -0.344 OA
ATOM     10  H1  UNL     1       6.871   5.534  -4.006  1.00  0.00     0.219 HD
ENDBRANCH   8   9
BRANCH   8  11
HETATM   11  N2  UNL     1       5.184   3.343  -2.758  1.00  0.00    -0.369 N 
ATOM     12  H2  UNL     1       4.706   3.007  -3.595  1.00  0.00     0.161 HD
BRANCH  11  13
HETATM   13  C4  UNL     1       5.273   2.488  -1.566  1.00  0.00     0.123 C 
BRANCH  13  14
HETATM   14  C5  UNL     1       6.696   2.077  -1.313  1.00  0.00     0.047 C 
BRANCH  14  15
HETATM   15  C6  UNL     1       7.206   2.575   0.007  1.00  0.00     0.231 C 
BRANCH  15  16
HETATM   16  N3  UNL     1       8.634   2.252   0.069  1.00  0.00    -0.079 N 
ATOM     17  H33 UNL     1       8.883   1.697   0.887  1.00  0.00     0.274 HD
ATOM     18  H32 UNL     1       8.923   1.578  -0.640  1.00  0.00     0.274 HD
ATOM     19  H31 UNL     1       9.144   3.134   0.014  1.00  0.00     0.274 HD
ENDBRANCH  15  16
ENDBRANCH  14  15
ENDBRANCH  13  14
ENDBRANCH  11  13
ENDBRANCH   8  11
ENDBRANCH   2   8
BRANCH   1  20
HETATM   20  N1  UNL     1       7.227   6.481  -0.713  1.00  0.00    -0.381 N 
ATOM     21  H12 UNL     1       7.912   5.864  -1.150  1.00  0.00     0.157 HD
ATOM     22  H11 UNL     1       7.712   6.944   0.057  1.00  0.00     0.157 HD
ENDBRANCH   1  20
BRANCH   7  23
HETATM   23  N7  UNL     1       5.556   8.548   0.158  1.00  0.00    -0.321 N 
ATOM     24  H72 UNL     1       6.304   9.235   0.056  1.00  0.00     0.179 HD
ATOM     25  H71 UNL     1       5.089   8.698   1.053  1.00  0.00     0.179 HD
ENDBRANCH   7  23
TORSDOF 9
ENDMDL
MODEL 5
REMARK VINA RESULT: -6.139250485      1.016      1.028
REMARK  9 active torsions:
REMARK  status: ('A' for Active; 'I' for Inactive)
REMARK    1  A    between atoms: N1_1  and  C1_4 
REMARK    2  A    between atoms: C2_5  and  C3_6 
REMARK    3  A    between atoms: C3_6  and  O1_7 
REMARK    4  A    between atoms: C3_6  and  N2_9 
REMARK    5  A    between atoms: N2_9  and  C4_11 
REMARK    6  A    between atoms: C4_11  and  C5_12 
REMARK    7  A    between atoms: C5_12  and  C6_13 
REMARK    8  A    between atoms: C6_13  and  N3_14 
REMARK    9  A    between atoms: N6_22  and  N7_23 
ROOT
HETATM    1  C1  UNL     1       5.116   6.934  -1.114  1.00  0.00     0.172 A 
HETATM    2  C2  UNL     1       6.124   6.073  -1.404  1.00  0.00     0.147 A 
HETATM    3  N4  UNL     1       7.120   6.340  -0.499  1.00  0.00    -0.277 N 
ATOM      4  H4  UNL     1       8.017   5.857  -0.454  1.00  0.00     0.189 HD
HETATM    5  N5  UNL     1       6.750   7.296   0.288  1.00  0.00    -0.219 N 
ATOM      6  H5  UNL     1       7.308   7.685   1.049  1.00  0.00     0.210 HD
HETATM    7  N6  UNL     1       5.547   7.685  -0.044  1.00  0.00    -0.170 N 
ENDROOT
BRANCH   2   8
HETATM    8  C3  UNL     1       6.183   5.068  -2.438  1.00  0.00     0.168 C 
BRANCH   8   9
HETATM    9  O1  UNL     1       7.003   5.303  -3.425  1.00  0.00    -0.344 OA
ATOM     10  H1  UNL     1       6.648   5.197  -4.300  1.00  0.00     0.219 HD
ENDBRANCH   8   9
BRANCH   8  11
HETATM   11  N2  UNL     1       5.485   3.869  -2.539  1.00  0.00    -0.369 N 
ATOM     12  H2  UNL     1       4.543   3.792  -2.153  1.00  0.00     0.161 HD
BRANCH  11  13
HETATM   13  C4  UNL     1       6.107   2.715  -3.203  1.00  0.00     0.123 C 
BRANCH  13  14
HETATM   14  C5  UNL     1       6.971   1.951  -2.241  1.00  0.00     0.047 C 
BRANCH  14  15
HETATM   15  C6  UNL     1       8.307   1.604  -2.827  1.00  0.00     0.231 C 
BRANCH  15  16
HETATM   16  N3  UNL     1       9.321   1.936  -1.822  1.00  0.00    -0.079 N 
ATOM     17  H33 UNL     1       9.097   1.576  -0.895  1.00  0.00     0.274 HD
ATOM     18  H32 UNL     1      10.195   1.428  -1.952  1.00  0.00     0.274 HD
ATOM     19  H31 UNL     1       9.440   2.949  -1.839  1.00  0.00     0.274 HD
ENDBRANCH  15  16
ENDBRANCH  14  15
ENDBRANCH  13  14
ENDBRANCH  11  13
ENDBRANCH   8  11
ENDBRANCH   2   8
BRANCH   1  20
HETATM   20  N1  UNL     1       3.973   7.125  -1.622  1.00  0.00    -0.381 N 
ATOM     21  H12 UNL     1       3.561   6.440  -2.257  1.00  0.00     0.157 HD
ATOM     22  H11 UNL     1       3.294   7.882  -1.540  1.00  0.00     0.157 HD
ENDBRANCH   1  20
BRANCH   7  23
HETATM   23  N7  UNL     1       4.793   8.684   0.551  1.00  0.00    -0.321 N 
ATOM     24  H72 UNL     1       4.805   8.967   1.531  1.00  0.00     0.179 HD
ATOM     25  H71 UNL     1       4.120   9.262   0.047  1.00  0.00     0.179 HD
ENDBRANCH   7  23
TORSDOF 9
ENDMDL
