MODEL 1
REMARK VINA RESULT: -5.697790327      0.000      0.000
REMARK  1 active torsions:
REMARK  status: ('A' for Active; 'I' for Inactive)
REMARK    1  A    between atoms: C2_2  and  C3_3 
ROOT
HETATM    1  C3  UNL     1       7.037  29.644  20.275  1.00  0.00     0.151 C 
HETATM    2  N1  UNL     1       8.104  29.795  21.233  1.00  0.00    -0.372 N 
ATOM      3  H1  UNL     1       9.062  29.493  21.054  1.00  0.00     0.161 HD
HETATM    4  C4  UNL     1       7.698  30.401  22.449  1.00  0.00     0.178 C 
HETATM    5  N2  UNL     1       7.049  31.683  22.301  1.00  0.00    -0.334 N 
ATOM      6  H2  UNL     1       6.690  32.142  23.138  1.00  0.00     0.168 HD
HETATM    7  C5  UNL     1       6.885  32.333  21.060  1.00  0.00     0.140 C 
HETATM    8  N3  UNL     1       6.872  33.591  20.959  1.00  0.00    -0.380 N 
ATOM      9  H31 UNL     1       6.754  34.061  20.061  1.00  0.00     0.158 HD
ATOM     10  H32 UNL     1       6.983  34.180  21.784  1.00  0.00     0.158 HD
HETATM   11  S1  UNL     1       6.693  31.307  19.627  1.00  0.00    -0.069 SA
ENDROOT
BRANCH   1  12
HETATM   12  C2  UNL     1       7.375  28.707  19.160  1.00  0.00     0.032 C 
HETATM   13  C1  UNL     1       7.251  29.381  17.813  1.00  0.00     0.008 C 
ENDBRANCH   1  12
TORSDOF 1
ENDMDL
MODEL 2
REMARK VINA RESULT: -5.351094797      2.121      3.989
REMARK  1 active torsions:
REMARK  status: ('A' for Active; 'I' for Inactive)
REMARK    1  A    between atoms: C2_2  and  C3_3 
ROOT
HETATM    1  C3  UNL     1       6.228  31.455  19.403  1.00  0.00     0.151 C 
HETATM    2  N1  UNL     1       7.188  31.166  18.367  1.00  0.00    -0.372 N 
ATOM      3  H1  UNL     1       7.836  31.862  17.997  1.00  0.00     0.161 HD
HETATM    4  C4  UNL     1       7.149  29.824  17.910  1.00  0.00     0.178 C 
HETATM    5  N2  UNL     1       7.297  28.827  18.944  1.00  0.00    -0.334 N 
ATOM      6  H2  UNL     1       7.227  27.844  18.681  1.00  0.00     0.168 HD
HETATM    7  C5  UNL     1       7.535  29.139  20.298  1.00  0.00     0.140 C 
HETATM    8  N3  UNL     1       8.205  28.382  21.054  1.00  0.00    -0.380 N 
ATOM      9  H31 UNL     1       8.377  28.608  22.034  1.00  0.00     0.158 HD
ATOM     10  H32 UNL     1       8.599  27.510  20.699  1.00  0.00     0.158 HD
HETATM   11  S1  UNL     1       6.849  30.654  20.914  1.00  0.00    -0.069 SA
ENDROOT
BRANCH   1  12
HETATM   12  C2  UNL     1       6.030  32.919  19.632  1.00  0.00     0.032 C 
HETATM   13  C1  UNL     1       6.977  33.450  20.682  1.00  0.00     0.008 C 
ENDBRANCH   1  12
TORSDOF 1
ENDMDL
MODEL 3
REMARK VINA RESULT: -5.024312256      1.462      2.364
REMARK  1 active torsions:
REMARK  status: ('A' for Active; 'I' for Inactive)
REMARK    1  A    between atoms: C2_2  and  C3_3 
ROOT
HETATM    1  C3  UNL     1       6.945  30.878  19.162  1.00  0.00     0.151 C 
HETATM    2  N1  UNL     1       5.852  31.805  19.321  1.00  0.00    -0.372 N 
ATOM      3  H1  UNL     1       4.899  31.602  19.019  1.00  0.00     0.161 HD
HETATM    4  C4  UNL     1       6.225  33.027  19.937  1.00  0.00     0.178 C 
HETATM    5  N2  UNL     1       6.879  32.888  21.216  1.00  0.00    -0.334 N 
ATOM      6  H2  UNL     1       7.215  33.731  21.682  1.00  0.00     0.168 HD
HETATM    7  C5  UNL     1       7.078  31.647  21.857  1.00  0.00     0.140 C 
HETATM    8  N3  UNL     1       7.095  31.537  23.114  1.00  0.00    -0.380 N 
ATOM      9  H31 UNL     1       7.239  30.640  23.578  1.00  0.00     0.158 HD
ATOM     10  H32 UNL     1       6.963  32.355  23.710  1.00  0.00     0.158 HD
HETATM   11  S1  UNL     1       7.309  30.227  20.821  1.00  0.00    -0.069 SA
ENDROOT
BRANCH   1  12
HETATM   12  C2  UNL     1       6.637  29.760  18.218  1.00  0.00     0.032 C 
HETATM   13  C1  UNL     1       7.534  28.569  18.458  1.00  0.00     0.008 C 
ENDBRANCH   1  12
TORSDOF 1
ENDMDL
MODEL 4
REMARK VINA RESULT: -4.816592161      2.022      3.977
REMARK  1 active torsions:
REMARK  status: ('A' for Active; 'I' for Inactive)
REMARK    1  A    between atoms: C2_2  and  C3_3 
ROOT
HETATM    1  C3  UNL     1       6.831  31.198  21.314  1.00  0.00     0.151 C 
HETATM    2  N1  UNL     1       7.417  32.063  20.319  1.00  0.00    -0.372 N 
ATOM      3  H1  UNL     1       8.219  32.664  20.506  1.00  0.00     0.161 HD
HETATM    4  C4  UNL     1       6.773  32.001  19.057  1.00  0.00     0.178 C 
HETATM    5  N2  UNL     1       6.674  30.676  18.491  1.00  0.00    -0.334 N 
ATOM      6  H2  UNL     1       6.176  30.564  17.608  1.00  0.00     0.168 HD
HETATM    7  C5  UNL     1       7.231  29.529  19.094  1.00  0.00     0.140 C 
HETATM    8  N3  UNL     1       7.655  28.554  18.414  1.00  0.00    -0.380 N 
ATOM      9  H31 UNL     1       8.058  27.724  18.850  1.00  0.00     0.158 HD
ATOM     10  H32 UNL     1       7.606  28.569  17.395  1.00  0.00     0.158 HD
HETATM   11  S1  UNL     1       7.314  29.503  20.865  1.00  0.00    -0.069 SA
ENDROOT
BRANCH   1  12
HETATM   12  C2  UNL     1       7.273  31.516  22.706  1.00  0.00     0.032 C 
HETATM   13  C1  UNL     1       8.090  30.392  23.299  1.00  0.00     0.008 C 
ENDBRANCH   1  12
TORSDOF 1
ENDMDL
MODEL 5
REMARK VINA RESULT: -4.761649876      1.539      3.486
REMARK  1 active torsions:
REMARK  status: ('A' for Active; 'I' for Inactive)
REMARK    1  A    between atoms: C2_2  and  C3_3 
ROOT
HETATM    1  C3  UNL     1       7.345  31.494  20.754  1.00  0.00     0.151 C 
HETATM    2  N1  UNL     1       6.900  30.538  21.737  1.00  0.00    -0.372 N 
ATOM      3  H1  UNL     1       6.046  30.656  22.283  1.00  0.00     0.161 HD
HETATM    4  C4  UNL     1       7.758  29.417  21.873  1.00  0.00     0.178 C 
HETATM    5  N2  UNL     1       8.024  28.703  20.647  1.00  0.00    -0.334 N 
ATOM      6  H2  UNL     1       8.676  27.919  20.676  1.00  0.00     0.168 HD
HETATM    7  C5  UNL     1       7.431  29.033  19.411  1.00  0.00     0.140 C 
HETATM    8  N3  UNL     1       7.186  28.161  18.532  1.00  0.00    -0.380 N 
ATOM      9  H31 UNL     1       6.756  28.399  17.637  1.00  0.00     0.158 HD
ATOM     10  H32 UNL     1       7.412  27.180  18.694  1.00  0.00     0.158 HD
HETATM   11  S1  UNL     1       7.039  30.739  19.128  1.00  0.00    -0.069 SA
ENDROOT
BRANCH   1  12
HETATM   12  C2  UNL     1       6.649  32.813  20.857  1.00  0.00     0.032 C 
HETATM   13  C1  UNL     1       5.904  33.148  19.586  1.00  0.00     0.008 C 
ENDBRANCH   1  12
TORSDOF 1
ENDMDL
