MODEL 1
REMARK VINA RESULT: -8.570386598      0.000      0.000
REMARK  12 active torsions:
REMARK  status: ('A' for Active; 'I' for Inactive)
REMARK    1  A    between atoms: C2_2  and  O1_3 
REMARK    2  A    between atoms: O1_3  and  C3_4 
REMARK    3  A    between atoms: C3_4  and  C4_6 
REMARK    4  A    between atoms: C4_6  and  N1_7 
REMARK    5  A    between atoms: C5_8  and  S1_9 
REMARK    6  A    between atoms: S1_9  and  C6_10 
REMARK    7  A    between atoms: C6_10  and  C7_11 
REMARK       I    between atoms: C7_11  and  N2_13 
REMARK    8  A    between atoms: N2_13  and  N3_15 
REMARK    9  A    between atoms: N3_15  and  C8_17 
REMARK   10  A    between atoms: C8_17  and  N4_19 
REMARK   11  A    between atoms: N5_21  and  N6_23 
REMARK       I    between atoms: N6_23  and  C9_25 
REMARK       I    between atoms: C9_25  and  N7_27 
REMARK   12  A    between atoms: C11_32  and  N9_33 
ROOT
HETATM    1  N1  UNL     1      59.207  -1.501  70.994  1.00  0.00    -0.303 N 
HETATM    2  C5  UNL     1      58.912  -1.709  72.288  1.00  0.00     0.150 A 
HETATM    3  N8  UNL     1      57.802  -2.325  72.690  1.00  0.00    -0.322 N 
ATOM      4  H8  UNL     1      57.641  -2.447  73.689  1.00  0.00     0.169 HD
HETATM    5  C11 UNL     1      56.856  -2.806  71.798  1.00  0.00     0.118 A 
HETATM    6  C12 UNL     1      57.161  -2.593  70.452  1.00  0.00     0.094 A 
HETATM    7  C13 UNL     1      56.301  -3.038  69.472  1.00  0.00     0.149 A 
HETATM    8  N10 UNL     1      55.089  -3.714  69.726  1.00  0.00    -0.081 NA
HETATM    9  N11 UNL     1      56.671  -2.802  68.180  1.00  0.00    -0.178 N 
ATOM     10  H11 UNL     1      56.053  -3.121  67.434  1.00  0.00     0.185 HD
HETATM   11  C14 UNL     1      57.804  -2.173  67.841  1.00  0.00     0.678 A 
HETATM   12  N12 UNL     1      58.123  -1.969  66.596  1.00  0.00    -0.234 N 
ATOM     13 1H12 UNL     1      58.986  -1.490  66.338  1.00  0.00     0.174 HD
ATOM     14 2H12 UNL     1      57.484  -2.299  65.872  1.00  0.00     0.174 HD
HETATM   15  N13 UNL     1      58.645  -1.739  68.794  1.00  0.00    -0.176 N 
ATOM     16  H13 UNL     1      59.510  -1.259  68.545  1.00  0.00     0.186 HD
HETATM   17  C15 UNL     1      58.320  -1.951  70.087  1.00  0.00     0.143 A 
ENDROOT
BRANCH   2  18
HETATM   18  S1  UNL     1      60.163  -1.159  73.482  1.00  0.00    -0.084 SA
BRANCH  18  19
HETATM   19  C6  UNL     1      61.163  -2.658  73.808  1.00  0.00     0.186 C 
BRANCH  19  20
HETATM   20  C7  UNL     1      62.459  -2.648  73.117  1.00  0.00     0.245 C 
HETATM   21  O3  UNL     1      63.393  -1.956  73.569  1.00  0.00    -0.271 OA
HETATM   22  N2  UNL     1      62.647  -3.412  71.954  1.00  0.00    -0.267 N 
ATOM     23  H2  UNL     1      61.878  -3.979  71.598  1.00  0.00     0.190 HD
BRANCH  22  24
HETATM   24  N3  UNL     1      63.869  -3.410  71.272  1.00  0.00    -0.272 N 
ATOM     25  H3  UNL     1      64.047  -2.668  70.596  1.00  0.00     0.189 HD
BRANCH  24  26
HETATM   26  C8  UNL     1      64.867  -4.386  71.476  1.00  0.00     0.206 C 
HETATM   27  S2  UNL     1      64.559  -5.669  72.499  1.00  0.00    -0.038 SA
BRANCH  26  28
HETATM   28  N4  UNL     1      66.096  -4.309  70.827  1.00  0.00    -0.260 N 
HETATM   29  N5  UNL     1      66.341  -4.480  69.658  1.00  0.00    -0.237 N 
ATOM     30  H5  UNL     1      67.332  -4.359  69.447  1.00  0.00     0.208 HD
ATOM     31  H4  UNL     1      66.895  -4.078  71.417  1.00  0.00     0.191 HD
BRANCH  29  32
HETATM   32  N6  UNL     1      65.619  -4.791  68.565  1.00  0.00    -0.237 N 
HETATM   33  C9  UNL     1      64.843  -3.788  67.887  1.00  0.00     0.335 C 
HETATM   34  O4  UNL     1      64.854  -2.631  68.332  1.00  0.00    -0.246 OA
HETATM   35  N7  UNL     1      64.092  -4.131  66.740  1.00  0.00    -0.346 N 
HETATM   36  C10 UNL     1      63.291  -3.189  65.994  1.00  0.00     0.151 C 
ATOM     37  H7  UNL     1      64.117  -5.099  66.420  1.00  0.00     0.163 HD
ATOM     38  H6  UNL     1      65.623  -5.748  68.214  1.00  0.00     0.193 HD
ENDBRANCH  29  32
ENDBRANCH  26  28
ENDBRANCH  24  26
ENDBRANCH  22  24
ENDBRANCH  19  20
ENDBRANCH  18  19
ENDBRANCH   2  18
BRANCH   1  39
HETATM   39  C4  UNL     1      60.401  -0.803  70.608  1.00  0.00     0.243 C 
BRANCH  39  40
HETATM   40  C3  UNL     1      60.058   0.622  70.378  1.00  0.00     0.277 C 
HETATM   41  O2  UNL     1      60.306   1.469  71.262  1.00  0.00    -0.263 OA
BRANCH  40  42
HETATM   42  O1  UNL     1      59.470   1.034  69.205  1.00  0.00    -0.321 OA
BRANCH  42  43
HETATM   43  C2  UNL     1      60.101   1.313  68.003  1.00  0.00     0.174 C 
HETATM   44  C1  UNL     1      59.109   1.613  66.905  1.00  0.00     0.034 C 
ENDBRANCH  42  43
ENDBRANCH  40  42
ENDBRANCH  39  40
ENDBRANCH   1  39
BRANCH   5  45
HETATM   45  N9  UNL     1      55.839  -3.369  72.236  1.00  0.00    -0.385 N 
ATOM     46  H92 UNL     1      54.911  -3.347  71.813  1.00  0.00     0.157 HD
ATOM     47  H91 UNL     1      55.902  -3.909  73.100  1.00  0.00     0.157 HD
ENDBRANCH   5  45
TORSDOF 12
ENDMDL
MODEL 2
REMARK VINA RESULT: -8.521590168      2.314      3.639
REMARK  12 active torsions:
REMARK  status: ('A' for Active; 'I' for Inactive)
REMARK    1  A    between atoms: C2_2  and  O1_3 
REMARK    2  A    between atoms: O1_3  and  C3_4 
REMARK    3  A    between atoms: C3_4  and  C4_6 
REMARK    4  A    between atoms: C4_6  and  N1_7 
REMARK    5  A    between atoms: C5_8  and  S1_9 
REMARK    6  A    between atoms: S1_9  and  C6_10 
REMARK    7  A    between atoms: C6_10  and  C7_11 
REMARK       I    between atoms: C7_11  and  N2_13 
REMARK    8  A    between atoms: N2_13  and  N3_15 
REMARK    9  A    between atoms: N3_15  and  C8_17 
REMARK   10  A    between atoms: C8_17  and  N4_19 
REMARK   11  A    between atoms: N5_21  and  N6_23 
REMARK       I    between atoms: N6_23  and  C9_25 
REMARK       I    between atoms: C9_25  and  N7_27 
REMARK   12  A    between atoms: C11_32  and  N9_33 
ROOT
HETATM    1  N1  UNL     1      58.988  -1.721  69.824  1.00  0.00    -0.303 N 
HETATM    2  C5  UNL     1      59.864  -1.049  70.590  1.00  0.00     0.150 A 
HETATM    3  N8  UNL     1      59.701  -0.879  71.901  1.00  0.00    -0.322 N 
ATOM      4  H8  UNL     1      60.406  -0.356  72.420  1.00  0.00     0.169 HD
HETATM    5  C11 UNL     1      58.608  -1.387  72.584  1.00  0.00     0.118 A 
HETATM    6  C12 UNL     1      57.697  -2.088  71.792  1.00  0.00     0.094 A 
HETATM    7  C13 UNL     1      56.576  -2.649  72.362  1.00  0.00     0.149 A 
HETATM    8  N10 UNL     1      56.258  -2.568  73.735  1.00  0.00    -0.081 NA
HETATM    9  N11 UNL     1      55.737  -3.326  71.527  1.00  0.00    -0.178 N 
ATOM     10  H11 UNL     1      54.899  -3.752  71.923  1.00  0.00     0.185 HD
HETATM   11  C14 UNL     1      55.958  -3.460  70.212  1.00  0.00     0.678 A 
HETATM   12  N12 UNL     1      55.133  -4.117  69.448  1.00  0.00    -0.234 N 
ATOM     13 1H12 UNL     1      55.301  -4.219  68.446  1.00  0.00     0.174 HD
ATOM     14 2H12 UNL     1      54.304  -4.530  69.873  1.00  0.00     0.174 HD
HETATM   15  N13 UNL     1      57.049  -2.915  69.652  1.00  0.00    -0.176 N 
ATOM     16  H13 UNL     1      57.226  -3.012  68.653  1.00  0.00     0.186 HD
HETATM   17  C15 UNL     1      57.909  -2.236  70.442  1.00  0.00     0.143 A 
ENDROOT
BRANCH   2  18
HETATM   18  S1  UNL     1      61.345  -0.434  69.742  1.00  0.00    -0.084 SA
BRANCH  18  19
HETATM   19  C6  UNL     1      62.701  -1.483  70.387  1.00  0.00     0.186 C 
BRANCH  19  20
HETATM   20  C7  UNL     1      63.839  -1.586  69.465  1.00  0.00     0.245 C 
HETATM   21  O3  UNL     1      64.818  -0.827  69.606  1.00  0.00    -0.271 OA
HETATM   22  N2  UNL     1      63.826  -2.534  68.427  1.00  0.00    -0.267 N 
ATOM     23  H2  UNL     1      63.022  -3.154  68.327  1.00  0.00     0.190 HD
BRANCH  22  24
HETATM   24  N3  UNL     1      64.893  -2.644  67.530  1.00  0.00    -0.272 N 
ATOM     25  H3  UNL     1      65.539  -1.859  67.445  1.00  0.00     0.189 HD
BRANCH  24  26
HETATM   26  C8  UNL     1      65.119  -3.788  66.737  1.00  0.00     0.206 C 
HETATM   27  S2  UNL     1      64.107  -4.102  65.447  1.00  0.00    -0.038 SA
BRANCH  26  28
HETATM   28  N4  UNL     1      66.181  -4.650  66.998  1.00  0.00    -0.260 N 
HETATM   29  N5  UNL     1      66.336  -5.390  67.939  1.00  0.00    -0.237 N 
ATOM     30  H5  UNL     1      67.208  -5.915  67.880  1.00  0.00     0.208 HD
ATOM     31  H4  UNL     1      66.927  -4.657  66.303  1.00  0.00     0.191 HD
BRANCH  29  32
HETATM   32  N6  UNL     1      65.631  -5.689  69.046  1.00  0.00    -0.237 N 
HETATM   33  C9  UNL     1      65.665  -4.824  70.194  1.00  0.00     0.335 C 
HETATM   34  O4  UNL     1      66.359  -3.798  70.141  1.00  0.00    -0.246 OA
HETATM   35  N7  UNL     1      64.918  -5.150  71.349  1.00  0.00    -0.346 N 
HETATM   36  C10 UNL     1      64.888  -4.339  72.542  1.00  0.00     0.151 C 
ATOM     37  H7  UNL     1      64.367  -6.009  71.338  1.00  0.00     0.163 HD
ATOM     38  H6  UNL     1      65.066  -6.538  69.071  1.00  0.00     0.193 HD
ENDBRANCH  29  32
ENDBRANCH  26  28
ENDBRANCH  24  26
ENDBRANCH  22  24
ENDBRANCH  19  20
ENDBRANCH  18  19
ENDBRANCH   2  18
BRANCH   1  39
HETATM   39  C4  UNL     1      59.188  -1.853  68.409  1.00  0.00     0.243 C 
BRANCH  39  40
HETATM   40  C3  UNL     1      58.268  -0.917  67.715  1.00  0.00     0.277 C 
HETATM   41  O2  UNL     1      57.307  -1.367  67.058  1.00  0.00    -0.263 OA
BRANCH  40  42
HETATM   42  O1  UNL     1      58.453   0.444  67.782  1.00  0.00    -0.321 OA
BRANCH  42  43
HETATM   43  C2  UNL     1      59.224   1.228  66.939  1.00  0.00     0.174 C 
HETATM   44  C1  UNL     1      59.541   0.516  65.646  1.00  0.00     0.034 C 
ENDBRANCH  42  43
ENDBRANCH  40  42
ENDBRANCH  39  40
ENDBRANCH   1  39
BRANCH   5  45
HETATM   45  N9  UNL     1      58.512  -1.190  73.808  1.00  0.00    -0.385 N 
ATOM     46  H92 UNL     1      58.853  -0.372  74.312  1.00  0.00     0.157 HD
ATOM     47  H91 UNL     1      58.058  -1.893  74.391  1.00  0.00     0.157 HD
ENDBRANCH   5  45
TORSDOF 12
ENDMDL
MODEL 3
REMARK VINA RESULT: -8.487555601      2.084      2.886
REMARK  12 active torsions:
REMARK  status: ('A' for Active; 'I' for Inactive)
REMARK    1  A    between atoms: C2_2  and  O1_3 
REMARK    2  A    between atoms: O1_3  and  C3_4 
REMARK    3  A    between atoms: C3_4  and  C4_6 
REMARK    4  A    between atoms: C4_6  and  N1_7 
REMARK    5  A    between atoms: C5_8  and  S1_9 
REMARK    6  A    between atoms: S1_9  and  C6_10 
REMARK    7  A    between atoms: C6_10  and  C7_11 
REMARK       I    between atoms: C7_11  and  N2_13 
REMARK    8  A    between atoms: N2_13  and  N3_15 
REMARK    9  A    between atoms: N3_15  and  C8_17 
REMARK   10  A    between atoms: C8_17  and  N4_19 
REMARK   11  A    between atoms: N5_21  and  N6_23 
REMARK       I    between atoms: N6_23  and  C9_25 
REMARK       I    between atoms: C9_25  and  N7_27 
REMARK   12  A    between atoms: C11_32  and  N9_33 
ROOT
HETATM    1  N1  UNL     1      59.162  -1.631  69.584  1.00  0.00    -0.303 N 
HETATM    2  C5  UNL     1      60.077  -0.937  70.281  1.00  0.00     0.150 A 
HETATM    3  N8  UNL     1      59.989  -0.737  71.595  1.00  0.00    -0.322 N 
ATOM      4  H8  UNL     1      60.719  -0.198  72.060  1.00  0.00     0.169 HD
HETATM    5  C11 UNL     1      58.941  -1.235  72.353  1.00  0.00     0.118 A 
HETATM    6  C12 UNL     1      57.990  -1.959  71.631  1.00  0.00     0.094 A 
HETATM    7  C13 UNL     1      56.908  -2.514  72.279  1.00  0.00     0.149 A 
HETATM    8  N10 UNL     1      56.671  -2.403  73.666  1.00  0.00    -0.081 NA
HETATM    9  N11 UNL     1      56.027  -3.214  71.509  1.00  0.00    -0.178 N 
ATOM     10  H11 UNL     1      55.217  -3.636  71.963  1.00  0.00     0.185 HD
HETATM   11  C14 UNL     1      56.171  -3.377  70.187  1.00  0.00     0.678 A 
HETATM   12  N12 UNL     1      55.308  -4.056  69.487  1.00  0.00    -0.234 N 
ATOM     13 1H12 UNL     1      55.418  -4.180  68.481  1.00  0.00     0.174 HD
ATOM     14 2H12 UNL     1      54.508  -4.464  69.970  1.00  0.00     0.174 HD
HETATM   15  N13 UNL     1      57.225  -2.839  69.552  1.00  0.00    -0.176 N 
ATOM     16  H13 UNL     1      57.343  -2.959  68.547  1.00  0.00     0.186 HD
HETATM   17  C15 UNL     1      58.124  -2.137  70.275  1.00  0.00     0.143 A 
ENDROOT
BRANCH   2  18
HETATM   18  S1  UNL     1      61.501  -0.333  69.334  1.00  0.00    -0.084 SA
BRANCH  18  19
HETATM   19  C6  UNL     1      62.858  -0.257  70.562  1.00  0.00     0.186 C 
BRANCH  19  20
HETATM   20  C7  UNL     1      63.521  -1.551  70.770  1.00  0.00     0.245 C 
HETATM   21  O3  UNL     1      63.289  -2.495  69.989  1.00  0.00    -0.271 OA
HETATM   22  N2  UNL     1      64.411  -1.726  71.843  1.00  0.00    -0.267 N 
ATOM     23  H2  UNL     1      64.597  -0.944  72.471  1.00  0.00     0.190 HD
BRANCH  22  24
HETATM   24  N3  UNL     1      65.046  -2.952  72.067  1.00  0.00    -0.272 N 
ATOM     25  H3  UNL     1      64.482  -3.742  72.380  1.00  0.00     0.189 HD
BRANCH  24  26
HETATM   26  C8  UNL     1      66.431  -3.148  71.881  1.00  0.00     0.206 C 
HETATM   27  S2  UNL     1      67.512  -2.177  72.702  1.00  0.00    -0.038 SA
BRANCH  26  28
HETATM   28  N4  UNL     1      66.912  -4.149  71.041  1.00  0.00    -0.260 N 
HETATM   29  N5  UNL     1      66.426  -4.574  70.022  1.00  0.00    -0.237 N 
ATOM     30  H5  UNL     1      66.991  -5.311  69.601  1.00  0.00     0.208 HD
ATOM     31  H4  UNL     1      67.793  -4.579  71.325  1.00  0.00     0.191 HD
BRANCH  29  32
HETATM   32  N6  UNL     1      65.316  -4.308  69.309  1.00  0.00    -0.237 N 
HETATM   33  C9  UNL     1      65.327  -4.387  67.873  1.00  0.00     0.335 C 
HETATM   34  O4  UNL     1      66.384  -4.706  67.308  1.00  0.00    -0.246 OA
HETATM   35  N7  UNL     1      64.153  -4.106  67.139  1.00  0.00    -0.346 N 
HETATM   36  C10 UNL     1      64.073  -4.167  65.699  1.00  0.00     0.151 C 
ATOM     37  H7  UNL     1      63.313  -3.845  67.657  1.00  0.00     0.163 HD
ATOM     38  H6  UNL     1      64.457  -4.047  69.792  1.00  0.00     0.193 HD
ENDBRANCH  29  32
ENDBRANCH  26  28
ENDBRANCH  24  26
ENDBRANCH  22  24
ENDBRANCH  19  20
ENDBRANCH  18  19
ENDBRANCH   2  18
BRANCH   1  39
HETATM   39  C4  UNL     1      59.280  -1.794  68.162  1.00  0.00     0.243 C 
BRANCH  39  40
HETATM   40  C3  UNL     1      58.462  -0.747  67.500  1.00  0.00     0.277 C 
HETATM   41  O2  UNL     1      57.226  -0.896  67.404  1.00  0.00    -0.263 OA
BRANCH  40  42
HETATM   42  O1  UNL     1      59.040   0.390  66.987  1.00  0.00    -0.321 OA
BRANCH  42  43
HETATM   43  C2  UNL     1      58.617   1.698  67.164  1.00  0.00     0.174 C 
HETATM   44  C1  UNL     1      59.041   2.584  66.017  1.00  0.00     0.034 C 
ENDBRANCH  42  43
ENDBRANCH  40  42
ENDBRANCH  39  40
ENDBRANCH   1  39
BRANCH   5  45
HETATM   45  N9  UNL     1      58.916  -1.011  73.575  1.00  0.00    -0.385 N 
ATOM     46  H92 UNL     1      59.065  -0.107  74.022  1.00  0.00     0.157 HD
ATOM     47  H91 UNL     1      58.734  -1.782  74.219  1.00  0.00     0.157 HD
ENDBRANCH   5  45
TORSDOF 12
ENDMDL
MODEL 4
REMARK VINA RESULT: -8.477259394      2.420      7.075
REMARK  12 active torsions:
REMARK  status: ('A' for Active; 'I' for Inactive)
REMARK    1  A    between atoms: C2_2  and  O1_3 
REMARK    2  A    between atoms: O1_3  and  C3_4 
REMARK    3  A    between atoms: C3_4  and  C4_6 
REMARK    4  A    between atoms: C4_6  and  N1_7 
REMARK    5  A    between atoms: C5_8  and  S1_9 
REMARK    6  A    between atoms: S1_9  and  C6_10 
REMARK    7  A    between atoms: C6_10  and  C7_11 
REMARK       I    between atoms: C7_11  and  N2_13 
REMARK    8  A    between atoms: N2_13  and  N3_15 
REMARK    9  A    between atoms: N3_15  and  C8_17 
REMARK   10  A    between atoms: C8_17  and  N4_19 
REMARK   11  A    between atoms: N5_21  and  N6_23 
REMARK       I    between atoms: N6_23  and  C9_25 
REMARK       I    between atoms: C9_25  and  N7_27 
REMARK   12  A    between atoms: C11_32  and  N9_33 
ROOT
HETATM    1  N1  UNL     1      64.634  -2.275  71.037  1.00  0.00    -0.303 N 
HETATM    2  C5  UNL     1      64.279  -2.082  72.319  1.00  0.00     0.150 A 
HETATM    3  N8  UNL     1      64.273  -3.057  73.225  1.00  0.00    -0.322 N 
ATOM      4  H8  UNL     1      63.989  -2.839  74.180  1.00  0.00     0.169 HD
HETATM    5  C11 UNL     1      64.637  -4.359  72.917  1.00  0.00     0.118 A 
HETATM    6  C12 UNL     1      65.010  -4.562  71.587  1.00  0.00     0.094 A 
HETATM    7  C13 UNL     1      65.403  -5.812  71.164  1.00  0.00     0.149 A 
HETATM    8  N10 UNL     1      65.461  -6.950  71.997  1.00  0.00    -0.081 NA
HETATM    9  N11 UNL     1      65.761  -5.931  69.854  1.00  0.00    -0.178 N 
ATOM     10  H11 UNL     1      66.057  -6.846  69.514  1.00  0.00     0.185 HD
HETATM   11  C14 UNL     1      65.743  -4.908  68.989  1.00  0.00     0.678 A 
HETATM   12  N12 UNL     1      66.095  -5.062  67.745  1.00  0.00    -0.234 N 
ATOM     13 1H12 UNL     1      66.081  -4.282  67.087  1.00  0.00     0.174 HD
ATOM     14 2H12 UNL     1      66.385  -5.989  67.435  1.00  0.00     0.174 HD
HETATM   15  N13 UNL     1      65.361  -3.687  69.397  1.00  0.00    -0.176 N 
ATOM     16  H13 UNL     1      65.345  -2.902  68.747  1.00  0.00     0.186 HD
HETATM   17  C15 UNL     1      64.999  -3.522  70.688  1.00  0.00     0.143 A 
ENDROOT
BRANCH   2  18
HETATM   18  S1  UNL     1      63.867  -0.375  72.776  1.00  0.00    -0.084 SA
BRANCH  18  19
HETATM   19  C6  UNL     1      62.357  -0.536  73.802  1.00  0.00     0.186 C 
BRANCH  19  20
HETATM   20  C7  UNL     1      61.124  -0.599  73.008  1.00  0.00     0.245 C 
HETATM   21  O3  UNL     1      60.332  -1.547  73.173  1.00  0.00    -0.271 OA
HETATM   22  N2  UNL     1      60.838   0.402  72.065  1.00  0.00    -0.267 N 
ATOM     23  H2  UNL     1      61.491   1.177  71.944  1.00  0.00     0.190 HD
BRANCH  22  24
HETATM   24  N3  UNL     1      59.675   0.359  71.289  1.00  0.00    -0.272 N 
ATOM     25  H3  UNL     1      58.859   0.881  71.607  1.00  0.00     0.189 HD
BRANCH  24  26
HETATM   26  C8  UNL     1      59.577  -0.372  70.087  1.00  0.00     0.206 C 
HETATM   27  S2  UNL     1      59.186   0.425  68.674  1.00  0.00    -0.038 SA
BRANCH  26  28
HETATM   28  N4  UNL     1      59.818  -1.743  70.054  1.00  0.00    -0.260 N 
HETATM   29  N5  UNL     1      59.197  -2.630  70.587  1.00  0.00    -0.237 N 
ATOM     30  H5  UNL     1      59.593  -3.550  70.396  1.00  0.00     0.208 HD
ATOM     31  H4  UNL     1      60.627  -2.037  69.506  1.00  0.00     0.191 HD
BRANCH  29  32
HETATM   32  N6  UNL     1      58.107  -2.694  71.374  1.00  0.00    -0.237 N 
HETATM   33  C9  UNL     1      56.789  -2.749  70.802  1.00  0.00     0.335 C 
HETATM   34  O4  UNL     1      56.681  -2.736  69.566  1.00  0.00    -0.246 OA
HETATM   35  N7  UNL     1      55.655  -2.818  71.641  1.00  0.00    -0.346 N 
HETATM   36  C10 UNL     1      54.297  -2.882  71.154  1.00  0.00     0.151 C 
ATOM     37  H7  UNL     1      55.803  -2.822  72.651  1.00  0.00     0.163 HD
ATOM     38  H6  UNL     1      58.217  -2.703  72.388  1.00  0.00     0.193 HD
ENDBRANCH  29  32
ENDBRANCH  26  28
ENDBRANCH  24  26
ENDBRANCH  22  24
ENDBRANCH  19  20
ENDBRANCH  18  19
ENDBRANCH   2  18
BRANCH   1  39
HETATM   39  C4  UNL     1      64.595  -1.200  70.086  1.00  0.00     0.243 C 
BRANCH  39  40
HETATM   40  C3  UNL     1      63.217  -1.103  69.544  1.00  0.00     0.277 C 
HETATM   41  O2  UNL     1      62.543  -0.071  69.747  1.00  0.00    -0.263 OA
BRANCH  40  42
HETATM   42  O1  UNL     1      62.662  -2.130  68.818  1.00  0.00    -0.321 OA
BRANCH  42  43
HETATM   43  C2  UNL     1      62.737  -2.325  67.448  1.00  0.00     0.174 C 
HETATM   44  C1  UNL     1      61.425  -2.020  66.766  1.00  0.00     0.034 C 
ENDBRANCH  42  43
ENDBRANCH  40  42
ENDBRANCH  39  40
ENDBRANCH   1  39
BRANCH   5  45
HETATM   45  N9  UNL     1      64.607  -5.225  73.808  1.00  0.00    -0.385 N 
ATOM     46  H92 UNL     1      63.953  -6.005  73.864  1.00  0.00     0.157 HD
ATOM     47  H91 UNL     1      65.284  -5.179  74.570  1.00  0.00     0.157 HD
ENDBRANCH   5  45
TORSDOF 12
ENDMDL
MODEL 5
REMARK VINA RESULT: -8.451920871      2.315      3.413
REMARK  12 active torsions:
REMARK  status: ('A' for Active; 'I' for Inactive)
REMARK    1  A    between atoms: C2_2  and  O1_3 
REMARK    2  A    between atoms: O1_3  and  C3_4 
REMARK    3  A    between atoms: C3_4  and  C4_6 
REMARK    4  A    between atoms: C4_6  and  N1_7 
REMARK    5  A    between atoms: C5_8  and  S1_9 
REMARK    6  A    between atoms: S1_9  and  C6_10 
REMARK    7  A    between atoms: C6_10  and  C7_11 
REMARK       I    between atoms: C7_11  and  N2_13 
REMARK    8  A    between atoms: N2_13  and  N3_15 
REMARK    9  A    between atoms: N3_15  and  C8_17 
REMARK   10  A    between atoms: C8_17  and  N4_19 
REMARK   11  A    between atoms: N5_21  and  N6_23 
REMARK       I    between atoms: N6_23  and  C9_25 
REMARK       I    between atoms: C9_25  and  N7_27 
REMARK   12  A    between atoms: C11_32  and  N9_33 
ROOT
HETATM    1  N1  UNL     1      59.257  -1.552  69.808  1.00  0.00    -0.303 N 
HETATM    2  C5  UNL     1      60.123  -0.882  70.586  1.00  0.00     0.150 A 
HETATM    3  N8  UNL     1      59.965  -0.750  71.902  1.00  0.00    -0.322 N 
ATOM      4  H8  UNL     1      60.662  -0.226  72.431  1.00  0.00     0.169 HD
HETATM    5  C11 UNL     1      58.887  -1.299  72.579  1.00  0.00     0.118 A 
HETATM    6  C12 UNL     1      57.986  -1.998  71.773  1.00  0.00     0.094 A 
HETATM    7  C13 UNL     1      56.881  -2.598  72.335  1.00  0.00     0.149 A 
HETATM    8  N10 UNL     1      56.571  -2.561  73.711  1.00  0.00    -0.081 NA
HETATM    9  N11 UNL     1      56.052  -3.270  71.486  1.00  0.00    -0.178 N 
ATOM     10  H11 UNL     1      55.226  -3.724  71.876  1.00  0.00     0.185 HD
HETATM   11  C14 UNL     1      56.266  -3.365  70.167  1.00  0.00     0.678 A 
HETATM   12  N12 UNL     1      55.451  -4.019  69.391  1.00  0.00    -0.234 N 
ATOM     13 1H12 UNL     1      55.615  -4.090  68.386  1.00  0.00     0.174 HD
ATOM     14 2H12 UNL     1      54.633  -4.461  69.809  1.00  0.00     0.174 HD
HETATM   15  N13 UNL     1      57.343  -2.782  69.616  1.00  0.00    -0.176 N 
ATOM     16  H13 UNL     1      57.515  -2.849  68.613  1.00  0.00     0.186 HD
HETATM   17  C15 UNL     1      58.193  -2.106  70.419  1.00  0.00     0.143 A 
ENDROOT
BRANCH   2  18
HETATM   18  S1  UNL     1      61.585  -0.213  69.746  1.00  0.00    -0.084 SA
BRANCH  18  19
HETATM   19  C6  UNL     1      62.067   1.232  70.764  1.00  0.00     0.186 C 
BRANCH  19  20
HETATM   20  C7  UNL     1      63.039   0.899  71.814  1.00  0.00     0.245 C 
HETATM   21  O3  UNL     1      62.650   0.750  72.989  1.00  0.00    -0.271 OA
HETATM   22  N2  UNL     1      64.399   0.751  71.498  1.00  0.00    -0.267 N 
ATOM     23  H2  UNL     1      64.704   0.869  70.531  1.00  0.00     0.190 HD
BRANCH  22  24
HETATM   24  N3  UNL     1      65.345   0.444  72.482  1.00  0.00    -0.272 N 
ATOM     25  H3  UNL     1      65.803   1.212  72.972  1.00  0.00     0.189 HD
BRANCH  24  26
HETATM   26  C8  UNL     1      65.697  -0.878  72.827  1.00  0.00     0.206 C 
HETATM   27  S2  UNL     1      67.296  -1.349  72.738  1.00  0.00    -0.038 SA
BRANCH  26  28
HETATM   28  N4  UNL     1      64.738  -1.791  73.259  1.00  0.00    -0.260 N 
HETATM   29  N5  UNL     1      64.039  -2.518  72.597  1.00  0.00    -0.237 N 
ATOM     30  H5  UNL     1      63.421  -3.091  73.171  1.00  0.00     0.208 HD
ATOM     31  H4  UNL     1      64.609  -1.853  74.270  1.00  0.00     0.191 HD
BRANCH  29  32
HETATM   32  N6  UNL     1      63.881  -2.754  71.282  1.00  0.00    -0.237 N 
HETATM   33  C9  UNL     1      64.734  -3.684  70.594  1.00  0.00     0.335 C 
HETATM   34  O4  UNL     1      65.620  -4.262  71.240  1.00  0.00    -0.246 OA
HETATM   35  N7  UNL     1      64.555  -3.922  69.212  1.00  0.00    -0.346 N 
HETATM   36  C10 UNL     1      65.360  -4.841  68.444  1.00  0.00     0.151 C 
ATOM     37  H7  UNL     1      63.812  -3.415  68.730  1.00  0.00     0.163 HD
ATOM     38  H6  UNL     1      63.147  -2.268  70.767  1.00  0.00     0.193 HD
ENDBRANCH  29  32
ENDBRANCH  26  28
ENDBRANCH  24  26
ENDBRANCH  22  24
ENDBRANCH  19  20
ENDBRANCH  18  19
ENDBRANCH   2  18
BRANCH   1  39
HETATM   39  C4  UNL     1      59.450  -1.641  68.388  1.00  0.00     0.243 C 
BRANCH  39  40
HETATM   40  C3  UNL     1      58.639  -0.584  67.736  1.00  0.00     0.277 C 
HETATM   41  O2  UNL     1      57.520  -0.868  67.259  1.00  0.00    -0.263 OA
BRANCH  40  42
HETATM   42  O1  UNL     1      59.094   0.711  67.646  1.00  0.00    -0.321 OA
BRANCH  42  43
HETATM   43  C2  UNL     1      58.440   1.792  67.078  1.00  0.00     0.174 C 
HETATM   44  C1  UNL     1      59.178   2.326  65.874  1.00  0.00     0.034 C 
ENDBRANCH  42  43
ENDBRANCH  40  42
ENDBRANCH  39  40
ENDBRANCH   1  39
BRANCH   5  45
HETATM   45  N9  UNL     1      58.795  -1.137  73.807  1.00  0.00    -0.385 N 
ATOM     46  H92 UNL     1      59.368  -0.512  74.374  1.00  0.00     0.157 HD
ATOM     47  H91 UNL     1      58.094  -1.664  74.328  1.00  0.00     0.157 HD
ENDBRANCH   5  45
TORSDOF 12
ENDMDL
