MODEL 1
REMARK VINA RESULT: -8.454836135      0.000      0.000
REMARK  14 active torsions:
REMARK  status: ('A' for Active; 'I' for Inactive)
REMARK    1  A    between atoms: C2_2  and  C3_3 
REMARK    2  A    between atoms: C3_3  and  C4_4 
REMARK    3  A    between atoms: C4_4  and  C5_5 
REMARK    4  A    between atoms: C5_5  and  C6_6 
REMARK    5  A    between atoms: C6_6  and  S1_7 
REMARK    6  A    between atoms: S1_7  and  C7_8 
REMARK    7  A    between atoms: C7_8  and  C8_9 
REMARK    8  A    between atoms: C9_11  and  O2_12 
REMARK    9  A    between atoms: O2_12  and  C10_13 
REMARK   10  A    between atoms: C16_21  and  O5_22 
REMARK   11  A    between atoms: C17_24  and  O6_25 
REMARK   12  A    between atoms: C18_27  and  O7_28 
REMARK   13  A    between atoms: C19_30  and  O8_31 
REMARK   14  A    between atoms: C20_33  and  O9_34 
ROOT
HETATM    1  C8  UNL     1      -0.589   0.486  16.397  1.00  0.00     0.165 C 
HETATM    2  O1  UNL     1      -1.852   0.093  16.059  1.00  0.00    -0.350 OA
HETATM    3  C9  UNL     1      -2.602  -0.365  17.139  1.00  0.00     0.294 C 
HETATM    4  C18 UNL     1      -2.959   0.803  18.041  1.00  0.00     0.204 C 
HETATM    5  C19 UNL     1      -1.715   1.576  18.347  1.00  0.00     0.183 C 
HETATM    6  C20 UNL     1      -0.454   0.922  17.836  1.00  0.00     0.179 C 
ENDROOT
BRANCH   3   7
HETATM    7  O2  UNL     1      -1.988  -1.379  17.832  1.00  0.00    -0.326 OA
BRANCH   7   8
HETATM    8  C10 UNL     1      -2.303  -2.657  17.415  1.00  0.00     0.294 C 
HETATM    9  O3  UNL     1      -3.391  -3.182  18.146  1.00  0.00    -0.347 OA
HETATM   10  C11 UNL     1      -3.151  -2.902  19.490  1.00  0.00     0.190 C 
HETATM   11  C12 UNL     1      -1.837  -3.512  19.862  1.00  0.00     0.186 C 
HETATM   12  C13 UNL     1      -3.774  -3.814  20.493  1.00  0.00     0.083 C 
HETATM   13  O4  UNL     1      -2.479  -4.191  20.901  1.00  0.00    -0.368 OA
HETATM   14  C16 UNL     1      -1.333  -4.441  18.771  1.00  0.00     0.183 C 
HETATM   15  C17 UNL     1      -1.101  -3.596  17.539  1.00  0.00     0.204 C 
HETATM   16  C14 UNL     1      -4.413  -3.045  21.655  1.00  0.00     0.048 C 
HETATM   17  C15 UNL     1      -4.580  -4.961  19.984  1.00  0.00     0.048 C 
BRANCH  14  18
HETATM   18  O5  UNL     1      -0.184  -5.093  19.185  1.00  0.00    -0.390 OA
ATOM     19  H5  UNL     1       0.452  -4.467  19.513  1.00  0.00     0.210 HD
ENDBRANCH  14  18
BRANCH  15  20
HETATM   20  O6  UNL     1       0.081  -2.907  17.702  1.00  0.00    -0.388 OA
ATOM     21  H6  UNL     1       0.762  -3.222  17.121  1.00  0.00     0.210 HD
ENDBRANCH  15  20
ENDBRANCH   7   8
ENDBRANCH   3   7
BRANCH   4  22
HETATM   22  O7  UNL     1      -3.901   1.579  17.367  1.00  0.00    -0.388 OA
ATOM     23  H7  UNL     1      -4.551   1.855  18.002  1.00  0.00     0.210 HD
ENDBRANCH   4  22
BRANCH   1  24
HETATM   24  C7  UNL     1      -0.028   1.556  15.492  1.00  0.00     0.108 C 
BRANCH  24  25
HETATM   25  S1  UNL     1      -1.230   2.092  14.284  1.00  0.00    -0.166 SA
BRANCH  25  26
HETATM   26  C6  UNL     1      -2.254   3.454  14.804  1.00  0.00     0.074 C 
BRANCH  26  27
HETATM   27  C5  UNL     1      -3.453   3.687  13.920  1.00  0.00     0.010 C 
BRANCH  27  28
HETATM   28  C4  UNL     1      -4.089   2.360  13.592  1.00  0.00     0.001 C 
BRANCH  28  29
HETATM   29  C3  UNL     1      -5.505   2.489  13.119  1.00  0.00    -0.000 C 
BRANCH  29  30
HETATM   30  C2  UNL     1      -6.013   1.202  12.475  1.00  0.00    -0.005 C 
HETATM   31  C1  UNL     1      -7.157   1.573  11.558  1.00  0.00     0.005 C 
ENDBRANCH  29  30
ENDBRANCH  28  29
ENDBRANCH  27  28
ENDBRANCH  26  27
ENDBRANCH  25  26
ENDBRANCH  24  25
ENDBRANCH   1  24
BRANCH   5  32
HETATM   32  O8  UNL     1      -1.613   1.734  19.726  1.00  0.00    -0.390 OA
ATOM     33  H8  UNL     1      -1.588   2.662  19.926  1.00  0.00     0.210 HD
ENDBRANCH   5  32
BRANCH   6  34
HETATM   34  O9  UNL     1       0.554   1.895  17.892  1.00  0.00    -0.390 OA
ATOM     35  H9  UNL     1       0.907   1.894  18.775  1.00  0.00     0.210 HD
ENDBRANCH   6  34
TORSDOF 14
ENDMDL
MODEL 2
REMARK VINA RESULT: -8.342152710      1.619      2.534
REMARK  14 active torsions:
REMARK  status: ('A' for Active; 'I' for Inactive)
REMARK    1  A    between atoms: C2_2  and  C3_3 
REMARK    2  A    between atoms: C3_3  and  C4_4 
REMARK    3  A    between atoms: C4_4  and  C5_5 
REMARK    4  A    between atoms: C5_5  and  C6_6 
REMARK    5  A    between atoms: C6_6  and  S1_7 
REMARK    6  A    between atoms: S1_7  and  C7_8 
REMARK    7  A    between atoms: C7_8  and  C8_9 
REMARK    8  A    between atoms: C9_11  and  O2_12 
REMARK    9  A    between atoms: O2_12  and  C10_13 
REMARK   10  A    between atoms: C16_21  and  O5_22 
REMARK   11  A    between atoms: C17_24  and  O6_25 
REMARK   12  A    between atoms: C18_27  and  O7_28 
REMARK   13  A    between atoms: C19_30  and  O8_31 
REMARK   14  A    between atoms: C20_33  and  O9_34 
ROOT
HETATM    1  C8  UNL     1      -0.559   0.490  16.456  1.00  0.00     0.165 C 
HETATM    2  O1  UNL     1      -1.815   0.083  16.106  1.00  0.00    -0.350 OA
HETATM    3  C9  UNL     1      -2.562  -0.406  17.174  1.00  0.00     0.294 C 
HETATM    4  C18 UNL     1      -2.940   0.740  18.096  1.00  0.00     0.204 C 
HETATM    5  C19 UNL     1      -1.709   1.527  18.421  1.00  0.00     0.183 C 
HETATM    6  C20 UNL     1      -0.437   0.902  17.903  1.00  0.00     0.179 C 
ENDROOT
BRANCH   3   7
HETATM    7  O2  UNL     1      -1.935  -1.423  17.851  1.00  0.00    -0.326 OA
BRANCH   7   8
HETATM    8  C10 UNL     1      -2.265  -2.699  17.442  1.00  0.00     0.294 C 
HETATM    9  O3  UNL     1      -3.369  -3.201  18.165  1.00  0.00    -0.347 OA
HETATM   10  C11 UNL     1      -3.139  -2.914  19.509  1.00  0.00     0.190 C 
HETATM   11  C12 UNL     1      -1.840  -3.540  19.900  1.00  0.00     0.186 C 
HETATM   12  C13 UNL     1      -3.787  -3.807  20.513  1.00  0.00     0.083 C 
HETATM   13  O4  UNL     1      -2.503  -4.200  20.938  1.00  0.00    -0.368 OA
HETATM   14  C16 UNL     1      -1.338  -4.486  18.822  1.00  0.00     0.183 C 
HETATM   15  C17 UNL     1      -1.079  -3.655  17.586  1.00  0.00     0.204 C 
HETATM   16  C14 UNL     1      -4.426  -3.018  21.661  1.00  0.00     0.048 C 
HETATM   17  C15 UNL     1      -4.606  -4.945  20.005  1.00  0.00     0.048 C 
BRANCH  14  18
HETATM   18  O5  UNL     1      -0.204  -5.152  19.254  1.00  0.00    -0.390 OA
ATOM     19  H5  UNL     1       0.578  -4.709  18.946  1.00  0.00     0.210 HD
ENDBRANCH  14  18
BRANCH  15  20
HETATM   20  O6  UNL     1       0.111  -2.984  17.757  1.00  0.00    -0.388 OA
ATOM     21  H6  UNL     1      -0.020  -2.094  18.062  1.00  0.00     0.210 HD
ENDBRANCH  15  20
ENDBRANCH   7   8
ENDBRANCH   3   7
BRANCH   4  22
HETATM   22  O7  UNL     1      -3.891   1.514  17.432  1.00  0.00    -0.388 OA
ATOM     23  H7  UNL     1      -4.090   1.080  16.611  1.00  0.00     0.210 HD
ENDBRANCH   4  22
BRANCH   1  24
HETATM   24  C7  UNL     1      -0.012   1.584  15.573  1.00  0.00     0.108 C 
BRANCH  24  25
HETATM   25  S1  UNL     1      -1.097   1.922  14.194  1.00  0.00    -0.166 SA
BRANCH  25  26
HETATM   26  C6  UNL     1      -2.225   3.277  14.448  1.00  0.00     0.074 C 
BRANCH  26  27
HETATM   27  C5  UNL     1      -1.903   4.119  15.656  1.00  0.00     0.010 C 
BRANCH  27  28
HETATM   28  C4  UNL     1      -3.190   4.574  16.298  1.00  0.00     0.001 C 
BRANCH  28  29
HETATM   29  C3  UNL     1      -2.975   5.300  17.591  1.00  0.00    -0.000 C 
BRANCH  29  30
HETATM   30  C2  UNL     1      -4.221   6.065  18.031  1.00  0.00    -0.005 C 
HETATM   31  C1  UNL     1      -4.037   7.510  17.619  1.00  0.00     0.005 C 
ENDBRANCH  29  30
ENDBRANCH  28  29
ENDBRANCH  27  28
ENDBRANCH  26  27
ENDBRANCH  25  26
ENDBRANCH  24  25
ENDBRANCH   1  24
BRANCH   5  32
HETATM   32  O8  UNL     1      -1.615   1.661  19.803  1.00  0.00    -0.390 OA
ATOM     33  H8  UNL     1      -1.242   0.865  20.162  1.00  0.00     0.210 HD
ENDBRANCH   5  32
BRANCH   6  34
HETATM   34  O9  UNL     1       0.557   1.889  17.981  1.00  0.00    -0.390 OA
ATOM     35  H9  UNL     1       0.192   2.693  17.631  1.00  0.00     0.210 HD
ENDBRANCH   6  34
TORSDOF 14
ENDMDL
MODEL 3
REMARK VINA RESULT: -8.203790203      1.751      3.101
REMARK  14 active torsions:
REMARK  status: ('A' for Active; 'I' for Inactive)
REMARK    1  A    between atoms: C2_2  and  C3_3 
REMARK    2  A    between atoms: C3_3  and  C4_4 
REMARK    3  A    between atoms: C4_4  and  C5_5 
REMARK    4  A    between atoms: C5_5  and  C6_6 
REMARK    5  A    between atoms: C6_6  and  S1_7 
REMARK    6  A    between atoms: S1_7  and  C7_8 
REMARK    7  A    between atoms: C7_8  and  C8_9 
REMARK    8  A    between atoms: C9_11  and  O2_12 
REMARK    9  A    between atoms: O2_12  and  C10_13 
REMARK   10  A    between atoms: C16_21  and  O5_22 
REMARK   11  A    between atoms: C17_24  and  O6_25 
REMARK   12  A    between atoms: C18_27  and  O7_28 
REMARK   13  A    between atoms: C19_30  and  O8_31 
REMARK   14  A    between atoms: C20_33  and  O9_34 
ROOT
HETATM    1  C8  UNL     1      -2.235   1.064  15.202  1.00  0.00     0.165 C 
HETATM    2  O1  UNL     1      -3.120   1.594  16.097  1.00  0.00    -0.350 OA
HETATM    3  C9  UNL     1      -2.732   1.441  17.425  1.00  0.00     0.294 C 
HETATM    4  C18 UNL     1      -1.545   2.343  17.713  1.00  0.00     0.204 C 
HETATM    5  C19 UNL     1      -0.503   2.124  16.663  1.00  0.00     0.183 C 
HETATM    6  C20 UNL     1      -0.821   0.987  15.722  1.00  0.00     0.179 C 
ENDROOT
BRANCH   3   7
HETATM    7  O2  UNL     1      -2.478   0.136  17.766  1.00  0.00    -0.326 OA
BRANCH   7   8
HETATM    8  C10 UNL     1      -3.281  -0.382  18.762  1.00  0.00     0.294 C 
HETATM    9  O3  UNL     1      -2.584  -1.328  19.545  1.00  0.00    -0.347 OA
HETATM   10  C11 UNL     1      -1.903  -2.164  18.662  1.00  0.00     0.190 C 
HETATM   11  C12 UNL     1      -2.907  -2.781  17.742  1.00  0.00     0.186 C 
HETATM   12  C13 UNL     1      -1.598  -3.545  19.136  1.00  0.00     0.083 C 
HETATM   13  O4  UNL     1      -2.429  -4.040  18.111  1.00  0.00    -0.368 OA
HETATM   14  C16 UNL     1      -4.325  -2.523  18.221  1.00  0.00     0.183 C 
HETATM   15  C17 UNL     1      -4.543  -1.027  18.182  1.00  0.00     0.204 C 
HETATM   16  C14 UNL     1      -0.162  -3.966  18.804  1.00  0.00     0.048 C 
HETATM   17  C15 UNL     1      -2.063  -3.931  20.499  1.00  0.00     0.048 C 
BRANCH  14  18
HETATM   18  O5  UNL     1      -5.233  -3.207  17.431  1.00  0.00    -0.390 OA
ATOM     19  H5  UNL     1      -6.087  -2.792  17.473  1.00  0.00     0.210 HD
ENDBRANCH  14  18
BRANCH  15  20
HETATM   20  O6  UNL     1      -4.761  -0.655  16.873  1.00  0.00    -0.388 OA
ATOM     21  H6  UNL     1      -4.233  -1.159  16.266  1.00  0.00     0.210 HD
ENDBRANCH  15  20
ENDBRANCH   7   8
ENDBRANCH   3   7
BRANCH   4  22
HETATM   22  O7  UNL     1      -2.010   3.658  17.718  1.00  0.00    -0.388 OA
ATOM     23  H7  UNL     1      -2.473   3.800  16.900  1.00  0.00     0.210 HD
ENDBRANCH   4  22
BRANCH   1  24
HETATM   24  C7  UNL     1      -2.242   1.760  13.863  1.00  0.00     0.108 C 
BRANCH  24  25
HETATM   25  S1  UNL     1      -3.432   3.092  13.819  1.00  0.00    -0.166 SA
BRANCH  25  26
HETATM   26  C6  UNL     1      -5.090   2.596  13.396  1.00  0.00     0.074 C 
BRANCH  26  27
HETATM   27  C5  UNL     1      -5.189   1.184  12.876  1.00  0.00     0.010 C 
BRANCH  27  28
HETATM   28  C4  UNL     1      -6.332   1.099  11.895  1.00  0.00     0.001 C 
BRANCH  28  29
HETATM   29  C3  UNL     1      -7.552   1.839  12.352  1.00  0.00    -0.000 C 
BRANCH  29  30
HETATM   30  C2  UNL     1      -8.194   2.636  11.219  1.00  0.00    -0.005 C 
HETATM   31  C1  UNL     1      -7.678   4.055  11.312  1.00  0.00     0.005 C 
ENDBRANCH  29  30
ENDBRANCH  28  29
ENDBRANCH  27  28
ENDBRANCH  26  27
ENDBRANCH  25  26
ENDBRANCH  24  25
ENDBRANCH   1  24
BRANCH   5  32
HETATM   32  O8  UNL     1       0.715   1.866  17.286  1.00  0.00    -0.390 OA
ATOM     33  H8  UNL     1       1.268   1.379  16.687  1.00  0.00     0.210 HD
ENDBRANCH   5  32
BRANCH   6  34
HETATM   34  O9  UNL     1       0.044   1.119  14.626  1.00  0.00    -0.390 OA
ATOM     35  H9  UNL     1       0.688   0.423  14.681  1.00  0.00     0.210 HD
ENDBRANCH   6  34
TORSDOF 14
ENDMDL
MODEL 4
REMARK VINA RESULT: -8.110334553      1.649      2.875
REMARK  14 active torsions:
REMARK  status: ('A' for Active; 'I' for Inactive)
REMARK    1  A    between atoms: C2_2  and  C3_3 
REMARK    2  A    between atoms: C3_3  and  C4_4 
REMARK    3  A    between atoms: C4_4  and  C5_5 
REMARK    4  A    between atoms: C5_5  and  C6_6 
REMARK    5  A    between atoms: C6_6  and  S1_7 
REMARK    6  A    between atoms: S1_7  and  C7_8 
REMARK    7  A    between atoms: C7_8  and  C8_9 
REMARK    8  A    between atoms: C9_11  and  O2_12 
REMARK    9  A    between atoms: O2_12  and  C10_13 
REMARK   10  A    between atoms: C16_21  and  O5_22 
REMARK   11  A    between atoms: C17_24  and  O6_25 
REMARK   12  A    between atoms: C18_27  and  O7_28 
REMARK   13  A    between atoms: C19_30  and  O8_31 
REMARK   14  A    between atoms: C20_33  and  O9_34 
ROOT
HETATM    1  C8  UNL     1      -1.927   1.030  15.388  1.00  0.00     0.165 C 
HETATM    2  O1  UNL     1      -2.912   1.532  16.190  1.00  0.00    -0.350 OA
HETATM    3  C9  UNL     1      -2.659   1.372  17.550  1.00  0.00     0.294 C 
HETATM    4  C18 UNL     1      -1.529   2.295  17.969  1.00  0.00     0.204 C 
HETATM    5  C19 UNL     1      -0.379   2.110  17.030  1.00  0.00     0.183 C 
HETATM    6  C20 UNL     1      -0.573   0.976  16.052  1.00  0.00     0.179 C 
ENDROOT
BRANCH   3   7
HETATM    7  O2  UNL     1      -2.415   0.069  17.905  1.00  0.00    -0.326 OA
BRANCH   7   8
HETATM    8  C10 UNL     1      -3.265  -0.456  18.857  1.00  0.00     0.294 C 
HETATM    9  O3  UNL     1      -2.615  -1.430  19.646  1.00  0.00    -0.347 OA
HETATM   10  C11 UNL     1      -1.914  -2.259  18.772  1.00  0.00     0.190 C 
HETATM   11  C12 UNL     1      -2.891  -2.839  17.800  1.00  0.00     0.186 C 
HETATM   12  C13 UNL     1      -1.652  -3.655  19.227  1.00  0.00     0.083 C 
HETATM   13  O4  UNL     1      -2.450  -4.114  18.161  1.00  0.00    -0.368 OA
HETATM   14  C16 UNL     1      -4.323  -2.566  18.230  1.00  0.00     0.183 C 
HETATM   15  C17 UNL     1      -4.513  -1.065  18.214  1.00  0.00     0.204 C 
HETATM   16  C14 UNL     1      -0.212  -4.095  18.942  1.00  0.00     0.048 C 
HETATM   17  C15 UNL     1      -2.177  -4.061  20.563  1.00  0.00     0.048 C 
BRANCH  14  18
HETATM   18  O5  UNL     1      -5.211  -3.216  17.390  1.00  0.00    -0.390 OA
ATOM     19  H5  UNL     1      -5.953  -3.545  17.884  1.00  0.00     0.210 HD
ENDBRANCH  14  18
BRANCH  15  20
HETATM   20  O6  UNL     1      -4.673  -0.663  16.907  1.00  0.00    -0.388 OA
ATOM     21  H6  UNL     1      -4.475  -1.358  16.291  1.00  0.00     0.210 HD
ENDBRANCH  15  20
ENDBRANCH   7   8
ENDBRANCH   3   7
BRANCH   4  22
HETATM   22  O7  UNL     1      -2.021   3.600  17.936  1.00  0.00    -0.388 OA
ATOM     23  H7  UNL     1      -1.940   3.913  17.043  1.00  0.00     0.210 HD
ENDBRANCH   4  22
BRANCH   1  24
HETATM   24  C7  UNL     1      -1.810   1.741  14.062  1.00  0.00     0.108 C 
BRANCH  24  25
HETATM   25  S1  UNL     1      -2.480   3.395  14.140  1.00  0.00    -0.166 SA
BRANCH  25  26
HETATM   26  C6  UNL     1      -4.119   3.568  13.462  1.00  0.00     0.074 C 
BRANCH  26  27
HETATM   27  C5  UNL     1      -5.004   2.370  13.697  1.00  0.00     0.010 C 
BRANCH  27  28
HETATM   28  C4  UNL     1      -6.191   2.445  12.770  1.00  0.00     0.001 C 
BRANCH  28  29
HETATM   29  C3  UNL     1      -6.422   1.175  12.009  1.00  0.00    -0.000 C 
BRANCH  29  30
HETATM   30  C2  UNL     1      -5.572   0.025  12.544  1.00  0.00    -0.005 C 
HETATM   31  C1  UNL     1      -4.923  -0.651  11.356  1.00  0.00     0.005 C 
ENDBRANCH  29  30
ENDBRANCH  28  29
ENDBRANCH  27  28
ENDBRANCH  26  27
ENDBRANCH  25  26
ENDBRANCH  24  25
ENDBRANCH   1  24
BRANCH   5  32
HETATM   32  O8  UNL     1       0.773   1.870  17.775  1.00  0.00    -0.390 OA
ATOM     33  H8  UNL     1       1.402   2.558  17.595  1.00  0.00     0.210 HD
ENDBRANCH   5  32
BRANCH   6  34
HETATM   34  O9  UNL     1       0.397   1.139  15.052  1.00  0.00    -0.390 OA
ATOM     35  H9  UNL     1       0.583   0.280  14.688  1.00  0.00     0.210 HD
ENDBRANCH   6  34
TORSDOF 14
ENDMDL
MODEL 5
REMARK VINA RESULT: -7.897929516      1.822      3.730
REMARK  14 active torsions:
REMARK  status: ('A' for Active; 'I' for Inactive)
REMARK    1  A    between atoms: C2_2  and  C3_3 
REMARK    2  A    between atoms: C3_3  and  C4_4 
REMARK    3  A    between atoms: C4_4  and  C5_5 
REMARK    4  A    between atoms: C5_5  and  C6_6 
REMARK    5  A    between atoms: C6_6  and  S1_7 
REMARK    6  A    between atoms: S1_7  and  C7_8 
REMARK    7  A    between atoms: C7_8  and  C8_9 
REMARK    8  A    between atoms: C9_11  and  O2_12 
REMARK    9  A    between atoms: O2_12  and  C10_13 
REMARK   10  A    between atoms: C16_21  and  O5_22 
REMARK   11  A    between atoms: C17_24  and  O6_25 
REMARK   12  A    between atoms: C18_27  and  O7_28 
REMARK   13  A    between atoms: C19_30  and  O8_31 
REMARK   14  A    between atoms: C20_33  and  O9_34 
ROOT
HETATM    1  C8  UNL     1      -2.743  -0.395  16.560  1.00  0.00     0.165 C 
HETATM    2  O1  UNL     1      -3.218   0.321  17.622  1.00  0.00    -0.350 OA
HETATM    3  C9  UNL     1      -2.992  -0.291  18.852  1.00  0.00     0.294 C 
HETATM    4  C18 UNL     1      -1.511  -0.236  19.181  1.00  0.00     0.204 C 
HETATM    5  C19 UNL     1      -0.735  -0.745  18.008  1.00  0.00     0.183 C 
HETATM    6  C20 UNL     1      -1.600  -1.315  16.911  1.00  0.00     0.179 C 
ENDROOT
BRANCH   3   7
HETATM    7  O2  UNL     1      -3.485  -1.570  18.918  1.00  0.00    -0.326 OA
BRANCH   7   8
HETATM    8  C10 UNL     1      -3.649  -2.076  20.192  1.00  0.00     0.294 C 
HETATM    9  O3  UNL     1      -2.764  -3.148  20.437  1.00  0.00    -0.347 OA
HETATM   10  C11 UNL     1      -2.815  -3.980  19.320  1.00  0.00     0.190 C 
HETATM   11  C12 UNL     1      -4.233  -4.414  19.130  1.00  0.00     0.186 C 
HETATM   12  C13 UNL     1      -2.481  -5.419  19.531  1.00  0.00     0.083 C 
HETATM   13  O4  UNL     1      -3.801  -5.742  19.158  1.00  0.00    -0.368 OA
HETATM   14  C16 UNL     1      -5.087  -4.045  20.331  1.00  0.00     0.183 C 
HETATM   15  C17 UNL     1      -5.090  -2.535  20.428  1.00  0.00     0.204 C 
HETATM   16  C14 UNL     1      -1.552  -5.963  18.441  1.00  0.00     0.048 C 
HETATM   17  C15 UNL     1      -2.145  -5.859  20.916  1.00  0.00     0.048 C 
BRANCH  14  18
HETATM   18  O5  UNL     1      -6.363  -4.564  20.194  1.00  0.00    -0.390 OA
ATOM     19  H5  UNL     1      -6.899  -4.328  20.942  1.00  0.00     0.210 HD
ENDBRANCH  14  18
BRANCH  15  20
HETATM   20  O6  UNL     1      -5.955  -2.042  19.476  1.00  0.00    -0.388 OA
ATOM     21  H6  UNL     1      -6.613  -2.679  19.227  1.00  0.00     0.210 HD
ENDBRANCH  15  20
ENDBRANCH   7   8
ENDBRANCH   3   7
BRANCH   4  22
HETATM   22  O7  UNL     1      -1.197   1.091  19.476  1.00  0.00    -0.388 OA
ATOM     23  H7  UNL     1      -1.823   1.641  19.021  1.00  0.00     0.210 HD
ENDBRANCH   4  22
BRANCH   1  24
HETATM   24  C7  UNL     1      -2.355   0.464  15.380  1.00  0.00     0.108 C 
BRANCH  24  25
HETATM   25  S1  UNL     1      -3.479   0.244  14.008  1.00  0.00    -0.166 SA
BRANCH  25  26
HETATM   26  C6  UNL     1      -4.319   1.727  13.488  1.00  0.00     0.074 C 
BRANCH  26  27
HETATM   27  C5  UNL     1      -4.185   2.874  14.458  1.00  0.00     0.010 C 
BRANCH  27  28
HETATM   28  C4  UNL     1      -3.217   3.885  13.897  1.00  0.00     0.001 C 
BRANCH  28  29
HETATM   29  C3  UNL     1      -2.048   4.139  14.799  1.00  0.00    -0.000 C 
BRANCH  29  30
HETATM   30  C2  UNL     1      -0.771   4.428  14.012  1.00  0.00    -0.005 C 
HETATM   31  C1  UNL     1      -0.067   3.107  13.789  1.00  0.00     0.005 C 
ENDBRANCH  29  30
ENDBRANCH  28  29
ENDBRANCH  27  28
ENDBRANCH  26  27
ENDBRANCH  25  26
ENDBRANCH  24  25
ENDBRANCH   1  24
BRANCH   5  32
HETATM   32  O8  UNL     1       0.144  -1.732  18.447  1.00  0.00    -0.390 OA
ATOM     33  H8  UNL     1       0.721  -1.358  19.102  1.00  0.00     0.210 HD
ENDBRANCH   5  32
BRANCH   6  34
HETATM   34  O9  UNL     1      -0.784  -1.432  15.776  1.00  0.00    -0.390 OA
ATOM     35  H9  UNL     1       0.085  -1.678  16.070  1.00  0.00     0.210 HD
ENDBRANCH   6  34
TORSDOF 14
ENDMDL
