MODEL 1
REMARK VINA RESULT: -5.063271097      0.000      0.000
REMARK  0 active torsions:
REMARK  status: ('A' for Active; 'I' for Inactive)
REMARK       I    between atoms: N2_5  and  C3_7 
ROOT
HETATM    1  C1  UNL     1      22.304   8.322  12.465  1.00  0.00     0.038 C 
HETATM    2  C2  UNL     1      23.235   9.107  12.500  1.00  0.00     0.015 C 
HETATM    3  N1  UNL     1      24.307  10.006  12.563  1.00  0.00    -0.257 N 
ATOM      4  H1  UNL     1      25.250   9.672  12.362  1.00  0.00     0.197 HD
HETATM    5  N2  UNL     1      24.132  11.224  12.863  1.00  0.00    -0.266 N 
ATOM      6  H2  UNL     1      23.202  11.589  13.069  1.00  0.00     0.190 HD
HETATM    7  C3  UNL     1      25.275  12.063  12.903  1.00  0.00     0.203 C 
HETATM    8  N3  UNL     1      25.394  13.033  13.916  1.00  0.00    -0.062 NA
HETATM    9  N4  UNL     1      26.161  11.888  11.990  1.00  0.00    -0.368 N 
ATOM     10  H4  UNL     1      25.992  11.162  11.294  1.00  0.00     0.161 HD
HETATM   11  C4  UNL     1      27.382  12.656  11.885  1.00  0.00     0.148 C 
ENDROOT
TORSDOF 0
ENDMDL
MODEL 2
REMARK VINA RESULT: -5.026476821      1.066      1.552
REMARK  0 active torsions:
REMARK  status: ('A' for Active; 'I' for Inactive)
REMARK       I    between atoms: N2_5  and  C3_7 
ROOT
HETATM    1  C1  UNL     1      22.226   8.147  12.514  1.00  0.00     0.038 C 
HETATM    2  C2  UNL     1      22.954   9.115  12.653  1.00  0.00     0.015 C 
HETATM    3  N1  UNL     1      23.778  10.238  12.795  1.00  0.00    -0.257 N 
ATOM      4  H1  UNL     1      23.529  10.957  13.474  1.00  0.00     0.197 HD
HETATM    5  N2  UNL     1      24.827  10.380  12.099  1.00  0.00    -0.266 N 
ATOM      6  H2  UNL     1      25.104   9.680  11.411  1.00  0.00     0.190 HD
HETATM    7  C3  UNL     1      25.603  11.549  12.308  1.00  0.00     0.203 C 
HETATM    8  N3  UNL     1      26.179  12.211  11.208  1.00  0.00    -0.062 NA
HETATM    9  N4  UNL     1      25.742  11.949  13.521  1.00  0.00    -0.368 N 
ATOM     10  H4  UNL     1      25.289  11.407  14.256  1.00  0.00     0.161 HD
HETATM   11  C4  UNL     1      26.499  13.119  13.909  1.00  0.00     0.148 C 
ENDROOT
TORSDOF 0
ENDMDL
MODEL 3
REMARK VINA RESULT: -4.926853537      1.729      1.918
REMARK  0 active torsions:
REMARK  status: ('A' for Active; 'I' for Inactive)
REMARK       I    between atoms: N2_5  and  C3_7 
ROOT
HETATM    1  C1  UNL     1      23.091   9.874  11.255  1.00  0.00     0.038 C 
HETATM    2  C2  UNL     1      23.903  10.415  11.985  1.00  0.00     0.015 C 
HETATM    3  N1  UNL     1      24.820  11.047  12.834  1.00  0.00    -0.257 N 
ATOM      4  H1  UNL     1      25.092  10.591  13.704  1.00  0.00     0.197 HD
HETATM    5  N2  UNL     1      25.319  12.176  12.544  1.00  0.00    -0.266 N 
ATOM      6  H2  UNL     1      25.068  12.659  11.682  1.00  0.00     0.190 HD
HETATM    7  C3  UNL     1      26.240  12.743  13.462  1.00  0.00     0.203 C 
HETATM    8  N3  UNL     1      26.201  14.126  13.724  1.00  0.00    -0.062 NA
HETATM    9  N4  UNL     1      27.078  11.945  14.018  1.00  0.00    -0.368 N 
ATOM     10  H4  UNL     1      27.034  10.958  13.769  1.00  0.00     0.161 HD
HETATM   11  C4  UNL     1      28.082  12.359  14.974  1.00  0.00     0.148 C 
ENDROOT
TORSDOF 0
ENDMDL
MODEL 4
REMARK VINA RESULT: -4.772254086      1.407      4.512
REMARK  0 active torsions:
REMARK  status: ('A' for Active; 'I' for Inactive)
REMARK       I    between atoms: N2_5  and  C3_7 
ROOT
HETATM    1  C1  UNL     1      26.445  13.415  13.637  1.00  0.00     0.038 C 
HETATM    2  C2  UNL     1      25.777  12.439  13.344  1.00  0.00     0.015 C 
HETATM    3  N1  UNL     1      25.024  11.313  12.990  1.00  0.00    -0.257 N 
ATOM      4  H1  UNL     1      25.224  10.418  13.436  1.00  0.00     0.197 HD
HETATM    5  N2  UNL     1      24.099  11.381  12.127  1.00  0.00    -0.266 N 
ATOM      6  H2  UNL     1      23.874  12.261  11.662  1.00  0.00     0.190 HD
HETATM    7  C3  UNL     1      23.387  10.191  11.829  1.00  0.00     0.203 C 
HETATM    8  N3  UNL     1      23.025   9.908  10.499  1.00  0.00    -0.062 NA
HETATM    9  N4  UNL     1      23.106   9.417  12.814  1.00  0.00    -0.368 N 
ATOM     10  H4  UNL     1      23.408   9.700  13.746  1.00  0.00     0.161 HD
HETATM   11  C4  UNL     1      22.387   8.167  12.686  1.00  0.00     0.148 C 
ENDROOT
TORSDOF 0
ENDMDL
MODEL 5
REMARK VINA RESULT: -4.625151980      1.057      1.057
REMARK  0 active torsions:
REMARK  status: ('A' for Active; 'I' for Inactive)
REMARK       I    between atoms: N2_5  and  C3_7 
ROOT
HETATM    1  C1  UNL     1      22.480   8.377  12.647  1.00  0.00     0.038 C 
HETATM    2  C2  UNL     1      23.304   9.219  12.334  1.00  0.00     0.015 C 
HETATM    3  N1  UNL     1      24.268  10.172  11.982  1.00  0.00    -0.257 N 
ATOM      4  H1  UNL     1      24.593  10.218  11.016  1.00  0.00     0.197 HD
HETATM    5  N2  UNL     1      24.745  10.977  12.836  1.00  0.00    -0.266 N 
ATOM      6  H2  UNL     1      24.441  10.956  13.810  1.00  0.00     0.190 HD
HETATM    7  C3  UNL     1      25.717  11.909  12.391  1.00  0.00     0.203 C 
HETATM    8  N3  UNL     1      26.824  12.206  13.208  1.00  0.00    -0.062 NA
HETATM    9  N4  UNL     1      25.529  12.444  11.239  1.00  0.00    -0.368 N 
ATOM     10  H4  UNL     1      24.699  12.170  10.715  1.00  0.00     0.161 HD
HETATM   11  C4  UNL     1      26.421  13.411  10.637  1.00  0.00     0.148 C 
ENDROOT
TORSDOF 0
ENDMDL
