MODEL 1
REMARK VINA RESULT: -8.475013617      0.000      0.000
REMARK  12 active torsions:
REMARK  status: ('A' for Active; 'I' for Inactive)
REMARK    1  A    between atoms: C3_4  and  O2_5 
REMARK    2  A    between atoms: O2_5  and  C4_6 
REMARK    3  A    between atoms: C10_12  and  C11_13 
REMARK    4  A    between atoms: C11_13  and  C12_14 
REMARK    5  A    between atoms: C12_14  and  O3_17 
REMARK    6  A    between atoms: C19_23  and  C20_24 
REMARK    7  A    between atoms: C20_24  and  O4_25 
REMARK    8  A    between atoms: C21_27  and  O5_28 
REMARK    9  A    between atoms: O5_28  and  C22_29 
REMARK   10  A    between atoms: C22_29  and  C23_30 
REMARK   11  A    between atoms: C23_30  and  C24_31 
REMARK   12  A    between atoms: C24_31  and  C25_32 
ROOT
HETATM    1  C1  UNL     1      48.513  56.960  17.061  1.00  0.00     0.042 C 
HETATM    2  C2  UNL     1      49.089  56.829  18.423  1.00  0.00     0.150 C 
HETATM    3  O1  UNL     1      50.457  56.551  18.441  1.00  0.00    -0.354 OA
HETATM    4  C3  UNL     1      50.777  56.003  19.682  1.00  0.00     0.261 C 
HETATM    5  C18 UNL     1      50.464  56.977  20.829  1.00  0.00     0.070 C 
HETATM    6  C19 UNL     1      49.023  57.440  20.744  1.00  0.00     0.045 C 
HETATM    7  C21 UNL     1      48.896  58.031  19.323  1.00  0.00     0.156 C 
ENDROOT
BRANCH   4   8
HETATM    8  O2  UNL     1      50.030  54.883  19.868  1.00  0.00    -0.350 OA
BRANCH   8   9
HETATM    9  C4  UNL     1      50.594  53.688  19.530  1.00  0.00     0.065 C 
HETATM   10  C5  UNL     1      50.777  52.727  20.667  1.00  0.00     0.043 C 
HETATM   11  C6  UNL     1      51.518  51.526  20.125  1.00  0.00    -0.011 C 
HETATM   12  C7  UNL     1      52.858  51.868  19.560  1.00  0.00     0.009 C 
HETATM   13  C15 UNL     1      50.726  50.818  19.044  1.00  0.00     0.014 C 
HETATM   14  C8  UNL     1      52.634  52.805  18.387  1.00  0.00    -0.011 C 
HETATM   15  C9  UNL     1      51.766  52.160  17.324  1.00  0.00     0.014 C 
HETATM   16  C17 UNL     1      51.966  54.026  18.945  1.00  0.00     0.043 C 
HETATM   17  C10 UNL     1      50.434  51.758  17.897  1.00  0.00    -0.034 C 
HETATM   18  C16 UNL     1      49.810  53.051  18.460  1.00  0.00     0.048 C 
BRANCH  17  19
HETATM   19  C11 UNL     1      49.416  51.294  16.953  1.00  0.00     0.046 C 
BRANCH  19  20
HETATM   20  C12 UNL     1      49.542  50.105  16.136  1.00  0.00     0.051 C 
HETATM   21  C13 UNL     1      50.427  50.239  14.920  1.00  0.00     0.045 C 
HETATM   22  C14 UNL     1      48.137  49.790  15.570  1.00  0.00     0.045 C 
BRANCH  20  23
HETATM   23  O3  UNL     1      49.900  48.930  16.781  1.00  0.00    -0.391 OA
ATOM     24  H3  UNL     1      49.234  48.256  16.854  1.00  0.00     0.210 HD
ENDBRANCH  20  23
ENDBRANCH  19  20
ENDBRANCH  17  19
ENDBRANCH   8   9
ENDBRANCH   4   8
BRANCH   6  25
HETATM   25  C20 UNL     1      48.809  58.456  21.816  1.00  0.00     0.171 C 
BRANCH  25  26
HETATM   26  O4  UNL     1      49.893  58.616  22.668  1.00  0.00    -0.400 OA
ATOM     27  H4  UNL     1      49.660  58.912  23.540  1.00  0.00     0.209 HD
ENDBRANCH  25  26
ENDBRANCH   6  25
BRANCH   7  28
HETATM   28  O5  UNL     1      47.725  58.694  19.121  1.00  0.00    -0.383 OA
BRANCH  28  29
HETATM   29  C22 UNL     1      47.830  60.039  18.792  1.00  0.00     0.168 C 
BRANCH  29  30
HETATM   30  C23 UNL     1      46.572  60.820  18.827  1.00  0.00     0.035 C 
BRANCH  30  31
HETATM   31  C24 UNL     1      46.865  62.292  18.776  1.00  0.00     0.101 C 
BRANCH  31  32
HETATM   32  C25 UNL     1      47.109  62.718  17.385  1.00  0.00     0.231 C 
HETATM   33  N1  UNL     1      46.093  62.363  16.431  1.00  0.00    -0.062 NA
HETATM   34  O6  UNL     1      48.114  63.350  17.010  1.00  0.00    -0.277 OA
ENDBRANCH  31  32
ENDBRANCH  30  31
ENDBRANCH  29  30
ENDBRANCH  28  29
ENDBRANCH   7  28
TORSDOF 12
ENDMDL
MODEL 2
REMARK VINA RESULT: -8.424789646      4.043      9.247
REMARK  12 active torsions:
REMARK  status: ('A' for Active; 'I' for Inactive)
REMARK    1  A    between atoms: C3_4  and  O2_5 
REMARK    2  A    between atoms: O2_5  and  C4_6 
REMARK    3  A    between atoms: C10_12  and  C11_13 
REMARK    4  A    between atoms: C11_13  and  C12_14 
REMARK    5  A    between atoms: C12_14  and  O3_17 
REMARK    6  A    between atoms: C19_23  and  C20_24 
REMARK    7  A    between atoms: C20_24  and  O4_25 
REMARK    8  A    between atoms: C21_27  and  O5_28 
REMARK    9  A    between atoms: O5_28  and  C22_29 
REMARK   10  A    between atoms: C22_29  and  C23_30 
REMARK   11  A    between atoms: C23_30  and  C24_31 
REMARK   12  A    between atoms: C24_31  and  C25_32 
ROOT
HETATM    1  C1  UNL     1      46.415  48.810  18.298  1.00  0.00     0.042 C 
HETATM    2  C2  UNL     1      47.506  49.400  17.482  1.00  0.00     0.150 C 
HETATM    3  O1  UNL     1      48.789  49.031  17.890  1.00  0.00    -0.354 OA
HETATM    4  C3  UNL     1      49.694  49.966  17.392  1.00  0.00     0.261 C 
HETATM    5  C18 UNL     1      49.668  50.017  15.856  1.00  0.00     0.070 C 
HETATM    6  C19 UNL     1      48.253  50.247  15.363  1.00  0.00     0.045 C 
HETATM    7  C21 UNL     1      47.437  49.101  16.000  1.00  0.00     0.156 C 
ENDROOT
BRANCH   4   8
HETATM    8  O2  UNL     1      49.349  51.195  17.858  1.00  0.00    -0.350 OA
BRANCH   8   9
HETATM    9  C4  UNL     1      50.313  51.921  18.493  1.00  0.00     0.065 C 
HETATM   10  C5  UNL     1      51.515  52.250  17.658  1.00  0.00     0.043 C 
HETATM   11  C6  UNL     1      52.512  52.941  18.560  1.00  0.00    -0.011 C 
HETATM   12  C7  UNL     1      52.943  52.098  19.715  1.00  0.00     0.009 C 
HETATM   13  C15 UNL     1      51.963  54.241  19.114  1.00  0.00     0.014 C 
HETATM   14  C8  UNL     1      51.714  51.820  20.561  1.00  0.00    -0.011 C 
HETATM   15  C9  UNL     1      51.083  53.106  21.058  1.00  0.00     0.014 C 
HETATM   16  C17 UNL     1      50.759  51.068  19.682  1.00  0.00     0.043 C 
HETATM   17  C10 UNL     1      50.698  53.990  19.902  1.00  0.00    -0.034 C 
HETATM   18  C16 UNL     1      49.730  53.156  19.038  1.00  0.00     0.048 C 
BRANCH  17  19
HETATM   19  C11 UNL     1      49.908  55.182  20.211  1.00  0.00     0.046 C 
BRANCH  19  20
HETATM   20  C12 UNL     1      50.468  56.435  20.675  1.00  0.00     0.051 C 
HETATM   21  C13 UNL     1      51.276  56.358  21.947  1.00  0.00     0.045 C 
HETATM   22  C14 UNL     1      49.280  57.366  21.017  1.00  0.00     0.045 C 
BRANCH  20  23
HETATM   23  O3  UNL     1      51.203  57.175  19.761  1.00  0.00    -0.391 OA
ATOM     24  H3  UNL     1      51.119  58.121  19.803  1.00  0.00     0.210 HD
ENDBRANCH  20  23
ENDBRANCH  19  20
ENDBRANCH  17  19
ENDBRANCH   8   9
ENDBRANCH   4   8
BRANCH   6  25
HETATM   25  C20 UNL     1      48.275  50.185  13.872  1.00  0.00     0.171 C 
BRANCH  25  26
HETATM   26  O4  UNL     1      47.078  50.551  13.273  1.00  0.00    -0.400 OA
ATOM     27  H4  UNL     1      47.001  50.283  12.366  1.00  0.00     0.209 HD
ENDBRANCH  25  26
ENDBRANCH   6  25
BRANCH   7  28
HETATM   28  O5  UNL     1      46.171  49.008  15.509  1.00  0.00    -0.383 OA
BRANCH  28  29
HETATM   29  C22 UNL     1      45.847  47.820  14.868  1.00  0.00     0.168 C 
BRANCH  29  30
HETATM   30  C23 UNL     1      44.875  47.922  13.756  1.00  0.00     0.035 C 
BRANCH  30  31
HETATM   31  C24 UNL     1      45.240  46.976  12.648  1.00  0.00     0.101 C 
BRANCH  31  32
HETATM   32  C25 UNL     1      45.844  47.714  11.522  1.00  0.00     0.231 C 
HETATM   33  N1  UNL     1      46.504  46.912  10.528  1.00  0.00    -0.062 NA
HETATM   34  O6  UNL     1      45.808  48.951  11.394  1.00  0.00    -0.277 OA
ENDBRANCH  31  32
ENDBRANCH  30  31
ENDBRANCH  29  30
ENDBRANCH  28  29
ENDBRANCH   7  28
TORSDOF 12
ENDMDL
MODEL 3
REMARK VINA RESULT: -8.394717504      3.451      8.714
REMARK  12 active torsions:
REMARK  status: ('A' for Active; 'I' for Inactive)
REMARK    1  A    between atoms: C3_4  and  O2_5 
REMARK    2  A    between atoms: O2_5  and  C4_6 
REMARK    3  A    between atoms: C10_12  and  C11_13 
REMARK    4  A    between atoms: C11_13  and  C12_14 
REMARK    5  A    between atoms: C12_14  and  O3_17 
REMARK    6  A    between atoms: C19_23  and  C20_24 
REMARK    7  A    between atoms: C20_24  and  O4_25 
REMARK    8  A    between atoms: C21_27  and  O5_28 
REMARK    9  A    between atoms: O5_28  and  C22_29 
REMARK   10  A    between atoms: C22_29  and  C23_30 
REMARK   11  A    between atoms: C23_30  and  C24_31 
REMARK   12  A    between atoms: C24_31  and  C25_32 
ROOT
HETATM    1  C1  UNL     1      50.557  49.219  20.906  1.00  0.00     0.042 C 
HETATM    2  C2  UNL     1      50.606  50.416  20.030  1.00  0.00     0.150 C 
HETATM    3  O1  UNL     1      51.885  50.951  19.863  1.00  0.00    -0.354 OA
HETATM    4  C3  UNL     1      51.757  52.272  19.441  1.00  0.00     0.261 C 
HETATM    5  C18 UNL     1      51.010  52.370  18.101  1.00  0.00     0.070 C 
HETATM    6  C19 UNL     1      49.680  51.648  18.189  1.00  0.00     0.045 C 
HETATM    7  C21 UNL     1      50.051  50.218  18.635  1.00  0.00     0.156 C 
ENDROOT
BRANCH   4   8
HETATM    8  O2  UNL     1      51.040  52.957  20.371  1.00  0.00    -0.350 OA
BRANCH   8   9
HETATM    9  C4  UNL     1      51.248  54.302  20.460  1.00  0.00     0.065 C 
HETATM   10  C5  UNL     1      52.302  54.845  19.543  1.00  0.00     0.043 C 
HETATM   11  C6  UNL     1      52.472  56.311  19.872  1.00  0.00    -0.011 C 
HETATM   12  C7  UNL     1      52.890  56.552  21.285  1.00  0.00     0.009 C 
HETATM   13  C15 UNL     1      51.197  57.093  19.625  1.00  0.00     0.014 C 
HETATM   14  C8  UNL     1      51.783  56.031  22.184  1.00  0.00    -0.011 C 
HETATM   15  C9  UNL     1      50.468  56.729  21.901  1.00  0.00     0.014 C 
HETATM   16  C17 UNL     1      51.672  54.562  21.907  1.00  0.00     0.043 C 
HETATM   17  C10 UNL     1      50.066  56.542  20.462  1.00  0.00    -0.034 C 
HETATM   18  C16 UNL     1      49.981  55.018  20.243  1.00  0.00     0.048 C 
BRANCH  17  19
HETATM   19  C11 UNL     1      48.728  56.996  20.081  1.00  0.00     0.046 C 
BRANCH  19  20
HETATM   20  C12 UNL     1      48.161  58.274  20.461  1.00  0.00     0.051 C 
HETATM   21  C13 UNL     1      46.663  58.294  20.648  1.00  0.00     0.045 C 
HETATM   22  C14 UNL     1      48.427  59.256  19.295  1.00  0.00     0.045 C 
BRANCH  20  23
HETATM   23  O3  UNL     1      48.723  58.915  21.555  1.00  0.00    -0.391 OA
ATOM     24  H3  UNL     1      48.918  58.383  22.317  1.00  0.00     0.210 HD
ENDBRANCH  20  23
ENDBRANCH  19  20
ENDBRANCH  17  19
ENDBRANCH   8   9
ENDBRANCH   4   8
BRANCH   6  25
HETATM   25  C20 UNL     1      49.051  51.690  16.837  1.00  0.00     0.171 C 
BRANCH  25  26
HETATM   26  O4  UNL     1      49.915  51.361  15.801  1.00  0.00    -0.400 OA
ATOM     27  H4  UNL     1      49.863  50.452  15.528  1.00  0.00     0.209 HD
ENDBRANCH  25  26
ENDBRANCH   6  25
BRANCH   7  28
HETATM   28  O5  UNL     1      49.007  49.348  18.571  1.00  0.00    -0.383 OA
BRANCH  28  29
HETATM   29  C22 UNL     1      49.064  48.393  17.565  1.00  0.00     0.168 C 
BRANCH  29  30
HETATM   30  C23 UNL     1      47.771  48.012  16.951  1.00  0.00     0.035 C 
BRANCH  30  31
HETATM   31  C24 UNL     1      46.681  48.943  17.401  1.00  0.00     0.101 C 
BRANCH  31  32
HETATM   32  C25 UNL     1      45.580  48.180  18.018  1.00  0.00     0.231 C 
HETATM   33  N1  UNL     1      45.714  47.910  19.424  1.00  0.00    -0.062 NA
HETATM   34  O6  UNL     1      44.574  47.778  17.405  1.00  0.00    -0.277 OA
ENDBRANCH  31  32
ENDBRANCH  30  31
ENDBRANCH  29  30
ENDBRANCH  28  29
ENDBRANCH   7  28
TORSDOF 12
ENDMDL
MODEL 4
REMARK VINA RESULT: -8.283685578      3.306      8.731
REMARK  12 active torsions:
REMARK  status: ('A' for Active; 'I' for Inactive)
REMARK    1  A    between atoms: C3_4  and  O2_5 
REMARK    2  A    between atoms: O2_5  and  C4_6 
REMARK    3  A    between atoms: C10_12  and  C11_13 
REMARK    4  A    between atoms: C11_13  and  C12_14 
REMARK    5  A    between atoms: C12_14  and  O3_17 
REMARK    6  A    between atoms: C19_23  and  C20_24 
REMARK    7  A    between atoms: C20_24  and  O4_25 
REMARK    8  A    between atoms: C21_27  and  O5_28 
REMARK    9  A    between atoms: O5_28  and  C22_29 
REMARK   10  A    between atoms: C22_29  and  C23_30 
REMARK   11  A    between atoms: C23_30  and  C24_31 
REMARK   12  A    between atoms: C24_31  and  C25_32 
ROOT
HETATM    1  C1  UNL     1      50.708  49.074  20.661  1.00  0.00     0.042 C 
HETATM    2  C2  UNL     1      50.570  50.188  19.689  1.00  0.00     0.150 C 
HETATM    3  O1  UNL     1      51.767  50.848  19.402  1.00  0.00    -0.354 OA
HETATM    4  C3  UNL     1      51.461  52.105  18.884  1.00  0.00     0.261 C 
HETATM    5  C18 UNL     1      50.641  52.000  17.588  1.00  0.00     0.070 C 
HETATM    6  C19 UNL     1      49.412  51.141  17.815  1.00  0.00     0.045 C 
HETATM    7  C21 UNL     1      49.973  49.807  18.351  1.00  0.00     0.156 C 
ENDROOT
BRANCH   4   8
HETATM    8  O2  UNL     1      50.716  52.781  19.797  1.00  0.00    -0.350 OA
BRANCH   8   9
HETATM    9  C4  UNL     1      51.006  54.100  19.994  1.00  0.00     0.065 C 
HETATM   10  C5  UNL     1      51.962  54.695  19.003  1.00  0.00     0.043 C 
HETATM   11  C6  UNL     1      52.252  56.109  19.452  1.00  0.00    -0.011 C 
HETATM   12  C7  UNL     1      52.861  56.180  20.815  1.00  0.00     0.009 C 
HETATM   13  C15 UNL     1      51.001  56.964  19.459  1.00  0.00     0.014 C 
HETATM   14  C8  UNL     1      51.852  55.611  21.796  1.00  0.00    -0.011 C 
HETATM   15  C9  UNL     1      50.551  56.388  21.763  1.00  0.00     0.014 C 
HETATM   16  C17 UNL     1      51.626  54.185  21.389  1.00  0.00     0.043 C 
HETATM   17  C10 UNL     1      49.958  56.373  20.379  1.00  0.00    -0.034 C 
HETATM   18  C16 UNL     1      49.763  54.886  20.021  1.00  0.00     0.048 C 
BRANCH  17  19
HETATM   19  C11 UNL     1      48.609  56.920  20.228  1.00  0.00     0.046 C 
BRANCH  19  20
HETATM   20  C12 UNL     1      48.245  58.289  20.527  1.00  0.00     0.051 C 
HETATM   21  C13 UNL     1      48.736  58.821  21.851  1.00  0.00     0.045 C 
HETATM   22  C14 UNL     1      46.701  58.339  20.628  1.00  0.00     0.045 C 
BRANCH  20  23
HETATM   23  O3  UNL     1      48.534  59.245  19.564  1.00  0.00    -0.391 OA
ATOM     24  H3  UNL     1      49.295  59.092  19.016  1.00  0.00     0.210 HD
ENDBRANCH  20  23
ENDBRANCH  19  20
ENDBRANCH  17  19
ENDBRANCH   8   9
ENDBRANCH   4   8
BRANCH   6  25
HETATM   25  C20 UNL     1      48.714  50.992  16.503  1.00  0.00     0.171 C 
BRANCH  25  26
HETATM   26  O4  UNL     1      49.073  49.851  15.799  1.00  0.00    -0.400 OA
ATOM     27  H4  UNL     1      48.346  49.420  15.365  1.00  0.00     0.209 HD
ENDBRANCH  25  26
ENDBRANCH   6  25
BRANCH   7  28
HETATM   28  O5  UNL     1      49.037  48.822  18.420  1.00  0.00    -0.383 OA
BRANCH  28  29
HETATM   29  C22 UNL     1      47.915  49.094  19.192  1.00  0.00     0.168 C 
BRANCH  29  30
HETATM   30  C23 UNL     1      46.610  48.720  18.600  1.00  0.00     0.035 C 
BRANCH  30  31
HETATM   31  C24 UNL     1      46.809  47.855  17.388  1.00  0.00     0.101 C 
BRANCH  31  32
HETATM   32  C25 UNL     1      45.752  48.115  16.393  1.00  0.00     0.231 C 
HETATM   33  N1  UNL     1      46.164  48.815  15.207  1.00  0.00    -0.062 NA
HETATM   34  O6  UNL     1      44.564  47.767  16.525  1.00  0.00    -0.277 OA
ENDBRANCH  31  32
ENDBRANCH  30  31
ENDBRANCH  29  30
ENDBRANCH  28  29
ENDBRANCH   7  28
TORSDOF 12
ENDMDL
MODEL 5
REMARK VINA RESULT: -8.251341217      3.810      9.417
REMARK  12 active torsions:
REMARK  status: ('A' for Active; 'I' for Inactive)
REMARK    1  A    between atoms: C3_4  and  O2_5 
REMARK    2  A    between atoms: O2_5  and  C4_6 
REMARK    3  A    between atoms: C10_12  and  C11_13 
REMARK    4  A    between atoms: C11_13  and  C12_14 
REMARK    5  A    between atoms: C12_14  and  O3_17 
REMARK    6  A    between atoms: C19_23  and  C20_24 
REMARK    7  A    between atoms: C20_24  and  O4_25 
REMARK    8  A    between atoms: C21_27  and  O5_28 
REMARK    9  A    between atoms: O5_28  and  C22_29 
REMARK   10  A    between atoms: C22_29  and  C23_30 
REMARK   11  A    between atoms: C23_30  and  C24_31 
REMARK   12  A    between atoms: C24_31  and  C25_32 
ROOT
HETATM    1  C1  UNL     1      46.582  48.832  18.459  1.00  0.00     0.042 C 
HETATM    2  C2  UNL     1      47.622  49.451  17.599  1.00  0.00     0.150 C 
HETATM    3  O1  UNL     1      48.931  49.171  17.994  1.00  0.00    -0.354 OA
HETATM    4  C3  UNL     1      49.772  50.135  17.441  1.00  0.00     0.261 C 
HETATM    5  C18 UNL     1      49.714  50.125  15.905  1.00  0.00     0.070 C 
HETATM    6  C19 UNL     1      48.279  50.255  15.434  1.00  0.00     0.045 C 
HETATM    7  C21 UNL     1      47.542  49.090  16.130  1.00  0.00     0.156 C 
ENDROOT
BRANCH   4   8
HETATM    8  O2  UNL     1      49.365  51.360  17.866  1.00  0.00    -0.350 OA
BRANCH   8   9
HETATM    9  C4  UNL     1      50.278  52.133  18.523  1.00  0.00     0.065 C 
HETATM   10  C5  UNL     1      51.496  52.493  17.727  1.00  0.00     0.043 C 
HETATM   11  C6  UNL     1      52.434  53.236  18.651  1.00  0.00    -0.011 C 
HETATM   12  C7  UNL     1      52.852  52.430  19.837  1.00  0.00     0.009 C 
HETATM   13  C15 UNL     1      51.816  54.524  19.160  1.00  0.00     0.014 C 
HETATM   14  C8  UNL     1      51.603  52.121  20.642  1.00  0.00    -0.011 C 
HETATM   15  C9  UNL     1      50.908  53.390  21.092  1.00  0.00     0.014 C 
HETATM   16  C17 UNL     1      50.711  51.318  19.743  1.00  0.00     0.043 C 
HETATM   17  C10 UNL     1      50.533  54.239  19.906  1.00  0.00    -0.034 C 
HETATM   18  C16 UNL     1      49.630  53.355  19.023  1.00  0.00     0.048 C 
BRANCH  17  19
HETATM   19  C11 UNL     1      49.688  55.406  20.164  1.00  0.00     0.046 C 
BRANCH  19  20
HETATM   20  C12 UNL     1      50.181  56.680  20.643  1.00  0.00     0.051 C 
HETATM   21  C13 UNL     1      51.004  56.629  21.907  1.00  0.00     0.045 C 
HETATM   22  C14 UNL     1      48.946  57.539  21.009  1.00  0.00     0.045 C 
BRANCH  20  23
HETATM   23  O3  UNL     1      50.866  57.475  19.735  1.00  0.00    -0.391 OA
ATOM     24  H3  UNL     1      50.433  58.268  19.441  1.00  0.00     0.210 HD
ENDBRANCH  20  23
ENDBRANCH  19  20
ENDBRANCH  17  19
ENDBRANCH   8   9
ENDBRANCH   4   8
BRANCH   6  25
HETATM   25  C20 UNL     1      48.276  50.135  13.946  1.00  0.00     0.171 C 
BRANCH  25  26
HETATM   26  O4  UNL     1      47.062  50.456  13.355  1.00  0.00    -0.400 OA
ATOM     27  H4  UNL     1      46.824  49.893  12.629  1.00  0.00     0.209 HD
ENDBRANCH  25  26
ENDBRANCH   6  25
BRANCH   7  28
HETATM   28  O5  UNL     1      46.275  48.906  15.671  1.00  0.00    -0.383 OA
BRANCH  28  29
HETATM   29  C22 UNL     1      45.969  47.634  15.205  1.00  0.00     0.168 C 
BRANCH  29  30
HETATM   30  C23 UNL     1      45.311  47.564  13.881  1.00  0.00     0.035 C 
BRANCH  30  31
HETATM   31  C24 UNL     1      44.443  46.342  13.787  1.00  0.00     0.101 C 
BRANCH  31  32
HETATM   32  C25 UNL     1      43.223  46.517  14.596  1.00  0.00     0.231 C 
HETATM   33  N1  UNL     1      42.426  47.674  14.289  1.00  0.00    -0.062 NA
HETATM   34  O6  UNL     1      42.859  45.739  15.497  1.00  0.00    -0.277 OA
ENDBRANCH  31  32
ENDBRANCH  30  31
ENDBRANCH  29  30
ENDBRANCH  28  29
ENDBRANCH   7  28
TORSDOF 12
ENDMDL
