MODEL 1
REMARK VINA RESULT: -8.460234334      0.000      0.000
REMARK  12 active torsions:
REMARK  status: ('A' for Active; 'I' for Inactive)
REMARK    1  A    between atoms: C2_2  and  S1_3 
REMARK    2  A    between atoms: S1_3  and  C3_6 
REMARK    3  A    between atoms: C5_10  and  C6_11 
REMARK    4  A    between atoms: C6_11  and  N2_12 
REMARK    5  A    between atoms: C6_11  and  C14_30 
REMARK    6  A    between atoms: N2_12  and  C7_14 
REMARK    7  A    between atoms: C8_17  and  O4_18 
REMARK    8  A    between atoms: C9_20  and  C10_21 
REMARK    9  A    between atoms: C11_24  and  C12_25 
REMARK   10  A    between atoms: C14_30  and  N5_31 
REMARK   11  A    between atoms: C14_30  and  C15_35 
REMARK   12  A    between atoms: C17_38  and  N6_39 
ROOT
HETATM    1  C6  UNL     1      21.471  42.879  96.914  1.00  0.00     0.072 C 
ENDROOT
BRANCH   1   2
HETATM    2  C5  UNL     1      22.357  43.153  95.757  1.00  0.00     0.064 A 
HETATM    3  N1  UNL     1      23.071  42.156  95.075  1.00  0.00    -0.348 N 
HETATM    4  C4  UNL     1      23.907  42.562  94.023  1.00  0.00     0.085 A 
ATOM      5  H1  UNL     1      22.986  41.173  95.334  1.00  0.00     0.166 HD
HETATM    6  C3  UNL     1      24.673  41.858  93.225  1.00  0.00     0.146 C 
HETATM    7  S3  UNL     1      23.727  44.335  93.958  1.00  0.00    -0.081 SA
HETATM    8  C18 UNL     1      22.563  44.383  95.320  1.00  0.00     0.083 A 
BRANCH   6   9
HETATM    9  S1  UNL     1      25.621  42.631  91.983  1.00  0.00     0.168 S 
HETATM   10  O1  UNL     1      26.504  43.700  92.554  1.00  0.00    -0.223 OA
HETATM   11  O2  UNL     1      24.690  43.209  90.947  1.00  0.00    -0.223 OA
BRANCH   9  12
HETATM   12  C2  UNL     1      26.645  41.444  91.192  1.00  0.00     0.140 C 
HETATM   13  C1  UNL     1      27.335  40.515  92.176  1.00  0.00     0.021 C 
ENDBRANCH   9  12
ENDBRANCH   6   9
ENDBRANCH   1   2
BRANCH   1  14
HETATM   14  N2  UNL     1      21.033  41.570  97.031  1.00  0.00    -0.347 N 
ATOM     15  H2  UNL     1      21.365  41.052  97.844  1.00  0.00     0.163 HD
BRANCH  14  16
HETATM   16  C7  UNL     1      20.200  40.892  96.170  1.00  0.00     0.263 C 
HETATM   17  O3  UNL     1      20.836  39.779  95.526  1.00  0.00    -0.250 OA
HETATM   18  N3  UNL     1      19.348  39.867  94.875  1.00  0.00    -0.116 NA
HETATM   19  C8  UNL     1      19.873  41.093  94.782  1.00  0.00     0.290 C 
HETATM   20  C9  UNL     1      18.826  38.672  95.313  1.00  0.00     0.135 C 
HETATM   21  C11 UNL     1      18.790  38.785  96.686  1.00  0.00     0.110 C 
HETATM   22  C13 UNL     1      19.101  40.233  96.975  1.00  0.00     0.227 C 
HETATM   23  O8  UNL     1      18.494  40.869  97.831  1.00  0.00    -0.286 OA
BRANCH  19  24
HETATM   24  O4  UNL     1      20.005  42.005  93.859  1.00  0.00    -0.373 OA
ATOM     25  H4  UNL     1      19.587  42.274  93.050  1.00  0.00     0.212 HD
ENDBRANCH  19  24
BRANCH  20  26
HETATM   26  C10 UNL     1      18.374  37.547  94.550  1.00  0.00     0.224 C 
HETATM   27  O5  UNL     1      17.197  37.231  94.382  1.00  0.00    -0.643 OA
HETATM   28  O6  UNL     1      19.307  36.701  93.918  1.00  0.00    -0.643 OA
ENDBRANCH  20  26
BRANCH  21  29
HETATM   29  C12 UNL     1      18.390  37.930  97.708  1.00  0.00     0.270 C 
HETATM   30  N4  UNL     1      19.406  37.192  98.425  1.00  0.00    -0.057 NA
HETATM   31  O7  UNL     1      17.238  37.714  98.097  1.00  0.00    -0.271 OA
ENDBRANCH  21  29
ENDBRANCH  14  16
ENDBRANCH   1  14
BRANCH   1  32
HETATM   32  C14 UNL     1      20.512  43.976  97.270  1.00  0.00     0.285 C 
BRANCH  32  33
HETATM   33  N5  UNL     1      19.400  43.920  96.298  1.00  0.00    -0.064 N 
ATOM     34  H53 UNL     1      19.719  43.883  95.329  1.00  0.00     0.275 HD
ATOM     35  H52 UNL     1      18.906  43.028  96.308  1.00  0.00     0.275 HD
ATOM     36  H51 UNL     1      18.792  44.716  96.489  1.00  0.00     0.275 HD
ENDBRANCH  32  33
BRANCH  32  37
HETATM   37  C15 UNL     1      19.966  43.944  98.665  1.00  0.00     0.054 A 
HETATM   38  C16 UNL     1      20.738  44.331  99.732  1.00  0.00     0.080 A 
HETATM   39  S2  UNL     1      19.694  44.094 101.060  1.00  0.00    -0.064 SA
HETATM   40  C17 UNL     1      18.330  43.514 100.192  1.00  0.00     0.142 A 
HETATM   41  N7  UNL     1      18.750  43.535  98.939  1.00  0.00    -0.338 N 
ATOM     42  H7  UNL     1      18.131  43.233  98.187  1.00  0.00     0.168 HD
BRANCH  40  43
HETATM   43  N6  UNL     1      17.159  43.141 100.657  1.00  0.00    -0.380 N 
ATOM     44  H62 UNL     1      16.952  42.593 101.492  1.00  0.00     0.158 HD
ATOM     45  H61 UNL     1      16.233  43.329 100.274  1.00  0.00     0.158 HD
ENDBRANCH  40  43
ENDBRANCH  32  37
ENDBRANCH   1  32
TORSDOF 12
ENDMDL
MODEL 2
REMARK VINA RESULT: -8.448302280      3.335      5.203
REMARK  12 active torsions:
REMARK  status: ('A' for Active; 'I' for Inactive)
REMARK    1  A    between atoms: C2_2  and  S1_3 
REMARK    2  A    between atoms: S1_3  and  C3_6 
REMARK    3  A    between atoms: C5_10  and  C6_11 
REMARK    4  A    between atoms: C6_11  and  N2_12 
REMARK    5  A    between atoms: C6_11  and  C14_30 
REMARK    6  A    between atoms: N2_12  and  C7_14 
REMARK    7  A    between atoms: C8_17  and  O4_18 
REMARK    8  A    between atoms: C9_20  and  C10_21 
REMARK    9  A    between atoms: C11_24  and  C12_25 
REMARK   10  A    between atoms: C14_30  and  N5_31 
REMARK   11  A    between atoms: C14_30  and  C15_35 
REMARK   12  A    between atoms: C17_38  and  N6_39 
ROOT
HETATM    1  C6  UNL     1      18.142  39.616  99.024  1.00  0.00     0.072 C 
ENDROOT
BRANCH   1   2
HETATM    2  C5  UNL     1      18.811  40.758  98.355  1.00  0.00     0.064 A 
HETATM    3  N1  UNL     1      19.862  40.610  97.437  1.00  0.00    -0.348 N 
HETATM    4  C4  UNL     1      20.432  41.779  96.912  1.00  0.00     0.085 A 
ATOM      5  H1  UNL     1      20.200  39.687  97.164  1.00  0.00     0.166 HD
HETATM    6  C3  UNL     1      21.408  41.936  96.049  1.00  0.00     0.146 C 
HETATM    7  S3  UNL     1      19.529  43.111  97.679  1.00  0.00    -0.081 SA
HETATM    8  C18 UNL     1      18.476  42.007  98.622  1.00  0.00     0.083 A 
BRANCH   6   9
HETATM    9  S1  UNL     1      21.923  43.529  95.562  1.00  0.00     0.168 S 
HETATM   10  O1  UNL     1      22.449  44.314  96.726  1.00  0.00    -0.223 OA
HETATM   11  O2  UNL     1      20.760  44.244  94.922  1.00  0.00    -0.223 OA
BRANCH   9  12
HETATM   12  C2  UNL     1      23.205  43.399  94.369  1.00  0.00     0.140 C 
HETATM   13  C1  UNL     1      24.022  44.674  94.245  1.00  0.00     0.021 C 
ENDBRANCH   9  12
ENDBRANCH   6   9
ENDBRANCH   1   2
BRANCH   1  14
HETATM   14  N2  UNL     1      17.478  38.739  98.182  1.00  0.00    -0.347 N 
ATOM     15  H2  UNL     1      16.575  39.048  97.825  1.00  0.00     0.163 HD
BRANCH  14  16
HETATM   16  C7  UNL     1      17.905  37.495  97.774  1.00  0.00     0.263 C 
HETATM   17  O3  UNL     1      19.329  37.404  97.632  1.00  0.00    -0.250 OA
HETATM   18  N3  UNL     1      18.749  35.969  97.131  1.00  0.00    -0.116 NA
HETATM   19  C8  UNL     1      18.060  36.906  96.470  1.00  0.00     0.290 C 
HETATM   20  C9  UNL     1      19.295  35.145  98.087  1.00  0.00     0.135 C 
HETATM   21  C11 UNL     1      18.715  35.546  99.271  1.00  0.00     0.110 C 
HETATM   22  C13 UNL     1      17.612  36.496  98.873  1.00  0.00     0.227 C 
HETATM   23  O8  UNL     1      16.510  36.474  99.412  1.00  0.00    -0.286 OA
BRANCH  19  24
HETATM   24  O4  UNL     1      17.714  37.138  95.234  1.00  0.00    -0.373 OA
ATOM     25  H4  UNL     1      17.192  36.742  94.547  1.00  0.00     0.212 HD
ENDBRANCH  19  24
BRANCH  20  26
HETATM   26  C10 UNL     1      20.233  34.074  97.932  1.00  0.00     0.224 C 
HETATM   27  O5  UNL     1      21.270  33.941  98.582  1.00  0.00    -0.643 OA
HETATM   28  O6  UNL     1      20.002  33.064  96.977  1.00  0.00    -0.643 OA
ENDBRANCH  20  26
BRANCH  21  29
HETATM   29  C12 UNL     1      18.849  35.132 100.592  1.00  0.00     0.270 C 
HETATM   30  N4  UNL     1      18.187  33.912 101.001  1.00  0.00    -0.057 NA
HETATM   31  O7  UNL     1      19.482  35.691 101.494  1.00  0.00    -0.271 OA
ENDBRANCH  21  29
ENDBRANCH  14  16
ENDBRANCH   1  14
BRANCH   1  32
HETATM   32  C14 UNL     1      17.521  39.918 100.355  1.00  0.00     0.285 C 
BRANCH  32  33
HETATM   33  N5  UNL     1      16.261  39.149 100.437  1.00  0.00    -0.064 N 
ATOM     34  H53 UNL     1      16.092  38.572  99.613  1.00  0.00     0.275 HD
ATOM     35  H52 UNL     1      16.298  38.393 101.121  1.00  0.00     0.275 HD
ATOM     36  H51 UNL     1      15.511  39.816 100.619  1.00  0.00     0.275 HD
ENDBRANCH  32  33
BRANCH  32  37
HETATM   37  C15 UNL     1      18.368  39.628 101.557  1.00  0.00     0.054 A 
HETATM   38  C16 UNL     1      19.255  40.562 102.034  1.00  0.00     0.080 A 
HETATM   39  S2  UNL     1      19.969  39.761 103.359  1.00  0.00    -0.064 SA
HETATM   40  C17 UNL     1      19.106  38.281 103.240  1.00  0.00     0.142 A 
HETATM   41  N7  UNL     1      18.322  38.484 102.195  1.00  0.00    -0.338 N 
ATOM     42  H7  UNL     1      17.684  37.751 101.885  1.00  0.00     0.168 HD
BRANCH  40  43
HETATM   43  N6  UNL     1      19.201  37.213 103.998  1.00  0.00    -0.380 N 
ATOM     44  H62 UNL     1      18.566  36.895 104.730  1.00  0.00     0.158 HD
ATOM     45  H61 UNL     1      19.926  36.496 104.000  1.00  0.00     0.158 HD
ENDBRANCH  40  43
ENDBRANCH  32  37
ENDBRANCH   1  32
TORSDOF 12
ENDMDL
MODEL 3
REMARK VINA RESULT: -8.434390640      3.564      5.764
REMARK  12 active torsions:
REMARK  status: ('A' for Active; 'I' for Inactive)
REMARK    1  A    between atoms: C2_2  and  S1_3 
REMARK    2  A    between atoms: S1_3  and  C3_6 
REMARK    3  A    between atoms: C5_10  and  C6_11 
REMARK    4  A    between atoms: C6_11  and  N2_12 
REMARK    5  A    between atoms: C6_11  and  C14_30 
REMARK    6  A    between atoms: N2_12  and  C7_14 
REMARK    7  A    between atoms: C8_17  and  O4_18 
REMARK    8  A    between atoms: C9_20  and  C10_21 
REMARK    9  A    between atoms: C11_24  and  C12_25 
REMARK   10  A    between atoms: C14_30  and  N5_31 
REMARK   11  A    between atoms: C14_30  and  C15_35 
REMARK   12  A    between atoms: C17_38  and  N6_39 
ROOT
HETATM    1  C6  UNL     1      18.288  38.895  98.727  1.00  0.00     0.072 C 
ENDROOT
BRANCH   1   2
HETATM    2  C5  UNL     1      18.911  39.755  97.692  1.00  0.00     0.064 A 
HETATM    3  N1  UNL     1      19.662  40.902  97.989  1.00  0.00    -0.348 N 
HETATM    4  C4  UNL     1      20.159  41.648  96.908  1.00  0.00     0.085 A 
ATOM      5  H1  UNL     1      19.841  41.184  98.953  1.00  0.00     0.166 HD
HETATM    6  C3  UNL     1      20.882  42.743  96.891  1.00  0.00     0.146 C 
HETATM    7  S3  UNL     1      19.592  40.781  95.457  1.00  0.00    -0.081 SA
HETATM    8  C18 UNL     1      18.755  39.509  96.404  1.00  0.00     0.083 A 
BRANCH   6   9
HETATM    9  S1  UNL     1      21.369  43.470  95.384  1.00  0.00     0.168 S 
HETATM   10  O1  UNL     1      20.207  44.113  94.687  1.00  0.00    -0.223 OA
HETATM   11  O2  UNL     1      21.992  42.411  94.510  1.00  0.00    -0.223 OA
BRANCH   9  12
HETATM   12  C2  UNL     1      22.577  44.707  95.684  1.00  0.00     0.140 C 
HETATM   13  C1  UNL     1      22.800  44.963  97.165  1.00  0.00     0.021 C 
ENDBRANCH   9  12
ENDBRANCH   6   9
ENDBRANCH   1   2
BRANCH   1  14
HETATM   14  N2  UNL     1      17.684  37.741  98.256  1.00  0.00    -0.347 N 
ATOM     15  H2  UNL     1      16.740  37.842  97.884  1.00  0.00     0.163 HD
BRANCH  14  16
HETATM   16  C7  UNL     1      18.217  36.471  98.237  1.00  0.00     0.263 C 
HETATM   17  O3  UNL     1      19.586  36.426  98.663  1.00  0.00    -0.250 OA
HETATM   18  N3  UNL     1      19.222  34.909  98.205  1.00  0.00    -0.116 NA
HETATM   19  C8  UNL     1      18.852  35.706  97.196  1.00  0.00     0.290 C 
HETATM   20  C9  UNL     1      19.349  34.259  99.410  1.00  0.00     0.135 C 
HETATM   21  C11 UNL     1      18.365  34.802 100.208  1.00  0.00     0.110 C 
HETATM   22  C13 UNL     1      17.512  35.631  99.280  1.00  0.00     0.227 C 
HETATM   23  O8  UNL     1      16.287  35.638  99.355  1.00  0.00    -0.286 OA
BRANCH  19  24
HETATM   24  O4  UNL     1      19.010  35.739  95.902  1.00  0.00    -0.373 OA
ATOM     25  H4  UNL     1      19.641  36.048  95.263  1.00  0.00     0.212 HD
ENDBRANCH  19  24
BRANCH  20  26
HETATM   26  C10 UNL     1      20.261  33.222  99.789  1.00  0.00     0.224 C 
HETATM   27  O5  UNL     1      19.979  32.254 100.496  1.00  0.00    -0.643 OA
HETATM   28  O6  UNL     1      21.597  33.258  99.345  1.00  0.00    -0.643 OA
ENDBRANCH  20  26
BRANCH  21  29
HETATM   29  C12 UNL     1      17.976  34.592 101.527  1.00  0.00     0.270 C 
HETATM   30  N4  UNL     1      18.419  35.533 102.533  1.00  0.00    -0.057 NA
HETATM   31  O7  UNL     1      17.276  33.675 101.966  1.00  0.00    -0.271 OA
ENDBRANCH  21  29
ENDBRANCH  14  16
ENDBRANCH   1  14
BRANCH   1  32
HETATM   32  C14 UNL     1      17.630  39.620  99.863  1.00  0.00     0.285 C 
BRANCH  32  33
HETATM   33  N5  UNL     1      16.402  38.873 100.208  1.00  0.00    -0.064 N 
ATOM     34  H53 UNL     1      16.543  37.863 100.232  1.00  0.00     0.275 HD
ATOM     35  H52 UNL     1      16.124  38.990 101.183  1.00  0.00     0.275 HD
ATOM     36  H51 UNL     1      15.678  39.160  99.550  1.00  0.00     0.275 HD
ENDBRANCH  32  33
BRANCH  32  37
HETATM   37  C15 UNL     1      18.465  39.814 101.092  1.00  0.00     0.054 A 
HETATM   38  C16 UNL     1      18.410  38.916 102.128  1.00  0.00     0.080 A 
HETATM   39  S2  UNL     1      19.496  39.581 103.262  1.00  0.00    -0.064 SA
HETATM   40  C17 UNL     1      19.965  40.967 102.363  1.00  0.00     0.142 A 
HETATM   41  N7  UNL     1      19.265  40.841 101.248  1.00  0.00    -0.338 N 
ATOM     42  H7  UNL     1      19.345  41.543 100.512  1.00  0.00     0.168 HD
BRANCH  40  43
HETATM   43  N6  UNL     1      20.809  41.916 102.697  1.00  0.00    -0.380 N 
ATOM     44  H62 UNL     1      21.428  41.959 103.507  1.00  0.00     0.158 HD
ATOM     45  H61 UNL     1      21.007  42.791 102.213  1.00  0.00     0.158 HD
ENDBRANCH  40  43
ENDBRANCH  32  37
ENDBRANCH   1  32
TORSDOF 12
ENDMDL
MODEL 4
REMARK VINA RESULT: -8.335738798      7.137     10.420
REMARK  12 active torsions:
REMARK  status: ('A' for Active; 'I' for Inactive)
REMARK    1  A    between atoms: C2_2  and  S1_3 
REMARK    2  A    between atoms: S1_3  and  C3_6 
REMARK    3  A    between atoms: C5_10  and  C6_11 
REMARK    4  A    between atoms: C6_11  and  N2_12 
REMARK    5  A    between atoms: C6_11  and  C14_30 
REMARK    6  A    between atoms: N2_12  and  C7_14 
REMARK    7  A    between atoms: C8_17  and  O4_18 
REMARK    8  A    between atoms: C9_20  and  C10_21 
REMARK    9  A    between atoms: C11_24  and  C12_25 
REMARK   10  A    between atoms: C14_30  and  N5_31 
REMARK   11  A    between atoms: C14_30  and  C15_35 
REMARK   12  A    between atoms: C17_38  and  N6_39 
ROOT
HETATM    1  C6  UNL     1      17.133  38.040 102.730  1.00  0.00     0.072 C 
ENDROOT
BRANCH   1   2
HETATM    2  C5  UNL     1      17.359  37.357 101.433  1.00  0.00     0.064 A 
HETATM    3  N1  UNL     1      18.242  36.278 101.270  1.00  0.00    -0.348 N 
HETATM    4  C4  UNL     1      18.391  35.755  99.976  1.00  0.00     0.085 A 
ATOM      5  H1  UNL     1      18.755  35.890 102.061  1.00  0.00     0.166 HD
HETATM    6  C3  UNL     1      19.131  34.763  99.540  1.00  0.00     0.146 C 
HETATM    7  S3  UNL     1      17.317  36.747  98.956  1.00  0.00    -0.081 SA
HETATM    8  C18 UNL     1      16.763  37.762 100.327  1.00  0.00     0.083 A 
BRANCH   6   9
HETATM    9  S1  UNL     1      19.125  34.316  97.856  1.00  0.00     0.168 S 
HETATM   10  O1  UNL     1      19.206  35.523  96.969  1.00  0.00    -0.223 OA
HETATM   11  O2  UNL     1      17.874  33.527  97.564  1.00  0.00    -0.223 OA
BRANCH   9  12
HETATM   12  C2  UNL     1      20.507  33.291  97.509  1.00  0.00     0.140 C 
HETATM   13  C1  UNL     1      21.317  32.955  98.750  1.00  0.00     0.021 C 
ENDBRANCH   9  12
ENDBRANCH   6   9
ENDBRANCH   1   2
BRANCH   1  14
HETATM   14  N2  UNL     1      16.796  37.211 103.788  1.00  0.00    -0.347 N 
ATOM     15  H2  UNL     1      15.900  36.729 103.718  1.00  0.00     0.163 HD
BRANCH  14  16
HETATM   16  C7  UNL     1      17.537  36.967 104.922  1.00  0.00     0.263 C 
HETATM   17  O3  UNL     1      16.875  37.370 106.128  1.00  0.00    -0.250 OA
HETATM   18  N3  UNL     1      18.347  36.858 106.590  1.00  0.00    -0.116 NA
HETATM   19  C8  UNL     1      18.547  37.736 105.601  1.00  0.00     0.290 C 
HETATM   20  C9  UNL     1      17.993  35.771 107.354  1.00  0.00     0.135 C 
HETATM   21  C11 UNL     1      17.403  34.896 106.467  1.00  0.00     0.110 C 
HETATM   22  C13 UNL     1      17.676  35.470 105.099  1.00  0.00     0.227 C 
HETATM   23  O8  UNL     1      18.000  34.762 104.150  1.00  0.00    -0.286 OA
BRANCH  19  24
HETATM   24  O4  UNL     1      19.304  38.776 105.389  1.00  0.00    -0.373 OA
ATOM     25  H4  UNL     1      20.225  38.988 105.294  1.00  0.00     0.212 HD
ENDBRANCH  19  24
BRANCH  20  26
HETATM   26  C10 UNL     1      18.199  35.539 108.752  1.00  0.00     0.224 C 
HETATM   27  O5  UNL     1      18.745  34.546 109.232  1.00  0.00    -0.643 OA
HETATM   28  O6  UNL     1      17.767  36.489 109.698  1.00  0.00    -0.643 OA
ENDBRANCH  20  26
BRANCH  21  29
HETATM   29  C12 UNL     1      16.825  33.638 106.603  1.00  0.00     0.270 C 
HETATM   30  N4  UNL     1      15.383  33.549 106.690  1.00  0.00    -0.057 NA
HETATM   31  O7  UNL     1      17.404  32.549 106.661  1.00  0.00    -0.271 OA
ENDBRANCH  21  29
ENDBRANCH  14  16
ENDBRANCH   1  14
BRANCH   1  32
HETATM   32  C14 UNL     1      16.469  39.382 102.649  1.00  0.00     0.285 C 
BRANCH  32  33
HETATM   33  N5  UNL     1      15.542  39.483 103.797  1.00  0.00    -0.064 N 
ATOM     34  H53 UNL     1      14.919  38.680 103.878  1.00  0.00     0.275 HD
ATOM     35  H52 UNL     1      16.009  39.379 104.698  1.00  0.00     0.275 HD
ATOM     36  H51 UNL     1      15.044  40.368 103.706  1.00  0.00     0.275 HD
ENDBRANCH  32  33
BRANCH  32  37
HETATM   37  C15 UNL     1      17.384  40.569 102.633  1.00  0.00     0.054 A 
HETATM   38  C16 UNL     1      16.880  41.845 102.585  1.00  0.00     0.080 A 
HETATM   39  S2  UNL     1      18.287  42.806 102.561  1.00  0.00    -0.064 SA
HETATM   40  C17 UNL     1      19.445  41.539 102.613  1.00  0.00     0.142 A 
HETATM   41  N7  UNL     1      18.690  40.455 102.645  1.00  0.00    -0.338 N 
ATOM     42  H7  UNL     1      19.122  39.531 102.679  1.00  0.00     0.168 HD
BRANCH  40  43
HETATM   43  N6  UNL     1      20.756  41.625 102.619  1.00  0.00    -0.380 N 
ATOM     44  H62 UNL     1      21.340  42.445 102.456  1.00  0.00     0.158 HD
ATOM     45  H61 UNL     1      21.441  40.889 102.787  1.00  0.00     0.158 HD
ENDBRANCH  40  43
ENDBRANCH  32  37
ENDBRANCH   1  32
TORSDOF 12
ENDMDL
MODEL 5
REMARK VINA RESULT: -8.321319374      3.640      8.126
REMARK  12 active torsions:
REMARK  status: ('A' for Active; 'I' for Inactive)
REMARK    1  A    between atoms: C2_2  and  S1_3 
REMARK    2  A    between atoms: S1_3  and  C3_6 
REMARK    3  A    between atoms: C5_10  and  C6_11 
REMARK    4  A    between atoms: C6_11  and  N2_12 
REMARK    5  A    between atoms: C6_11  and  C14_30 
REMARK    6  A    between atoms: N2_12  and  C7_14 
REMARK    7  A    between atoms: C8_17  and  O4_18 
REMARK    8  A    between atoms: C9_20  and  C10_21 
REMARK    9  A    between atoms: C11_24  and  C12_25 
REMARK   10  A    between atoms: C14_30  and  N5_31 
REMARK   11  A    between atoms: C14_30  and  C15_35 
REMARK   12  A    between atoms: C17_38  and  N6_39 
ROOT
HETATM    1  C6  UNL     1      18.524  38.712  97.264  1.00  0.00     0.072 C 
ENDROOT
BRANCH   1   2
HETATM    2  C5  UNL     1      18.222  39.503  98.481  1.00  0.00     0.064 A 
HETATM    3  N1  UNL     1      18.784  40.761  98.746  1.00  0.00    -0.348 N 
HETATM    4  C4  UNL     1      18.443  41.380  99.958  1.00  0.00     0.085 A 
ATOM      5  H1  UNL     1      19.416  41.209  98.082  1.00  0.00     0.166 HD
HETATM    6  C3  UNL     1      18.810  42.538 100.455  1.00  0.00     0.146 C 
HETATM    7  S3  UNL     1      17.342  40.232 100.763  1.00  0.00    -0.081 SA
HETATM    8  C18 UNL     1      17.425  39.039  99.426  1.00  0.00     0.083 A 
BRANCH   6   9
HETATM    9  S1  UNL     1      18.226  43.070 102.009  1.00  0.00     0.168 S 
HETATM   10  O1  UNL     1      18.483  42.043 103.071  1.00  0.00    -0.223 OA
HETATM   11  O2  UNL     1      16.751  43.364 101.901  1.00  0.00    -0.223 OA
BRANCH   9  12
HETATM   12  C2  UNL     1      19.044  44.552 102.475  1.00  0.00     0.140 C 
HETATM   13  C1  UNL     1      18.082  45.702 102.719  1.00  0.00     0.021 C 
ENDBRANCH   9  12
ENDBRANCH   6   9
ENDBRANCH   1   2
BRANCH   1  14
HETATM   14  N2  UNL     1      18.771  39.452  96.119  1.00  0.00    -0.347 N 
ATOM     15  H2  UNL     1      18.105  40.195  95.907  1.00  0.00     0.163 HD
BRANCH  14  16
HETATM   16  C7  UNL     1      19.816  39.296  95.237  1.00  0.00     0.263 C 
HETATM   17  O3  UNL     1      19.496  39.710  93.902  1.00  0.00    -0.250 OA
HETATM   18  N3  UNL     1      20.998  39.094  93.818  1.00  0.00    -0.116 NA
HETATM   19  C8  UNL     1      20.249  38.177  94.441  1.00  0.00     0.290 C 
HETATM   20  C9  UNL     1      21.699  40.222  93.463  1.00  0.00     0.135 C 
HETATM   21  C11 UNL     1      21.556  41.077  94.535  1.00  0.00     0.110 C 
HETATM   22  C13 UNL     1      20.928  40.245  95.627  1.00  0.00     0.227 C 
HETATM   23  O8  UNL     1      21.292  40.325  96.796  1.00  0.00    -0.286 OA
BRANCH  19  24
HETATM   24  O4  UNL     1      20.040  36.894  94.345  1.00  0.00    -0.373 OA
ATOM     25  H4  UNL     1      19.902  36.144  94.912  1.00  0.00     0.212 HD
ENDBRANCH  19  24
BRANCH  20  26
HETATM   26  C10 UNL     1      22.453  40.485  92.274  1.00  0.00     0.224 C 
HETATM   27  O5  UNL     1      21.977  40.595  91.144  1.00  0.00    -0.643 OA
HETATM   28  O6  UNL     1      23.851  40.644  92.344  1.00  0.00    -0.643 OA
ENDBRANCH  20  26
BRANCH  21  29
HETATM   29  C12 UNL     1      22.004  42.367  94.799  1.00  0.00     0.270 C 
HETATM   30  N4  UNL     1      21.021  43.415  94.972  1.00  0.00    -0.057 NA
HETATM   31  O7  UNL     1      23.174  42.747  94.910  1.00  0.00    -0.271 OA
ENDBRANCH  21  29
ENDBRANCH  14  16
ENDBRANCH   1  14
BRANCH   1  32
HETATM   32  C14 UNL     1      17.762  37.428  97.120  1.00  0.00     0.285 C 
BRANCH  32  33
HETATM   33  N5  UNL     1      17.320  37.335  95.712  1.00  0.00    -0.064 N 
ATOM     34  H53 UNL     1      17.006  38.228  95.333  1.00  0.00     0.275 HD
ATOM     35  H52 UNL     1      18.090  37.179  95.061  1.00  0.00     0.275 HD
ATOM     36  H51 UNL     1      16.606  36.608  95.667  1.00  0.00     0.275 HD
ENDBRANCH  32  33
BRANCH  32  37
HETATM   37  C15 UNL     1      18.499  36.180  97.501  1.00  0.00     0.054 A 
HETATM   38  C16 UNL     1      18.702  35.858  98.820  1.00  0.00     0.080 A 
HETATM   39  S2  UNL     1      19.584  34.402  98.722  1.00  0.00    -0.064 SA
HETATM   40  C17 UNL     1      19.652  34.276  97.011  1.00  0.00     0.142 A 
HETATM   41  N7  UNL     1      18.997  35.353  96.613  1.00  0.00    -0.338 N 
ATOM     42  H7  UNL     1      18.879  35.541  95.617  1.00  0.00     0.168 HD
BRANCH  40  43
HETATM   43  N6  UNL     1      20.214  33.342  96.279  1.00  0.00    -0.380 N 
ATOM     44  H62 UNL     1      21.206  33.186  96.100  1.00  0.00     0.158 HD
ATOM     45  H61 UNL     1      19.768  32.594  95.748  1.00  0.00     0.158 HD
ENDBRANCH  40  43
ENDBRANCH  32  37
ENDBRANCH   1  32
TORSDOF 12
ENDMDL
