MODEL 1
REMARK VINA RESULT: -4.143259284      0.000      0.000
REMARK  4 active torsions:
REMARK  status: ('A' for Active; 'I' for Inactive)
REMARK    1  A    between atoms: N1_2  and  C2_3 
REMARK    2  A    between atoms: C2_3  and  C3_4 
REMARK    3  A    between atoms: C3_4  and  N2_5 
REMARK    4  A    between atoms: N2_5  and  C4_8 
ROOT
HETATM    1  C3  UNL     1      28.069   8.544  46.708  1.00  0.00     0.262 C 
ENDROOT
BRANCH   1   2
HETATM    2  C2  UNL     1      27.610   7.351  47.471  1.00  0.00     0.287 C 
BRANCH   2   3
HETATM    3  N1  UNL     1      27.060   7.627  48.772  1.00  0.00     0.009 N 
HETATM    4  C1  UNL     1      26.377   8.907  48.796  1.00  0.00     0.297 C 
HETATM    5  C8  UNL     1      27.835   7.390  49.926  1.00  0.00     0.277 C 
HETATM    6  C9  UNL     1      26.546   6.801  50.521  1.00  0.00     0.172 C 
HETATM    7  N3  UNL     1      26.130   6.641  49.167  1.00  0.00    -0.045 NA
ENDBRANCH   2   3
ENDBRANCH   1   2
BRANCH   1   8
HETATM    8  N2  UNL     1      29.478   8.833  46.834  1.00  0.00    -0.069 N 
ATOM      9  H22 UNL     1      30.050   8.000  46.691  1.00  0.00     0.277 HD
ATOM     10  H21 UNL     1      29.822   9.391  46.052  1.00  0.00     0.277 HD
BRANCH   8  11
HETATM   11  C4  UNL     1      29.755   9.459  48.099  1.00  0.00     0.186 C 
HETATM   12  C5  UNL     1      29.804  10.986  48.044  1.00  0.00     0.033 C 
HETATM   13  C6  UNL     1      30.799  10.867  49.211  1.00  0.00     0.004 C 
HETATM   14  C7  UNL     1      31.192   9.535  48.534  1.00  0.00     0.033 C 
ENDBRANCH   8  11
ENDBRANCH   1   8
TORSDOF 4
ENDMDL
MODEL 2
REMARK VINA RESULT: -4.074884966      1.632      4.698
REMARK  4 active torsions:
REMARK  status: ('A' for Active; 'I' for Inactive)
REMARK    1  A    between atoms: N1_2  and  C2_3 
REMARK    2  A    between atoms: C2_3  and  C3_4 
REMARK    3  A    between atoms: C3_4  and  N2_5 
REMARK    4  A    between atoms: N2_5  and  C4_8 
ROOT
HETATM    1  C3  UNL     1      27.254   9.652  48.784  1.00  0.00     0.262 C 
ENDROOT
BRANCH   1   2
HETATM    2  C2  UNL     1      28.108  10.868  48.708  1.00  0.00     0.287 C 
BRANCH   2   3
HETATM    3  N1  UNL     1      29.498  10.627  48.423  1.00  0.00     0.009 N 
HETATM    4  C1  UNL     1      29.664   9.912  47.172  1.00  0.00     0.297 C 
HETATM    5  C8  UNL     1      30.354  10.166  49.444  1.00  0.00     0.277 C 
HETATM    6  C9  UNL     1      31.365  11.180  48.887  1.00  0.00     0.172 C 
HETATM    7  N3  UNL     1      30.228  11.832  48.325  1.00  0.00    -0.045 NA
ENDBRANCH   2   3
ENDBRANCH   1   2
BRANCH   1   8
HETATM    8  N2  UNL     1      27.648   8.702  49.798  1.00  0.00    -0.069 N 
ATOM      9  H22 UNL     1      28.522   8.972  50.251  1.00  0.00     0.277 HD
ATOM     10  H21 UNL     1      27.035   8.742  50.613  1.00  0.00     0.277 HD
BRANCH   8  11
HETATM   11  C4  UNL     1      27.720   7.375  49.248  1.00  0.00     0.186 C 
HETATM   12  C5  UNL     1      27.731   7.331  47.721  1.00  0.00     0.033 C 
HETATM   13  C6  UNL     1      27.047   5.963  47.884  1.00  0.00     0.004 C 
HETATM   14  C7  UNL     1      26.438   6.595  49.155  1.00  0.00     0.033 C 
ENDBRANCH   8  11
ENDBRANCH   1   8
TORSDOF 4
ENDMDL
MODEL 3
REMARK VINA RESULT: -4.073131411      1.335      2.065
REMARK  4 active torsions:
REMARK  status: ('A' for Active; 'I' for Inactive)
REMARK    1  A    between atoms: N1_2  and  C2_3 
REMARK    2  A    between atoms: C2_3  and  C3_4 
REMARK    3  A    between atoms: C3_4  and  N2_5 
REMARK    4  A    between atoms: N2_5  and  C4_8 
ROOT
HETATM    1  C3  UNL     1      26.930  10.032  48.766  1.00  0.00     0.262 C 
ENDROOT
BRANCH   1   2
HETATM    2  C2  UNL     1      27.291   8.819  49.547  1.00  0.00     0.287 C 
BRANCH   2   3
HETATM    3  N1  UNL     1      27.235   7.579  48.819  1.00  0.00     0.009 N 
HETATM    4  C1  UNL     1      26.225   6.691  49.363  1.00  0.00     0.297 C 
HETATM    5  C8  UNL     1      28.430   6.914  48.474  1.00  0.00     0.277 C 
HETATM    6  C9  UNL     1      27.762   6.680  47.110  1.00  0.00     0.172 C 
HETATM    7  N3  UNL     1      26.931   7.785  47.456  1.00  0.00    -0.045 NA
ENDBRANCH   2   3
ENDBRANCH   1   2
BRANCH   1   8
HETATM    8  N2  UNL     1      28.027  10.629  48.041  1.00  0.00    -0.069 N 
ATOM      9  H22 UNL     1      28.110  10.248  47.098  1.00  0.00     0.277 HD
ATOM     10  H21 UNL     1      27.835  11.601  47.795  1.00  0.00     0.277 HD
BRANCH   8  11
HETATM   11  C4  UNL     1      29.253  10.498  48.780  1.00  0.00     0.186 C 
HETATM   12  C5  UNL     1      30.219  11.669  48.603  1.00  0.00     0.033 C 
HETATM   13  C6  UNL     1      31.324  10.628  48.854  1.00  0.00     0.004 C 
HETATM   14  C7  UNL     1      30.338   9.650  48.176  1.00  0.00     0.033 C 
ENDBRANCH   8  11
ENDBRANCH   1   8
TORSDOF 4
ENDMDL
MODEL 4
REMARK VINA RESULT: -4.070499840      0.870      1.562
REMARK  4 active torsions:
REMARK  status: ('A' for Active; 'I' for Inactive)
REMARK    1  A    between atoms: N1_2  and  C2_3 
REMARK    2  A    between atoms: C2_3  and  C3_4 
REMARK    3  A    between atoms: C3_4  and  N2_5 
REMARK    4  A    between atoms: N2_5  and  C4_8 
ROOT
HETATM    1  C3  UNL     1      28.078   8.516  46.614  1.00  0.00     0.262 C 
ENDROOT
BRANCH   1   2
HETATM    2  C2  UNL     1      27.447   7.266  47.116  1.00  0.00     0.287 C 
BRANCH   2   3
HETATM    3  N1  UNL     1      27.108   7.267  48.515  1.00  0.00     0.009 N 
HETATM    4  C1  UNL     1      26.289   6.120  48.860  1.00  0.00     0.297 C 
HETATM    5  C8  UNL     1      26.681   8.460  49.133  1.00  0.00     0.277 C 
HETATM    6  C9  UNL     1      27.590   8.038  50.297  1.00  0.00     0.172 C 
HETATM    7  N3  UNL     1      28.258   7.229  49.333  1.00  0.00    -0.045 NA
ENDBRANCH   2   3
ENDBRANCH   1   2
BRANCH   1   8
HETATM    8  N2  UNL     1      29.514   8.564  46.754  1.00  0.00    -0.069 N 
ATOM      9  H22 UNL     1      29.869   7.776  47.295  1.00  0.00     0.277 HD
ATOM     10  H21 UNL     1      29.988   8.369  45.871  1.00  0.00     0.277 HD
BRANCH   8  11
HETATM   11  C4  UNL     1      29.926   9.824  47.314  1.00  0.00     0.186 C 
HETATM   12  C5  UNL     1      30.790   9.698  48.568  1.00  0.00     0.033 C 
HETATM   13  C6  UNL     1      30.178  11.051  48.968  1.00  0.00     0.004 C 
HETATM   14  C7  UNL     1      28.942  10.544  48.193  1.00  0.00     0.033 C 
ENDBRANCH   8  11
ENDBRANCH   1   8
TORSDOF 4
ENDMDL
MODEL 5
REMARK VINA RESULT: -3.911964645      1.449      4.119
REMARK  4 active torsions:
REMARK  status: ('A' for Active; 'I' for Inactive)
REMARK    1  A    between atoms: N1_2  and  C2_3 
REMARK    2  A    between atoms: C2_3  and  C3_4 
REMARK    3  A    between atoms: C3_4  and  N2_5 
REMARK    4  A    between atoms: N2_5  and  C4_8 
ROOT
HETATM    1  C3  UNL     1      27.946   8.661  46.839  1.00  0.00     0.262 C 
ENDROOT
BRANCH   1   2
HETATM    2  C2  UNL     1      29.246   9.384  46.864  1.00  0.00     0.287 C 
BRANCH   2   3
HETATM    3  N1  UNL     1      29.498  10.156  48.053  1.00  0.00     0.009 N 
HETATM    4  C1  UNL     1      28.296  10.303  48.852  1.00  0.00     0.297 C 
HETATM    5  C8  UNL     1      30.259  11.341  47.971  1.00  0.00     0.277 C 
HETATM    6  C9  UNL     1      30.938  10.848  49.258  1.00  0.00     0.172 C 
HETATM    7  N3  UNL     1      30.481   9.556  48.869  1.00  0.00    -0.045 NA
ENDBRANCH   2   3
ENDBRANCH   1   2
BRANCH   1   8
HETATM    8  N2  UNL     1      28.056   7.222  46.895  1.00  0.00    -0.069 N 
ATOM      9  H22 UNL     1      27.636   6.779  46.078  1.00  0.00     0.277 HD
ATOM     10  H21 UNL     1      29.018   6.910  46.760  1.00  0.00     0.277 HD
BRANCH   8  11
HETATM   11  C4  UNL     1      27.497   6.719  48.121  1.00  0.00     0.186 C 
HETATM   12  C5  UNL     1      26.369   7.578  48.693  1.00  0.00     0.033 C 
HETATM   13  C6  UNL     1      26.841   7.056  50.061  1.00  0.00     0.004 C 
HETATM   14  C7  UNL     1      28.234   7.028  49.394  1.00  0.00     0.033 C 
ENDBRANCH   8  11
ENDBRANCH   1   8
TORSDOF 4
ENDMDL
