MODEL 1
REMARK VINA RESULT: -7.701062618      0.000      0.000
REMARK  8 active torsions:
REMARK  status: ('A' for Active; 'I' for Inactive)
REMARK    1  A    between atoms: C2_7  and  C3_8 
REMARK    2  A    between atoms: C7_12  and  O1_13 
REMARK    3  A    between atoms: O1_13  and  C8_14 
REMARK    4  A    between atoms: C8_14  and  C9_15 
REMARK    5  A    between atoms: N3_22  and  C12_23 
REMARK    6  A    between atoms: C14_25  and  O2_26 
REMARK    7  A    between atoms: C15_28  and  C16_29 
REMARK    8  A    between atoms: C16_29  and  O3_30 
ROOT
HETATM    1  N1  UNL     1      30.776  53.583  49.561  1.00  0.00    -0.234 N 
ATOM      2  H11 UNL     1      31.498  54.300  49.493  1.00  0.00     0.174 HD
ATOM      3  H12 UNL     1      29.934  54.030  49.923  1.00  0.00     0.174 HD
HETATM    4  C1  UNL     1      30.898  52.332  49.247  1.00  0.00     0.680 A 
HETATM    5  N2  UNL     1      29.924  51.363  49.340  1.00  0.00    -0.190 N 
ATOM      6  H2  UNL     1      28.972  51.520  49.672  1.00  0.00     0.184 HD
HETATM    7  C2  UNL     1      30.403  50.198  48.933  1.00  0.00     0.077 A 
HETATM    8  C11 UNL     1      31.716  50.450  48.578  1.00  0.00     0.142 A 
HETATM    9  N3  UNL     1      32.004  51.745  48.772  1.00  0.00    -0.164 N 
ENDROOT
BRANCH   7  10
HETATM   10  C3  UNL     1      29.777  48.892  48.842  1.00  0.00     0.017 A 
HETATM   11  C4  UNL     1      29.665  48.105  50.001  1.00  0.00     0.015 A 
HETATM   12  C5  UNL     1      29.089  46.875  49.974  1.00  0.00     0.004 A 
HETATM   13  C6  UNL     1      28.586  46.342  48.799  1.00  0.00     0.038 A 
HETATM   14  C7  UNL     1      28.666  47.062  47.635  1.00  0.00     0.091 A 
HETATM   15  C10 UNL     1      29.273  48.338  47.703  1.00  0.00     0.080 A 
HETATM   16 CL1  UNL     1      29.323  49.171  46.166  1.00  0.00    -0.080 Cl
BRANCH  14  17
HETATM   17  O1  UNL     1      28.209  46.607  46.496  1.00  0.00    -0.341 OA
BRANCH  17  18
HETATM   18  C8  UNL     1      27.384  46.482  45.486  1.00  0.00     0.293 C 
BRANCH  18  19
HETATM   19  C9  UNL     1      27.477  45.153  44.770  1.00  0.00     0.408 C 
HETATM   20  F1  UNL     1      27.462  45.328  43.391  1.00  0.00    -0.169 F 
HETATM   21  F2  UNL     1      26.303  44.435  45.044  1.00  0.00    -0.169 F 
HETATM   22  F3  UNL     1      28.507  44.370  45.138  1.00  0.00    -0.169 F 
ENDBRANCH  18  19
ENDBRANCH  17  18
ENDBRANCH  14  17
ENDBRANCH   7  10
BRANCH   9  23
HETATM   23  C12 UNL     1      33.249  52.427  48.533  1.00  0.00     0.248 C 
HETATM   24  C13 UNL     1      33.261  53.137  47.193  1.00  0.00     0.089 C 
HETATM   25  C14 UNL     1      34.751  53.351  46.998  1.00  0.00     0.153 C 
HETATM   26  C15 UNL     1      35.332  52.216  47.799  1.00  0.00     0.176 C 
HETATM   27  O4  UNL     1      34.291  51.507  48.348  1.00  0.00    -0.356 OA
BRANCH  25  28
HETATM   28  O2  UNL     1      35.103  54.554  47.603  1.00  0.00    -0.393 OA
ATOM     29  H2  UNL     1      35.060  55.241  46.947  1.00  0.00     0.210 HD
ENDBRANCH  25  28
BRANCH  26  30
HETATM   30  C16 UNL     1      36.178  51.350  46.859  1.00  0.00     0.198 C 
BRANCH  30  31
HETATM   31  O3  UNL     1      35.414  50.366  46.258  1.00  0.00    -0.398 OA
ATOM     32  H3  UNL     1      35.886  49.542  46.210  1.00  0.00     0.209 HD
ENDBRANCH  30  31
ENDBRANCH  26  30
ENDBRANCH   9  23
TORSDOF 8
ENDMDL
MODEL 2
REMARK VINA RESULT: -7.570774879      3.272      4.543
REMARK  8 active torsions:
REMARK  status: ('A' for Active; 'I' for Inactive)
REMARK    1  A    between atoms: C2_7  and  C3_8 
REMARK    2  A    between atoms: C7_12  and  O1_13 
REMARK    3  A    between atoms: O1_13  and  C8_14 
REMARK    4  A    between atoms: C8_14  and  C9_15 
REMARK    5  A    between atoms: N3_22  and  C12_23 
REMARK    6  A    between atoms: C14_25  and  O2_26 
REMARK    7  A    between atoms: C15_28  and  C16_29 
REMARK    8  A    between atoms: C16_29  and  O3_30 
ROOT
HETATM    1  N1  UNL     1      32.306  48.172  48.300  1.00  0.00    -0.234 N 
ATOM      2  H11 UNL     1      32.784  49.047  48.514  1.00  0.00     0.174 HD
ATOM      3  H12 UNL     1      32.986  47.419  48.405  1.00  0.00     0.174 HD
HETATM    4  C1  UNL     1      31.064  48.033  47.957  1.00  0.00     0.680 A 
HETATM    5  N2  UNL     1      30.419  46.852  47.668  1.00  0.00    -0.190 N 
ATOM      6  H2  UNL     1      30.852  45.928  47.690  1.00  0.00     0.184 HD
HETATM    7  C2  UNL     1      29.155  47.090  47.356  1.00  0.00     0.077 A 
HETATM    8  C11 UNL     1      29.010  48.463  47.455  1.00  0.00     0.142 A 
HETATM    9  N3  UNL     1      30.172  49.022  47.820  1.00  0.00    -0.164 N 
ENDROOT
BRANCH   7  10
HETATM   10  C3  UNL     1      28.081  46.189  46.982  1.00  0.00     0.017 A 
HETATM   11  C4  UNL     1      27.879  45.895  45.622  1.00  0.00     0.015 A 
HETATM   12  C5  UNL     1      26.890  45.058  45.213  1.00  0.00     0.004 A 
HETATM   13  C6  UNL     1      26.035  44.457  46.123  1.00  0.00     0.038 A 
HETATM   14  C7  UNL     1      26.182  44.705  47.463  1.00  0.00     0.091 A 
HETATM   15  C10 UNL     1      27.224  45.581  47.849  1.00  0.00     0.080 A 
HETATM   16 CL1  UNL     1      27.324  45.828  49.577  1.00  0.00    -0.080 Cl
BRANCH  14  17
HETATM   17  O1  UNL     1      25.403  44.166  48.366  1.00  0.00    -0.341 OA
BRANCH  17  18
HETATM   18  C8  UNL     1      24.891  43.220  49.114  1.00  0.00     0.293 C 
BRANCH  18  19
HETATM   19  C9  UNL     1      25.881  42.152  49.525  1.00  0.00     0.408 C 
HETATM   20  F1  UNL     1      25.814  41.056  48.673  1.00  0.00    -0.169 F 
HETATM   21  F2  UNL     1      25.476  41.650  50.772  1.00  0.00    -0.169 F 
HETATM   22  F3  UNL     1      27.152  42.567  49.668  1.00  0.00    -0.169 F 
ENDBRANCH  18  19
ENDBRANCH  17  18
ENDBRANCH  14  17
ENDBRANCH   7  10
BRANCH   9  23
HETATM   23  C12 UNL     1      30.462  50.416  48.035  1.00  0.00     0.248 C 
HETATM   24  C13 UNL     1      31.359  50.984  46.953  1.00  0.00     0.089 C 
HETATM   25  C14 UNL     1      31.864  52.244  47.634  1.00  0.00     0.153 C 
HETATM   26  C15 UNL     1      31.772  51.864  49.088  1.00  0.00     0.176 C 
HETATM   27  O4  UNL     1      31.278  50.584  49.163  1.00  0.00    -0.356 OA
BRANCH  25  28
HETATM   28  O2  UNL     1      30.959  53.271  47.379  1.00  0.00    -0.393 OA
ATOM     29  H2  UNL     1      30.701  53.654  48.209  1.00  0.00     0.210 HD
ENDBRANCH  25  28
BRANCH  26  30
HETATM   30  C16 UNL     1      33.173  51.971  49.700  1.00  0.00     0.198 C 
BRANCH  30  31
HETATM   31  O3  UNL     1      33.826  50.752  49.677  1.00  0.00    -0.398 OA
ATOM     32  H3  UNL     1      33.506  50.175  50.361  1.00  0.00     0.209 HD
ENDBRANCH  30  31
ENDBRANCH  26  30
ENDBRANCH   9  23
TORSDOF 8
ENDMDL
MODEL 3
REMARK VINA RESULT: -7.548506741      3.303      4.414
REMARK  8 active torsions:
REMARK  status: ('A' for Active; 'I' for Inactive)
REMARK    1  A    between atoms: C2_7  and  C3_8 
REMARK    2  A    between atoms: C7_12  and  O1_13 
REMARK    3  A    between atoms: O1_13  and  C8_14 
REMARK    4  A    between atoms: C8_14  and  C9_15 
REMARK    5  A    between atoms: N3_22  and  C12_23 
REMARK    6  A    between atoms: C14_25  and  O2_26 
REMARK    7  A    between atoms: C15_28  and  C16_29 
REMARK    8  A    between atoms: C16_29  and  O3_30 
ROOT
HETATM    1  N1  UNL     1      32.352  48.193  48.299  1.00  0.00    -0.234 N 
ATOM      2  H11 UNL     1      32.875  49.062  48.396  1.00  0.00     0.174 HD
ATOM      3  H12 UNL     1      32.962  47.433  48.602  1.00  0.00     0.174 HD
HETATM    4  C1  UNL     1      31.135  48.066  47.872  1.00  0.00     0.680 A 
HETATM    5  N2  UNL     1      30.429  46.892  47.741  1.00  0.00    -0.190 N 
ATOM      6  H2  UNL     1      30.787  45.964  47.971  1.00  0.00     0.184 HD
HETATM    7  C2  UNL     1      29.215  47.141  47.274  1.00  0.00     0.077 A 
HETATM    8  C11 UNL     1      29.167  48.515  47.110  1.00  0.00     0.142 A 
HETATM    9  N3  UNL     1      30.334  49.063  47.475  1.00  0.00    -0.164 N 
ENDROOT
BRANCH   7  10
HETATM   10  C3  UNL     1      28.111  46.251  46.970  1.00  0.00     0.017 A 
HETATM   11  C4  UNL     1      27.859  45.910  45.629  1.00  0.00     0.015 A 
HETATM   12  C5  UNL     1      26.839  45.081  45.285  1.00  0.00     0.004 A 
HETATM   13  C6  UNL     1      26.001  44.535  46.244  1.00  0.00     0.038 A 
HETATM   14  C7  UNL     1      26.196  44.831  47.568  1.00  0.00     0.091 A 
HETATM   15  C10 UNL     1      27.268  45.698  47.887  1.00  0.00     0.080 A 
HETATM   16 CL1  UNL     1      27.430  46.010  49.600  1.00  0.00    -0.080 Cl
BRANCH  14  17
HETATM   17  O1  UNL     1      25.434  44.346  48.515  1.00  0.00    -0.341 OA
BRANCH  17  18
HETATM   18  C8  UNL     1      24.968  43.457  49.357  1.00  0.00     0.293 C 
BRANCH  18  19
HETATM   19  C9  UNL     1      25.862  42.251  49.543  1.00  0.00     0.408 C 
HETATM   20  F1  UNL     1      25.618  41.294  48.566  1.00  0.00    -0.169 F 
HETATM   21  F2  UNL     1      25.492  41.627  50.744  1.00  0.00    -0.169 F 
HETATM   22  F3  UNL     1      27.177  42.517  49.632  1.00  0.00    -0.169 F 
ENDBRANCH  18  19
ENDBRANCH  17  18
ENDBRANCH  14  17
ENDBRANCH   7  10
BRANCH   9  23
HETATM   23  C12 UNL     1      30.710  50.453  47.461  1.00  0.00     0.248 C 
HETATM   24  C13 UNL     1      30.580  51.063  46.080  1.00  0.00     0.089 C 
HETATM   25  C14 UNL     1      31.436  52.307  46.237  1.00  0.00     0.153 C 
HETATM   26  C15 UNL     1      32.399  51.883  47.314  1.00  0.00     0.176 C 
HETATM   27  O4  UNL     1      32.088  50.596  47.679  1.00  0.00    -0.356 OA
BRANCH  25  28
HETATM   28  O2  UNL     1      30.632  53.332  46.730  1.00  0.00    -0.393 OA
ATOM     29  H2  UNL     1      29.727  53.122  46.531  1.00  0.00     0.210 HD
ENDBRANCH  25  28
BRANCH  26  30
HETATM   30  C16 UNL     1      33.821  51.987  46.752  1.00  0.00     0.198 C 
BRANCH  30  31
HETATM   31  O3  UNL     1      33.896  51.467  45.473  1.00  0.00    -0.398 OA
ATOM     32  H3  UNL     1      34.758  51.107  45.296  1.00  0.00     0.209 HD
ENDBRANCH  30  31
ENDBRANCH  26  30
ENDBRANCH   9  23
TORSDOF 8
ENDMDL
MODEL 4
REMARK VINA RESULT: -7.540701698      3.057      4.115
REMARK  8 active torsions:
REMARK  status: ('A' for Active; 'I' for Inactive)
REMARK    1  A    between atoms: C2_7  and  C3_8 
REMARK    2  A    between atoms: C7_12  and  O1_13 
REMARK    3  A    between atoms: O1_13  and  C8_14 
REMARK    4  A    between atoms: C8_14  and  C9_15 
REMARK    5  A    between atoms: N3_22  and  C12_23 
REMARK    6  A    between atoms: C14_25  and  O2_26 
REMARK    7  A    between atoms: C15_28  and  C16_29 
REMARK    8  A    between atoms: C16_29  and  O3_30 
ROOT
HETATM    1  N1  UNL     1      32.582  48.678  48.528  1.00  0.00    -0.234 N 
ATOM      2  H11 UNL     1      33.130  49.489  48.813  1.00  0.00     0.174 HD
ATOM      3  H12 UNL     1      33.208  47.872  48.524  1.00  0.00     0.174 HD
HETATM    4  C1  UNL     1      31.322  48.663  48.227  1.00  0.00     0.680 A 
HETATM    5  N2  UNL     1      30.582  47.568  47.842  1.00  0.00    -0.190 N 
ATOM      6  H2  UNL     1      30.946  46.620  47.748  1.00  0.00     0.184 HD
HETATM    7  C2  UNL     1      29.328  47.925  47.612  1.00  0.00     0.077 A 
HETATM    8  C11 UNL     1      29.288  49.286  47.862  1.00  0.00     0.142 A 
HETATM    9  N3  UNL     1      30.500  49.721  48.233  1.00  0.00    -0.164 N 
ENDROOT
BRANCH   7  10
HETATM   10  C3  UNL     1      28.179  47.147  47.191  1.00  0.00     0.017 A 
HETATM   11  C4  UNL     1      27.666  47.331  45.895  1.00  0.00     0.015 A 
HETATM   12  C5  UNL     1      26.592  46.630  45.447  1.00  0.00     0.004 A 
HETATM   13  C6  UNL     1      25.954  45.700  46.252  1.00  0.00     0.038 A 
HETATM   14  C7  UNL     1      26.408  45.475  47.525  1.00  0.00     0.091 A 
HETATM   15  C10 UNL     1      27.528  46.225  47.956  1.00  0.00     0.080 A 
HETATM   16 CL1  UNL     1      28.025  45.862  49.592  1.00  0.00    -0.080 Cl
BRANCH  14  17
HETATM   17  O1  UNL     1      25.843  44.610  48.329  1.00  0.00    -0.341 OA
BRANCH  17  18
HETATM   18  C8  UNL     1      25.270  43.489  48.690  1.00  0.00     0.293 C 
BRANCH  18  19
HETATM   19  C9  UNL     1      26.238  42.402  49.102  1.00  0.00     0.408 C 
HETATM   20  F1  UNL     1      26.158  41.312  48.244  1.00  0.00    -0.169 F 
HETATM   21  F2  UNL     1      25.816  41.902  50.344  1.00  0.00    -0.169 F 
HETATM   22  F3  UNL     1      27.515  42.795  49.255  1.00  0.00    -0.169 F 
ENDBRANCH  18  19
ENDBRANCH  17  18
ENDBRANCH  14  17
ENDBRANCH   7  10
BRANCH   9  23
HETATM   23  C12 UNL     1      30.899  51.060  48.582  1.00  0.00     0.248 C 
HETATM   24  C13 UNL     1      31.725  51.710  47.490  1.00  0.00     0.089 C 
HETATM   25  C14 UNL     1      32.373  52.846  48.261  1.00  0.00     0.153 C 
HETATM   26  C15 UNL     1      32.394  52.293  49.661  1.00  0.00     0.176 C 
HETATM   27  O4  UNL     1      31.828  51.042  49.633  1.00  0.00    -0.356 OA
BRANCH  25  28
HETATM   28  O2  UNL     1      31.517  53.944  48.223  1.00  0.00    -0.393 OA
ATOM     29  H2  UNL     1      31.319  54.198  49.117  1.00  0.00     0.210 HD
ENDBRANCH  25  28
BRANCH  26  30
HETATM   30  C16 UNL     1      33.851  52.249  50.136  1.00  0.00     0.198 C 
BRANCH  30  31
HETATM   31  O3  UNL     1      33.932  52.296  51.516  1.00  0.00    -0.398 OA
ATOM     32  H3  UNL     1      33.679  53.150  51.848  1.00  0.00     0.209 HD
ENDBRANCH  30  31
ENDBRANCH  26  30
ENDBRANCH   9  23
TORSDOF 8
ENDMDL
MODEL 5
REMARK VINA RESULT: -7.512198890      1.748      2.431
REMARK  8 active torsions:
REMARK  status: ('A' for Active; 'I' for Inactive)
REMARK    1  A    between atoms: C2_7  and  C3_8 
REMARK    2  A    between atoms: C7_12  and  O1_13 
REMARK    3  A    between atoms: O1_13  and  C8_14 
REMARK    4  A    between atoms: C8_14  and  C9_15 
REMARK    5  A    between atoms: N3_22  and  C12_23 
REMARK    6  A    between atoms: C14_25  and  O2_26 
REMARK    7  A    between atoms: C15_28  and  C16_29 
REMARK    8  A    between atoms: C16_29  and  O3_30 
ROOT
HETATM    1  N1  UNL     1      34.764  50.697  48.663  1.00  0.00    -0.234 N 
ATOM      2  H11 UNL     1      35.301  51.542  48.854  1.00  0.00     0.174 HD
ATOM      3  H12 UNL     1      35.427  49.966  48.402  1.00  0.00     0.174 HD
HETATM    4  C1  UNL     1      33.477  50.565  48.737  1.00  0.00     0.680 A 
HETATM    5  N2  UNL     1      32.752  49.424  48.478  1.00  0.00    -0.190 N 
ATOM      6  H2  UNL     1      33.151  48.529  48.194  1.00  0.00     0.184 HD
HETATM    7  C2  UNL     1      31.461  49.657  48.654  1.00  0.00     0.077 A 
HETATM    8  C11 UNL     1      31.382  50.985  49.033  1.00  0.00     0.142 A 
HETATM    9  N3  UNL     1      32.608  51.524  49.080  1.00  0.00    -0.164 N 
ENDROOT
BRANCH   7  10
HETATM   10  C3  UNL     1      30.309  48.787  48.509  1.00  0.00     0.017 A 
HETATM   11  C4  UNL     1      29.848  48.071  49.628  1.00  0.00     0.015 A 
HETATM   12  C5  UNL     1      28.775  47.242  49.551  1.00  0.00     0.004 A 
HETATM   13  C6  UNL     1      28.085  47.067  48.362  1.00  0.00     0.038 A 
HETATM   14  C7  UNL     1      28.486  47.739  47.237  1.00  0.00     0.091 A 
HETATM   15  C10 UNL     1      29.609  48.592  47.356  1.00  0.00     0.080 A 
HETATM   16 CL1  UNL     1      30.036  49.399  45.865  1.00  0.00    -0.080 Cl
BRANCH  14  17
HETATM   17  O1  UNL     1      27.874  47.610  46.087  1.00  0.00    -0.341 OA
BRANCH  17  18
HETATM   18  C8  UNL     1      27.114  47.053  45.177  1.00  0.00     0.293 C 
BRANCH  18  19
HETATM   19  C9  UNL     1      27.393  45.584  44.950  1.00  0.00     0.408 C 
HETATM   20  F1  UNL     1      27.532  45.307  43.595  1.00  0.00    -0.169 F 
HETATM   21  F2  UNL     1      26.252  44.866  45.339  1.00  0.00    -0.169 F 
HETATM   22  F3  UNL     1      28.426  45.079  45.647  1.00  0.00    -0.169 F 
ENDBRANCH  18  19
ENDBRANCH  17  18
ENDBRANCH  14  17
ENDBRANCH   7  10
BRANCH   9  23
HETATM   23  C12 UNL     1      32.977  52.872  49.426  1.00  0.00     0.248 C 
HETATM   24  C13 UNL     1      31.770  53.783  49.532  1.00  0.00     0.089 C 
HETATM   25  C14 UNL     1      32.432  55.146  49.435  1.00  0.00     0.153 C 
HETATM   26  C15 UNL     1      33.673  54.829  48.644  1.00  0.00     0.176 C 
HETATM   27  O4  UNL     1      33.669  53.483  48.369  1.00  0.00    -0.356 OA
BRANCH  25  28
HETATM   28  O2  UNL     1      32.804  55.543  50.717  1.00  0.00    -0.393 OA
ATOM     29  H2  UNL     1      33.742  55.694  50.722  1.00  0.00     0.210 HD
ENDBRANCH  25  28
BRANCH  26  30
HETATM   30  C16 UNL     1      33.653  55.671  47.364  1.00  0.00     0.198 C 
BRANCH  30  31
HETATM   31  O3  UNL     1      33.724  54.874  46.236  1.00  0.00    -0.398 OA
ATOM     32  H3  UNL     1      33.853  55.395  45.452  1.00  0.00     0.209 HD
ENDBRANCH  30  31
ENDBRANCH  26  30
ENDBRANCH   9  23
TORSDOF 8
ENDMDL
