MODEL 1
REMARK VINA RESULT: -3.145048484      0.000      0.000
REMARK  0 active torsions:
REMARK  status: ('A' for Active; 'I' for Inactive)
ROOT
HETATM    1  C1  UNL     1      24.168  16.377  57.617  1.00  0.00     0.013 C 
HETATM    2  C2  UNL     1      23.661  15.663  58.842  1.00  0.00     0.034 C 
HETATM    3  C3  UNL     1      22.426  14.872  58.512  1.00  0.00     0.242 C 
HETATM    4  N1  UNL     1      23.138  13.640  58.666  1.00  0.00    -0.074 N 
HETATM    5  C4  UNL     1      22.460  12.776  59.608  1.00  0.00     0.272 C 
HETATM    6  C5  UNL     1      23.460  12.922  57.458  1.00  0.00     0.272 C 
HETATM    7  C6  UNL     1      24.281  14.349  59.160  1.00  0.00     0.242 C 
ENDROOT
TORSDOF 0
ENDMDL
MODEL 2
REMARK VINA RESULT: -3.093394273      1.069      1.252
REMARK  0 active torsions:
REMARK  status: ('A' for Active; 'I' for Inactive)
ROOT
HETATM    1  C1  UNL     1      22.189  16.235  58.145  1.00  0.00     0.013 C 
HETATM    2  C2  UNL     1      23.167  15.580  59.085  1.00  0.00     0.034 C 
HETATM    3  C3  UNL     1      22.664  14.226  59.500  1.00  0.00     0.242 C 
HETATM    4  N1  UNL     1      23.689  13.580  58.738  1.00  0.00    -0.074 N 
HETATM    5  C4  UNL     1      24.439  12.664  59.569  1.00  0.00     0.272 C 
HETATM    6  C5  UNL     1      23.278  12.936  57.515  1.00  0.00     0.272 C 
HETATM    7  C6  UNL     1      24.303  14.845  58.469  1.00  0.00     0.242 C 
ENDROOT
TORSDOF 0
ENDMDL
MODEL 3
REMARK VINA RESULT: -2.929093742      1.077      3.101
REMARK  0 active torsions:
REMARK  status: ('A' for Active; 'I' for Inactive)
ROOT
HETATM    1  C1  UNL     1      21.530  11.716  59.731  1.00  0.00     0.013 C 
HETATM    2  C2  UNL     1      21.665  12.914  58.828  1.00  0.00     0.034 C 
HETATM    3  C3  UNL     1      22.386  14.024  59.539  1.00  0.00     0.242 C 
HETATM    4  N1  UNL     1      23.534  13.855  58.700  1.00  0.00    -0.074 N 
HETATM    5  C4  UNL     1      23.897  15.108  58.076  1.00  0.00     0.272 C 
HETATM    6  C5  UNL     1      24.689  13.234  59.301  1.00  0.00     0.272 C 
HETATM    7  C6  UNL     1      22.816  12.921  57.887  1.00  0.00     0.242 C 
ENDROOT
TORSDOF 0
ENDMDL
MODEL 4
REMARK VINA RESULT: -2.914746167      1.137      1.213
REMARK  0 active torsions:
REMARK  status: ('A' for Active; 'I' for Inactive)
ROOT
HETATM    1  C1  UNL     1      24.791  16.742  57.024  1.00  0.00     0.013 C 
HETATM    2  C2  UNL     1      23.963  16.629  58.277  1.00  0.00     0.034 C 
HETATM    3  C3  UNL     1      22.630  16.008  57.967  1.00  0.00     0.242 C 
HETATM    4  N1  UNL     1      22.992  14.812  58.665  1.00  0.00    -0.074 N 
HETATM    5  C4  UNL     1      22.002  14.490  59.669  1.00  0.00     0.272 C 
HETATM    6  C5  UNL     1      23.291  13.656  57.856  1.00  0.00     0.272 C 
HETATM    7  C6  UNL     1      24.194  15.435  59.131  1.00  0.00     0.242 C 
ENDROOT
TORSDOF 0
ENDMDL
MODEL 5
REMARK VINA RESULT: -2.858952384      1.396      1.925
REMARK  0 active torsions:
REMARK  status: ('A' for Active; 'I' for Inactive)
ROOT
HETATM    1  C1  UNL     1      21.654  15.202  58.844  1.00  0.00     0.013 C 
HETATM    2  C2  UNL     1      22.940  14.498  59.191  1.00  0.00     0.034 C 
HETATM    3  C3  UNL     1      22.667  13.068  59.564  1.00  0.00     0.242 C 
HETATM    4  N1  UNL     1      23.288  12.604  58.361  1.00  0.00    -0.074 N 
HETATM    5  C4  UNL     1      24.323  11.641  58.662  1.00  0.00     0.272 C 
HETATM    6  C5  UNL     1      22.412  12.104  57.331  1.00  0.00     0.272 C 
HETATM    7  C6  UNL     1      23.724  13.935  58.060  1.00  0.00     0.242 C 
ENDROOT
TORSDOF 0
ENDMDL
