MODEL 1
REMARK VINA RESULT: -7.461582284      0.000      0.000
REMARK  2 active torsions:
REMARK  status: ('A' for Active; 'I' for Inactive)
REMARK    1  A    between atoms: C3_6  and  C4_7 
REMARK       I    between atoms: C4_7  and  N2_9 
REMARK    2  A    between atoms: N2_9  and  N3_10 
REMARK       I    between atoms: N3_10  and  C5_12 
ROOT
HETATM    1  N1  UNL     1     118.670  39.730  66.453  1.00  0.00    -0.385 N 
ATOM      2  H11 UNL     1     119.124  38.859  66.725  1.00  0.00     0.157 HD
ATOM      3  H12 UNL     1     118.341  40.381  67.166  1.00  0.00     0.157 HD
HETATM    4  C1  UNL     1     118.511  40.038  65.219  1.00  0.00     0.103 A 
HETATM    5  C2  UNL     1     117.891  41.227  64.848  1.00  0.00     0.084 A 
HETATM    6  C3  UNL     1     117.758  41.453  63.510  1.00  0.00     0.123 A 
HETATM    7  N5  UNL     1     118.193  40.589  62.584  1.00  0.00    -0.325 N 
ATOM      8  H5  UNL     1     118.068  40.804  61.595  1.00  0.00     0.169 HD
HETATM    9  C6  UNL     1     118.804  39.423  62.950  1.00  0.00     0.194 A 
HETATM   10  N6  UNL     1     119.290  38.517  61.988  1.00  0.00    -0.063 NA
HETATM   11  N7  UNL     1     118.951  39.170  64.267  1.00  0.00    -0.317 N 
ATOM     12  H7  UNL     1     119.404  38.303  64.557  1.00  0.00     0.170 HD
ENDROOT
BRANCH   6  13
HETATM   13  C4  UNL     1     117.149  42.779  63.116  1.00  0.00     0.362 C 
HETATM   14  O1  UNL     1     116.888  43.524  64.110  1.00  0.00    -0.247 OA
HETATM   15  N2  UNL     1     116.930  43.059  61.799  1.00  0.00    -0.276 NA
BRANCH  15  16
HETATM   16  N3  UNL     1     116.717  43.333  60.542  1.00  0.00    -0.183 N 
HETATM   17  C5  UNL     1     116.197  44.509  59.960  1.00  0.00     0.357 C 
HETATM   18  N4  UNL     1     116.051  44.585  58.550  1.00  0.00    -0.038 NA
HETATM   19  O2  UNL     1     115.842  45.520  60.636  1.00  0.00    -0.248 OA
ATOM     20  H3  UNL     1     116.961  42.591  59.886  1.00  0.00     0.206 HD
ENDBRANCH  15  16
ENDBRANCH   6  13
TORSDOF 2
ENDMDL
MODEL 2
REMARK VINA RESULT: -7.257478661      1.506      1.687
REMARK  2 active torsions:
REMARK  status: ('A' for Active; 'I' for Inactive)
REMARK    1  A    between atoms: C3_6  and  C4_7 
REMARK       I    between atoms: C4_7  and  N2_9 
REMARK    2  A    between atoms: N2_9  and  N3_10 
REMARK       I    between atoms: N3_10  and  C5_12 
ROOT
HETATM    1  N1  UNL     1     118.720  37.717  64.848  1.00  0.00    -0.385 N 
ATOM      2  H11 UNL     1     119.468  37.075  65.110  1.00  0.00     0.157 HD
ATOM      3  H12 UNL     1     117.745  37.433  64.941  1.00  0.00     0.157 HD
HETATM    4  C1  UNL     1     118.979  38.893  64.409  1.00  0.00     0.103 A 
HETATM    5  C2  UNL     1     117.959  39.769  64.051  1.00  0.00     0.084 A 
HETATM    6  C3  UNL     1     118.341  40.991  63.582  1.00  0.00     0.123 A 
HETATM    7  N5  UNL     1     119.625  41.350  63.464  1.00  0.00    -0.325 N 
ATOM      8  H5  UNL     1     119.859  42.276  63.106  1.00  0.00     0.169 HD
HETATM    9  C6  UNL     1     120.626  40.490  63.818  1.00  0.00     0.194 A 
HETATM   10  N6  UNL     1     121.981  40.862  63.723  1.00  0.00    -0.063 NA
HETATM   11  N7  UNL     1     120.281  39.273  64.285  1.00  0.00    -0.317 N 
ATOM     12  H7  UNL     1     121.015  38.618  64.553  1.00  0.00     0.170 HD
ENDROOT
BRANCH   6  13
HETATM   13  C4  UNL     1     117.227  41.960  63.265  1.00  0.00     0.362 C 
HETATM   14  O1  UNL     1     116.550  42.297  64.286  1.00  0.00    -0.247 OA
HETATM   15  N2  UNL     1     117.034  42.374  61.979  1.00  0.00    -0.276 NA
BRANCH  15  16
HETATM   16  N3  UNL     1     116.845  42.772  60.752  1.00  0.00    -0.183 N 
HETATM   17  C5  UNL     1     116.396  44.025  60.280  1.00  0.00     0.357 C 
HETATM   18  N4  UNL     1     116.263  44.237  58.882  1.00  0.00    -0.038 NA
HETATM   19  O2  UNL     1     116.097  44.989  61.044  1.00  0.00    -0.248 OA
ATOM     20  H3  UNL     1     117.050  42.080  60.031  1.00  0.00     0.206 HD
ENDBRANCH  15  16
ENDBRANCH   6  13
TORSDOF 2
ENDMDL
MODEL 3
REMARK VINA RESULT: -7.189110229      3.894      5.909
REMARK  2 active torsions:
REMARK  status: ('A' for Active; 'I' for Inactive)
REMARK    1  A    between atoms: C3_6  and  C4_7 
REMARK       I    between atoms: C4_7  and  N2_9 
REMARK    2  A    between atoms: N2_9  and  N3_10 
REMARK       I    between atoms: N3_10  and  C5_12 
ROOT
HETATM    1  N1  UNL     1     122.030  40.508  62.610  1.00  0.00    -0.385 N 
ATOM      2  H11 UNL     1     122.567  40.035  61.883  1.00  0.00     0.157 HD
ATOM      3  H12 UNL     1     122.388  41.364  63.034  1.00  0.00     0.157 HD
HETATM    4  C1  UNL     1     120.897  40.055  63.000  1.00  0.00     0.103 A 
HETATM    5  C2  UNL     1     120.165  40.701  63.991  1.00  0.00     0.084 A 
HETATM    6  C3  UNL     1     118.979  40.129  64.344  1.00  0.00     0.123 A 
HETATM    7  N5  UNL     1     118.523  39.005  63.780  1.00  0.00    -0.325 N 
ATOM      8  H5  UNL     1     117.629  38.616  64.081  1.00  0.00     0.169 HD
HETATM    9  C6  UNL     1     119.241  38.372  62.805  1.00  0.00     0.194 A 
HETATM   10  N6  UNL     1     118.762  37.202  62.183  1.00  0.00    -0.063 NA
HETATM   11  N7  UNL     1     120.419  38.912  62.433  1.00  0.00    -0.317 N 
ATOM     12  H7  UNL     1     120.969  38.453  61.707  1.00  0.00     0.170 HD
ENDROOT
BRANCH   6  13
HETATM   13  C4  UNL     1     118.159  40.877  65.369  1.00  0.00     0.362 C 
HETATM   14  O1  UNL     1     117.498  41.842  64.875  1.00  0.00    -0.247 OA
HETATM   15  N2  UNL     1     118.192  40.489  66.677  1.00  0.00    -0.276 NA
BRANCH  15  16
HETATM   16  N3  UNL     1     118.219  40.123  67.928  1.00  0.00    -0.183 N 
HETATM   17  C5  UNL     1     118.216  40.923  69.092  1.00  0.00     0.357 C 
HETATM   18  N4  UNL     1     118.250  40.300  70.367  1.00  0.00    -0.038 NA
HETATM   19  O2  UNL     1     118.189  42.189  69.065  1.00  0.00    -0.248 OA
ATOM     20  H3  UNL     1     118.246  39.117  68.089  1.00  0.00     0.206 HD
ENDBRANCH  15  16
ENDBRANCH   6  13
TORSDOF 2
ENDMDL
MODEL 4
REMARK VINA RESULT: -7.166924257      4.329      5.182
REMARK  2 active torsions:
REMARK  status: ('A' for Active; 'I' for Inactive)
REMARK    1  A    between atoms: C3_6  and  C4_7 
REMARK       I    between atoms: C4_7  and  N2_9 
REMARK    2  A    between atoms: N2_9  and  N3_10 
REMARK       I    between atoms: N3_10  and  C5_12 
ROOT
HETATM    1  N1  UNL     1     121.721  40.222  63.380  1.00  0.00    -0.385 N 
ATOM      2  H11 UNL     1     122.285  39.608  62.794  1.00  0.00     0.157 HD
ATOM      3  H12 UNL     1     122.049  41.163  63.599  1.00  0.00     0.157 HD
HETATM    4  C1  UNL     1     120.590  39.840  63.846  1.00  0.00     0.103 A 
HETATM    5  C2  UNL     1     119.821  40.679  64.647  1.00  0.00     0.084 A 
HETATM    6  C3  UNL     1     118.641  40.171  65.104  1.00  0.00     0.123 A 
HETATM    7  N5  UNL     1     118.224  38.934  64.809  1.00  0.00    -0.325 N 
ATOM      8  H5  UNL     1     117.333  38.600  65.178  1.00  0.00     0.169 HD
HETATM    9  C6  UNL     1     118.979  38.112  64.021  1.00  0.00     0.194 A 
HETATM   10  N6  UNL     1     118.542  36.817  63.681  1.00  0.00    -0.063 NA
HETATM   11  N7  UNL     1     120.153  38.584  63.553  1.00  0.00    -0.317 N 
ATOM     12  H7  UNL     1     120.729  37.984  62.964  1.00  0.00     0.170 HD
ENDROOT
BRANCH   6  13
HETATM   13  C4  UNL     1     117.780  41.114  65.912  1.00  0.00     0.362 C 
HETATM   14  O1  UNL     1     116.545  41.034  65.628  1.00  0.00    -0.247 OA
HETATM   15  N2  UNL     1     118.360  41.941  66.831  1.00  0.00    -0.276 NA
BRANCH  15  16
HETATM   16  N3  UNL     1     118.907  42.733  67.709  1.00  0.00    -0.183 N 
HETATM   17  C5  UNL     1     118.538  44.045  68.080  1.00  0.00     0.357 C 
HETATM   18  N4  UNL     1     119.289  44.727  69.073  1.00  0.00    -0.038 NA
HETATM   19  O2  UNL     1     117.560  44.663  67.566  1.00  0.00    -0.248 OA
ATOM     20  H3  UNL     1     119.716  42.352  68.198  1.00  0.00     0.206 HD
ENDBRANCH  15  16
ENDBRANCH   6  13
TORSDOF 2
ENDMDL
MODEL 5
REMARK VINA RESULT: -7.140251728      1.999      2.685
REMARK  2 active torsions:
REMARK  status: ('A' for Active; 'I' for Inactive)
REMARK    1  A    between atoms: C3_6  and  C4_7 
REMARK       I    between atoms: C4_7  and  N2_9 
REMARK    2  A    between atoms: N2_9  and  N3_10 
REMARK       I    between atoms: N3_10  and  C5_12 
ROOT
HETATM    1  N1  UNL     1     119.866  36.660  63.071  1.00  0.00    -0.385 N 
ATOM      2  H11 UNL     1     120.724  36.113  63.002  1.00  0.00     0.157 HD
ATOM      3  H12 UNL     1     118.960  36.192  63.073  1.00  0.00     0.157 HD
HETATM    4  C1  UNL     1     119.900  37.937  63.171  1.00  0.00     0.103 A 
HETATM    5  C2  UNL     1     118.729  38.683  63.266  1.00  0.00     0.084 A 
HETATM    6  C3  UNL     1     118.873  40.036  63.353  1.00  0.00     0.123 A 
HETATM    7  N5  UNL     1     120.070  40.636  63.349  1.00  0.00    -0.325 N 
ATOM      8  H5  UNL     1     120.124  41.653  63.414  1.00  0.00     0.169 HD
HETATM    9  C6  UNL     1     121.219  39.903  63.258  1.00  0.00     0.194 A 
HETATM   10  N6  UNL     1     122.486  40.518  63.279  1.00  0.00    -0.063 NA
HETATM   11  N7  UNL     1     121.110  38.561  63.170  1.00  0.00    -0.317 N 
ATOM     12  H7  UNL     1     121.957  37.998  63.101  1.00  0.00     0.170 HD
ENDROOT
BRANCH   6  13
HETATM   13  C4  UNL     1     117.601  40.831  63.528  1.00  0.00     0.362 C 
HETATM   14  O1  UNL     1     117.031  40.624  64.643  1.00  0.00    -0.247 OA
HETATM   15  N2  UNL     1     117.177  41.659  62.529  1.00  0.00    -0.276 NA
BRANCH  15  16
HETATM   16  N3  UNL     1     116.766  42.451  61.579  1.00  0.00    -0.183 N 
HETATM   17  C5  UNL     1     116.535  43.844  61.615  1.00  0.00     0.357 C 
HETATM   18  N4  UNL     1     116.083  44.507  60.444  1.00  0.00    -0.038 NA
HETATM   19  O2  UNL     1     116.708  44.550  62.652  1.00  0.00    -0.248 OA
ATOM     20  H3  UNL     1     116.585  42.001  60.682  1.00  0.00     0.206 HD
ENDBRANCH  15  16
ENDBRANCH   6  13
TORSDOF 2
ENDMDL
