MODEL 1
REMARK VINA RESULT: -6.910255506      0.000      0.000
REMARK  4 active torsions:
REMARK  status: ('A' for Active; 'I' for Inactive)
REMARK    1  A    between atoms: N1_1  and  C1_4 
REMARK    2  A    between atoms: C2_7  and  C3_8 
REMARK    3  A    between atoms: C3_8  and  C4_10 
REMARK       I    between atoms: C4_10  and  N3_12 
REMARK    4  A    between atoms: N3_12  and  N4_14 
ROOT
HETATM    1  C1  UNL     1      74.547  21.187  87.188  1.00  0.00     0.681 A 
HETATM    2  N2  UNL     1      75.670  20.814  87.817  1.00  0.00    -0.172 N 
ATOM      3  H2  UNL     1      76.348  20.236  87.321  1.00  0.00     0.186 HD
HETATM    4  C2  UNL     1      75.929  21.180  89.082  1.00  0.00     0.181 A 
HETATM    5  N5  UNL     1      75.020  21.941  89.711  1.00  0.00    -0.290 N 
ATOM      6  H5  UNL     1      75.190  22.234  90.673  1.00  0.00     0.172 HD
HETATM    7  C5  UNL     1      73.882  22.324  89.090  1.00  0.00     0.340 A 
HETATM    8  O3  UNL     1      73.037  23.039  89.691  1.00  0.00    -0.246 OA
HETATM    9  N6  UNL     1      73.646  21.945  87.822  1.00  0.00    -0.141 N 
ATOM     10  H6  UNL     1      72.789  22.233  87.349  1.00  0.00     0.189 HD
ENDROOT
BRANCH   4  11
HETATM   11  C3  UNL     1      77.147  20.782  89.781  1.00  0.00     0.285 C 
HETATM   12  O1  UNL     1      78.269  21.133  89.347  1.00  0.00    -0.278 OA
BRANCH  11  13
HETATM   13  C4  UNL     1      77.110  19.975  90.993  1.00  0.00     0.313 C 
HETATM   14  O2  UNL     1      77.677  18.853  90.999  1.00  0.00    -0.262 OA
HETATM   15  N3  UNL     1      76.456  20.416  92.157  1.00  0.00    -0.270 N 
ATOM     16  H3  UNL     1      76.004  21.329  92.124  1.00  0.00     0.189 HD
BRANCH  15  17
HETATM   17  N4  UNL     1      76.377  19.712  93.339  1.00  0.00    -0.342 N 
ATOM     18  H42 UNL     1      77.090  18.999  93.489  1.00  0.00     0.176 HD
ATOM     19  H41 UNL     1      75.670  19.852  94.061  1.00  0.00     0.176 HD
ENDBRANCH  15  17
ENDBRANCH  11  13
ENDBRANCH   4  11
BRANCH   1  20
HETATM   20  N1  UNL     1      74.304  20.823  85.952  1.00  0.00    -0.234 N 
ATOM     21  H12 UNL     1      74.414  19.841  85.700  1.00  0.00     0.174 HD
ATOM     22  H11 UNL     1      74.012  21.500  85.246  1.00  0.00     0.174 HD
ENDBRANCH   1  20
TORSDOF 4
ENDMDL
MODEL 2
REMARK VINA RESULT: -6.886034259      2.318      2.769
REMARK  4 active torsions:
REMARK  status: ('A' for Active; 'I' for Inactive)
REMARK    1  A    between atoms: N1_1  and  C1_4 
REMARK    2  A    between atoms: C2_7  and  C3_8 
REMARK    3  A    between atoms: C3_8  and  C4_10 
REMARK       I    between atoms: C4_10  and  N3_12 
REMARK    4  A    between atoms: N3_12  and  N4_14 
ROOT
HETATM    1  C1  UNL     1      73.771  21.288  87.904  1.00  0.00     0.681 A 
HETATM    2  N2  UNL     1      74.920  21.884  88.251  1.00  0.00    -0.172 N 
ATOM      3  H2  UNL     1      74.901  22.858  88.555  1.00  0.00     0.186 HD
HETATM    4  C2  UNL     1      76.095  21.238  88.210  1.00  0.00     0.181 A 
HETATM    5  N5  UNL     1      76.091  19.959  87.807  1.00  0.00    -0.290 N 
ATOM      6  H5  UNL     1      76.970  19.443  87.766  1.00  0.00     0.172 HD
HETATM    7  C5  UNL     1      74.941  19.343  87.454  1.00  0.00     0.340 A 
HETATM    8  O3  UNL     1      74.950  18.141  87.077  1.00  0.00    -0.246 OA
HETATM    9  N6  UNL     1      73.776  20.012  87.504  1.00  0.00    -0.141 N 
ATOM     10  H6  UNL     1      72.905  19.551  87.239  1.00  0.00     0.189 HD
ENDROOT
BRANCH   4  11
HETATM   11  C3  UNL     1      77.355  21.875  88.585  1.00  0.00     0.285 C 
HETATM   12  O1  UNL     1      78.096  22.378  87.708  1.00  0.00    -0.278 OA
BRANCH  11  13
HETATM   13  C4  UNL     1      77.795  21.951  89.971  1.00  0.00     0.313 C 
HETATM   14  O2  UNL     1      78.808  22.641  90.255  1.00  0.00    -0.262 OA
HETATM   15  N3  UNL     1      77.119  21.276  91.001  1.00  0.00    -0.270 N 
ATOM     16  H3  UNL     1      76.301  20.723  90.743  1.00  0.00     0.189 HD
BRANCH  15  17
HETATM   17  N4  UNL     1      77.471  21.299  92.333  1.00  0.00    -0.342 N 
ATOM     18  H42 UNL     1      76.887  21.868  92.945  1.00  0.00     0.176 HD
ATOM     19  H41 UNL     1      78.259  20.797  92.743  1.00  0.00     0.176 HD
ENDBRANCH  15  17
ENDBRANCH  11  13
ENDBRANCH   4  11
BRANCH   1  20
HETATM   20  N1  UNL     1      72.629  21.929  87.948  1.00  0.00    -0.234 N 
ATOM     21  H12 UNL     1      72.002  21.759  88.734  1.00  0.00     0.174 HD
ATOM     22  H11 UNL     1      72.360  22.587  87.216  1.00  0.00     0.174 HD
ENDBRANCH   1  20
TORSDOF 4
ENDMDL
MODEL 3
REMARK VINA RESULT: -6.882270001      2.768      4.315
REMARK  4 active torsions:
REMARK  status: ('A' for Active; 'I' for Inactive)
REMARK    1  A    between atoms: N1_1  and  C1_4 
REMARK    2  A    between atoms: C2_7  and  C3_8 
REMARK    3  A    between atoms: C3_8  and  C4_10 
REMARK       I    between atoms: C4_10  and  N3_12 
REMARK    4  A    between atoms: N3_12  and  N4_14 
ROOT
HETATM    1  C1  UNL     1      75.162  20.996  89.547  1.00  0.00     0.681 A 
HETATM    2  N2  UNL     1      76.445  21.382  89.500  1.00  0.00    -0.172 N 
ATOM      3  H2  UNL     1      77.013  21.318  90.345  1.00  0.00     0.186 HD
HETATM    4  C2  UNL     1      77.004  21.851  88.374  1.00  0.00     0.181 A 
HETATM    5  N5  UNL     1      76.234  21.924  87.278  1.00  0.00    -0.290 N 
ATOM      6  H5  UNL     1      76.632  22.276  86.407  1.00  0.00     0.172 HD
HETATM    7  C5  UNL     1      74.939  21.539  87.309  1.00  0.00     0.340 A 
HETATM    8  O3  UNL     1      74.226  21.613  86.273  1.00  0.00    -0.246 OA
HETATM    9  N6  UNL     1      74.401  21.073  88.450  1.00  0.00    -0.141 N 
ATOM     10  H6  UNL     1      73.425  20.781  88.478  1.00  0.00     0.189 HD
ENDROOT
BRANCH   4  11
HETATM   11  C3  UNL     1      78.400  22.274  88.307  1.00  0.00     0.285 C 
HETATM   12  O1  UNL     1      78.884  23.003  89.204  1.00  0.00    -0.278 OA
BRANCH  11  13
HETATM   13  C4  UNL     1      79.273  21.873  87.213  1.00  0.00     0.313 C 
HETATM   14  O2  UNL     1      79.967  20.831  87.334  1.00  0.00    -0.262 OA
HETATM   15  N3  UNL     1      79.362  22.617  86.024  1.00  0.00    -0.270 N 
ATOM     16  H3  UNL     1      78.789  23.458  85.953  1.00  0.00     0.189 HD
BRANCH  15  17
HETATM   17  N4  UNL     1      80.162  22.303  84.946  1.00  0.00    -0.342 N 
ATOM     18  H42 UNL     1      81.168  22.359  85.100  1.00  0.00     0.176 HD
ATOM     19  H41 UNL     1      79.825  22.025  84.025  1.00  0.00     0.176 HD
ENDBRANCH  15  17
ENDBRANCH  11  13
ENDBRANCH   4  11
BRANCH   1  20
HETATM   20  N1  UNL     1      74.626  20.541  90.653  1.00  0.00    -0.234 N 
ATOM     21  H12 UNL     1      75.237  20.334  91.443  1.00  0.00     0.174 HD
ATOM     22  H11 UNL     1      73.620  20.391  90.734  1.00  0.00     0.174 HD
ENDBRANCH   1  20
TORSDOF 4
ENDMDL
MODEL 4
REMARK VINA RESULT: -6.794225080      1.896      2.083
REMARK  4 active torsions:
REMARK  status: ('A' for Active; 'I' for Inactive)
REMARK    1  A    between atoms: N1_1  and  C1_4 
REMARK    2  A    between atoms: C2_7  and  C3_8 
REMARK    3  A    between atoms: C3_8  and  C4_10 
REMARK       I    between atoms: C4_10  and  N3_12 
REMARK    4  A    between atoms: N3_12  and  N4_14 
ROOT
HETATM    1  C1  UNL     1      74.831  19.548  87.360  1.00  0.00     0.681 A 
HETATM    2  N2  UNL     1      75.996  20.087  87.746  1.00  0.00    -0.172 N 
ATOM      3  H2  UNL     1      76.837  19.509  87.736  1.00  0.00     0.186 HD
HETATM    4  C2  UNL     1      76.089  21.364  88.147  1.00  0.00     0.181 A 
HETATM    5  N5  UNL     1      74.968  22.101  88.150  1.00  0.00    -0.290 N 
ATOM      6  H5  UNL     1      75.009  23.076  88.449  1.00  0.00     0.172 HD
HETATM    7  C5  UNL     1      73.786  21.573  87.764  1.00  0.00     0.340 A 
HETATM    8  O3  UNL     1      72.740  22.276  87.771  1.00  0.00    -0.246 OA
HETATM    9  N6  UNL     1      73.718  20.290  87.366  1.00  0.00    -0.141 N 
ATOM     10  H6  UNL     1      72.828  19.888  87.073  1.00  0.00     0.189 HD
ENDROOT
BRANCH   4  11
HETATM   11  C3  UNL     1      77.351  21.964  88.570  1.00  0.00     0.285 C 
HETATM   12  O1  UNL     1      78.132  22.459  87.725  1.00  0.00    -0.278 OA
BRANCH  11  13
HETATM   13  C4  UNL     1      77.747  22.012  89.971  1.00  0.00     0.313 C 
HETATM   14  O2  UNL     1      78.710  22.747  90.311  1.00  0.00    -0.262 OA
HETATM   15  N3  UNL     1      77.083  21.260  90.955  1.00  0.00    -0.270 N 
ATOM     16  H3  UNL     1      76.306  20.673  90.652  1.00  0.00     0.189 HD
BRANCH  15  17
HETATM   17  N4  UNL     1      77.396  21.252  92.297  1.00  0.00    -0.342 N 
ATOM     18  H42 UNL     1      78.368  21.450  92.535  1.00  0.00     0.176 HD
ATOM     19  H41 UNL     1      76.739  21.066  93.054  1.00  0.00     0.176 HD
ENDBRANCH  15  17
ENDBRANCH  11  13
ENDBRANCH   4  11
BRANCH   1  20
HETATM   20  N1  UNL     1      74.752  18.299  86.971  1.00  0.00    -0.234 N 
ATOM     21  H12 UNL     1      75.075  17.568  87.604  1.00  0.00     0.174 HD
ATOM     22  H11 UNL     1      74.377  18.050  86.055  1.00  0.00     0.174 HD
ENDBRANCH   1  20
TORSDOF 4
ENDMDL
MODEL 5
REMARK VINA RESULT: -6.769239704      2.298      3.841
REMARK  4 active torsions:
REMARK  status: ('A' for Active; 'I' for Inactive)
REMARK    1  A    between atoms: N1_1  and  C1_4 
REMARK    2  A    between atoms: C2_7  and  C3_8 
REMARK    3  A    between atoms: C3_8  and  C4_10 
REMARK       I    between atoms: C4_10  and  N3_12 
REMARK    4  A    between atoms: N3_12  and  N4_14 
ROOT
HETATM    1  C1  UNL     1      74.057  22.017  89.278  1.00  0.00     0.681 A 
HETATM    2  N2  UNL     1      75.344  21.760  89.548  1.00  0.00    -0.172 N 
ATOM      3  H2  UNL     1      75.676  21.846  90.509  1.00  0.00     0.186 HD
HETATM    4  C2  UNL     1      76.211  21.394  88.591  1.00  0.00     0.181 A 
HETATM    5  N5  UNL     1      75.748  21.290  87.336  1.00  0.00    -0.290 N 
ATOM      6  H5  UNL     1      76.384  21.013  86.588  1.00  0.00     0.172 HD
HETATM    7  C5  UNL     1      74.452  21.545  87.048  1.00  0.00     0.340 A 
HETATM    8  O3  UNL     1      74.029  21.443  85.865  1.00  0.00    -0.246 OA
HETATM    9  N6  UNL     1      73.603  21.910  88.025  1.00  0.00    -0.141 N 
ATOM     10  H6  UNL     1      72.625  22.103  87.812  1.00  0.00     0.189 HD
ENDROOT
BRANCH   4  11
HETATM   11  C3  UNL     1      77.616  21.111  88.870  1.00  0.00     0.285 C 
HETATM   12  O1  UNL     1      77.931  20.260  89.733  1.00  0.00    -0.278 OA
BRANCH  11  13
HETATM   13  C4  UNL     1      78.691  21.796  88.166  1.00  0.00     0.313 C 
HETATM   14  O2  UNL     1      79.150  22.867  88.641  1.00  0.00    -0.262 OA
HETATM   15  N3  UNL     1      79.234  21.294  86.970  1.00  0.00    -0.270 N 
ATOM     16  H3  UNL     1      78.843  20.424  86.608  1.00  0.00     0.189 HD
BRANCH  15  17
HETATM   17  N4  UNL     1      80.250  21.881  86.248  1.00  0.00    -0.342 N 
ATOM     18  H42 UNL     1      80.202  21.776  85.235  1.00  0.00     0.176 HD
ATOM     19  H41 UNL     1      81.030  22.403  86.647  1.00  0.00     0.176 HD
ENDBRANCH  15  17
ENDBRANCH  11  13
ENDBRANCH   4  11
BRANCH   1  20
HETATM   20  N1  UNL     1      73.220  22.374  90.221  1.00  0.00    -0.234 N 
ATOM     21  H12 UNL     1      72.560  23.128  90.031  1.00  0.00     0.174 HD
ATOM     22  H11 UNL     1      73.218  21.915  91.133  1.00  0.00     0.174 HD
ENDBRANCH   1  20
TORSDOF 4
ENDMDL
