MODEL 1
REMARK VINA RESULT: -6.076783860      0.000      0.000
REMARK  3 active torsions:
REMARK  status: ('A' for Active; 'I' for Inactive)
REMARK    1  A    between atoms: N1_2  and  N2_3 
REMARK    2  A    between atoms: N2_3  and  C2_5 
REMARK    3  A    between atoms: C2_5  and  C4_17 
REMARK       I    between atoms: N3_6  and  C3_8 
REMARK       I    between atoms: C3_8  and  N5_12 
ROOT
HETATM    1  C2  UNL     1      74.435   9.789  32.539  1.00  0.00     0.198 C 
HETATM    2  N3  UNL     1      74.897  10.637  31.709  1.00  0.00    -0.170 N 
ATOM      3  H3  UNL     1      75.515  10.264  30.988  1.00  0.00     0.186 HD
HETATM    4  C3  UNL     1      74.665  12.016  31.663  1.00  0.00     0.691 C 
HETATM    5  N4  UNL     1      75.393  12.915  32.248  1.00  0.00    -0.233 N 
ATOM      6  H41 UNL     1      75.224  13.920  32.215  1.00  0.00     0.174 HD
ATOM      7  H42 UNL     1      76.194  12.582  32.784  1.00  0.00     0.174 HD
HETATM    8  N5  UNL     1      73.547  12.481  30.915  1.00  0.00    -0.139 N 
ATOM      9  H5  UNL     1      73.064  11.831  30.295  1.00  0.00     0.205 HD
HETATM   10  N6  UNL     1      73.126  13.689  30.997  1.00  0.00    -0.331 N 
ATOM     11  H61 UNL     1      72.324  14.022  30.461  1.00  0.00     0.177 HD
ATOM     12  H62 UNL     1      73.621  14.325  31.622  1.00  0.00     0.177 HD
ENDROOT
BRANCH   1  13
HETATM   13  N2  UNL     1      74.803   8.426  32.401  1.00  0.00    -0.285 N 
ATOM     14  H2  UNL     1      74.071   7.757  32.163  1.00  0.00     0.184 HD
BRANCH  13  15
HETATM   15  N1  UNL     1      76.090   7.943  32.569  1.00  0.00    -0.144 NA
HETATM   16  C1  UNL     1      76.675   7.413  31.375  1.00  0.00     0.159 C 
ENDBRANCH  13  15
ENDBRANCH   1  13
BRANCH   1  17
HETATM   17  C4  UNL     1      73.549  10.192  33.610  1.00  0.00     0.300 C 
HETATM   18  N7  UNL     1      72.279  10.811  33.337  1.00  0.00    -0.054 NA
HETATM   19  O1  UNL     1      73.906   9.993  34.796  1.00  0.00    -0.268 OA
ENDBRANCH   1  17
TORSDOF 3
ENDMDL
MODEL 2
REMARK VINA RESULT: -6.048104120      1.153      1.280
REMARK  3 active torsions:
REMARK  status: ('A' for Active; 'I' for Inactive)
REMARK    1  A    between atoms: N1_2  and  N2_3 
REMARK    2  A    between atoms: N2_3  and  C2_5 
REMARK    3  A    between atoms: C2_5  and  C4_17 
REMARK       I    between atoms: N3_6  and  C3_8 
REMARK       I    between atoms: C3_8  and  N5_12 
ROOT
HETATM    1  C2  UNL     1      75.764  10.092  31.792  1.00  0.00     0.198 C 
HETATM    2  N3  UNL     1      75.809  11.224  31.210  1.00  0.00    -0.170 N 
ATOM      3  H3  UNL     1      76.457  11.296  30.426  1.00  0.00     0.186 HD
HETATM    4  C3  UNL     1      75.081  12.380  31.511  1.00  0.00     0.691 C 
HETATM    5  N4  UNL     1      75.472  13.319  32.315  1.00  0.00    -0.233 N 
ATOM      6  H41 UNL     1      74.941  14.162  32.534  1.00  0.00     0.174 HD
ATOM      7  H42 UNL     1      76.382  13.196  32.759  1.00  0.00     0.174 HD
HETATM    8  N5  UNL     1      73.811  12.550  30.892  1.00  0.00    -0.139 N 
ATOM      9  H5  UNL     1      73.552  11.935  30.121  1.00  0.00     0.205 HD
HETATM   10  N6  UNL     1      72.982  13.452  31.271  1.00  0.00    -0.331 N 
ATOM     11  H61 UNL     1      72.072  13.574  30.827  1.00  0.00     0.177 HD
ATOM     12  H62 UNL     1      73.259  14.058  32.044  1.00  0.00     0.177 HD
ENDROOT
BRANCH   1  13
HETATM   13  N2  UNL     1      76.596   9.046  31.318  1.00  0.00    -0.285 N 
ATOM     14  H2  UNL     1      77.063   9.178  30.421  1.00  0.00     0.184 HD
BRANCH  13  15
HETATM   15  N1  UNL     1      76.818   7.856  31.992  1.00  0.00    -0.144 NA
HETATM   16  C1  UNL     1      77.535   6.879  31.231  1.00  0.00     0.159 C 
ENDBRANCH  13  15
ENDBRANCH   1  13
BRANCH   1  17
HETATM   17  C4  UNL     1      74.886   9.860  32.918  1.00  0.00     0.300 C 
HETATM   18  N7  UNL     1      73.492   9.560  32.731  1.00  0.00    -0.054 NA
HETATM   19  O1  UNL     1      75.361   9.926  34.078  1.00  0.00    -0.268 OA
ENDBRANCH   1  17
TORSDOF 3
ENDMDL
MODEL 3
REMARK VINA RESULT: -5.979907416      1.665      1.828
REMARK  3 active torsions:
REMARK  status: ('A' for Active; 'I' for Inactive)
REMARK    1  A    between atoms: N1_2  and  N2_3 
REMARK    2  A    between atoms: N2_3  and  C2_5 
REMARK    3  A    between atoms: C2_5  and  C4_17 
REMARK       I    between atoms: N3_6  and  C3_8 
REMARK       I    between atoms: C3_8  and  N5_12 
ROOT
HETATM    1  C2  UNL     1      75.785  10.063  31.501  1.00  0.00     0.198 C 
HETATM    2  N3  UNL     1      75.744  11.289  31.163  1.00  0.00    -0.170 N 
ATOM      3  H3  UNL     1      76.306  11.547  30.351  1.00  0.00     0.186 HD
HETATM    4  C3  UNL     1      75.025  12.328  31.764  1.00  0.00     0.691 C 
HETATM    5  N4  UNL     1      75.476  13.101  32.702  1.00  0.00    -0.233 N 
ATOM      6  H41 UNL     1      74.952  13.858  33.141  1.00  0.00     0.174 HD
ATOM      7  H42 UNL     1      76.430  12.931  33.021  1.00  0.00     0.174 HD
HETATM    8  N5  UNL     1      73.694  12.565  31.320  1.00  0.00    -0.139 N 
ATOM      9  H5  UNL     1      73.370  12.108  30.467  1.00  0.00     0.205 HD
HETATM   10  N6  UNL     1      72.889  13.334  31.955  1.00  0.00    -0.331 N 
ATOM     11  H61 UNL     1      71.936  13.505  31.636  1.00  0.00     0.177 HD
ATOM     12  H62 UNL     1      73.230  13.783  32.805  1.00  0.00     0.177 HD
ENDROOT
BRANCH   1  13
HETATM   13  N2  UNL     1      76.587   9.171  30.744  1.00  0.00    -0.285 N 
ATOM     14  H2  UNL     1      76.326   9.004  29.772  1.00  0.00     0.184 HD
BRANCH  13  15
HETATM   15  N1  UNL     1      77.702   8.512  31.235  1.00  0.00    -0.144 NA
HETATM   16  C1  UNL     1      77.573   7.087  31.261  1.00  0.00     0.159 C 
ENDBRANCH  13  15
ENDBRANCH   1  13
BRANCH   1  17
HETATM   17  C4  UNL     1      75.034   9.570  32.635  1.00  0.00     0.300 C 
HETATM   18  N7  UNL     1      75.446   9.851  33.984  1.00  0.00    -0.054 NA
HETATM   19  O1  UNL     1      74.004   8.884  32.426  1.00  0.00    -0.268 OA
ENDBRANCH   1  17
TORSDOF 3
ENDMDL
MODEL 4
REMARK VINA RESULT: -5.934153880      1.922      3.121
REMARK  3 active torsions:
REMARK  status: ('A' for Active; 'I' for Inactive)
REMARK    1  A    between atoms: N1_2  and  N2_3 
REMARK    2  A    between atoms: N2_3  and  C2_5 
REMARK    3  A    between atoms: C2_5  and  C4_17 
REMARK       I    between atoms: N3_6  and  C3_8 
REMARK       I    between atoms: C3_8  and  N5_12 
ROOT
HETATM    1  C2  UNL     1      73.051  10.433  33.247  1.00  0.00     0.198 C 
HETATM    2  N3  UNL     1      72.757  11.599  32.829  1.00  0.00    -0.170 N 
ATOM      3  H3  UNL     1      71.840  11.953  33.102  1.00  0.00     0.186 HD
HETATM    4  C3  UNL     1      73.533  12.456  32.042  1.00  0.00     0.691 C 
HETATM    5  N4  UNL     1      73.505  12.510  30.746  1.00  0.00    -0.233 N 
ATOM      6  H41 UNL     1      74.071  13.135  30.172  1.00  0.00     0.174 HD
ATOM      7  H42 UNL     1      72.864  11.873  30.273  1.00  0.00     0.174 HD
HETATM    8  N5  UNL     1      74.428  13.344  32.703  1.00  0.00    -0.139 N 
ATOM      9  H5  UNL     1      74.348  13.464  33.712  1.00  0.00     0.205 HD
HETATM   10  N6  UNL     1      75.331  13.999  32.070  1.00  0.00    -0.331 N 
ATOM     11  H61 UNL     1      75.972  14.635  32.544  1.00  0.00     0.177 HD
ATOM     12  H62 UNL     1      75.396  13.867  31.061  1.00  0.00     0.177 HD
ENDROOT
BRANCH   1  13
HETATM   13  N2  UNL     1      72.106   9.733  34.040  1.00  0.00    -0.285 N 
ATOM     14  H2  UNL     1      71.124   9.792  33.774  1.00  0.00     0.184 HD
BRANCH  13  15
HETATM   15  N1  UNL     1      72.429   8.974  35.153  1.00  0.00    -0.144 NA
HETATM   16  C1  UNL     1      72.032   7.602  35.059  1.00  0.00     0.159 C 
ENDBRANCH  13  15
ENDBRANCH   1  13
BRANCH   1  17
HETATM   17  C4  UNL     1      74.321   9.818  32.927  1.00  0.00     0.300 C 
HETATM   18  N7  UNL     1      75.546  10.279  33.522  1.00  0.00    -0.054 NA
HETATM   19  O1  UNL     1      74.342   8.864  32.112  1.00  0.00    -0.268 OA
ENDBRANCH   1  17
TORSDOF 3
ENDMDL
MODEL 5
REMARK VINA RESULT: -5.853321912      2.137      2.473
REMARK  3 active torsions:
REMARK  status: ('A' for Active; 'I' for Inactive)
REMARK    1  A    between atoms: N1_2  and  N2_3 
REMARK    2  A    between atoms: N2_3  and  C2_5 
REMARK    3  A    between atoms: C2_5  and  C4_17 
REMARK       I    between atoms: N3_6  and  C3_8 
REMARK       I    between atoms: C3_8  and  N5_12 
ROOT
HETATM    1  C2  UNL     1      75.812  10.451  32.078  1.00  0.00     0.198 C 
HETATM    2  N3  UNL     1      76.134  11.646  32.377  1.00  0.00    -0.170 N 
ATOM      3  H3  UNL     1      76.727  12.130  31.703  1.00  0.00     0.186 HD
HETATM    4  C3  UNL     1      75.776  12.379  33.513  1.00  0.00     0.691 C 
HETATM    5  N4  UNL     1      76.461  12.433  34.613  1.00  0.00    -0.233 N 
ATOM      6  H41 UNL     1      76.200  12.967  35.442  1.00  0.00     0.174 HD
ATOM      7  H42 UNL     1      77.327  11.894  34.643  1.00  0.00     0.174 HD
HETATM    8  N5  UNL     1      74.568  13.130  33.472  1.00  0.00    -0.139 N 
ATOM      9  H5  UNL     1      74.101  13.263  32.575  1.00  0.00     0.205 HD
HETATM   10  N6  UNL     1      74.047  13.644  34.524  1.00  0.00    -0.331 N 
ATOM     11  H61 UNL     1      73.182  14.183  34.494  1.00  0.00     0.177 HD
ATOM     12  H62 UNL     1      74.528  13.502  35.412  1.00  0.00     0.177 HD
ENDROOT
BRANCH   1  13
HETATM   13  N2  UNL     1      76.290   9.897  30.863  1.00  0.00    -0.285 N 
ATOM     14  H2  UNL     1      75.846  10.198  29.996  1.00  0.00     0.184 HD
BRANCH  13  15
HETATM   15  N1  UNL     1      77.320   8.975  30.775  1.00  0.00    -0.144 NA
HETATM   16  C1  UNL     1      76.881   7.630  30.555  1.00  0.00     0.159 C 
ENDBRANCH  13  15
ENDBRANCH   1  13
BRANCH   1  17
HETATM   17  C4  UNL     1      74.975   9.657  32.952  1.00  0.00     0.300 C 
HETATM   18  N7  UNL     1      75.446   9.211  34.236  1.00  0.00    -0.054 NA
HETATM   19  O1  UNL     1      73.818   9.357  32.571  1.00  0.00    -0.268 OA
ENDBRANCH   1  17
TORSDOF 3
ENDMDL
