MODEL 1
REMARK VINA RESULT: -6.569497455      0.000      0.000
REMARK  4 active torsions:
REMARK  status: ('A' for Active; 'I' for Inactive)
REMARK    1  A    between atoms: C3_3  and  O1_4 
REMARK    2  A    between atoms: C4_6  and  O2_7 
REMARK    3  A    between atoms: C4_6  and  C5_9 
REMARK    4  A    between atoms: C17_23  and  O5_24 
ROOT
HETATM    1  C1  UNL     1      22.302   4.149  31.913  1.00  0.00     0.014 C 
HETATM    2  C2  UNL     1      21.658   4.724  33.186  1.00  0.00     0.025 C 
HETATM    3  C3  UNL     1      20.375   5.324  32.785  1.00  0.00     0.157 C 
HETATM    4  C4  UNL     1      19.296   5.255  33.876  1.00  0.00     0.087 C 
HETATM    5  C8  UNL     1      19.651   6.355  34.857  1.00  0.00     0.041 C 
HETATM    6  C9  UNL     1      20.893   5.858  35.600  1.00  0.00     0.009 C 
HETATM    7  C10 UNL     1      22.145   6.390  34.994  1.00  0.00     0.005 C 
HETATM    8  C11 UNL     1      23.346   5.989  35.809  1.00  0.00     0.029 C 
HETATM    9  C12 UNL     1      23.125   5.166  37.020  1.00  0.00     0.009 C 
HETATM   10  C13 UNL     1      23.958   3.930  36.741  1.00  0.00     0.008 C 
HETATM   11  C14 UNL     1      23.606   3.699  35.263  1.00  0.00     0.020 C 
HETATM   12  C15 UNL     1      24.708   2.761  34.749  1.00  0.00     0.013 C 
HETATM   13  C16 UNL     1      23.701   5.028  34.688  1.00  0.00     0.112 C 
HETATM   14  O3  UNL     1      25.009   5.288  34.212  1.00  0.00    -0.225 OA
HETATM   15  O4  UNL     1      25.227   6.578  34.352  1.00  0.00    -0.207 OA
HETATM   16  C17 UNL     1      24.547   7.228  33.354  1.00  0.00     0.294 C 
HETATM   17  C18 UNL     1      23.414   6.432  32.772  1.00  0.00     0.077 C 
HETATM   18  C19 UNL     1      22.661   5.613  33.822  1.00  0.00     0.009 C 
ENDROOT
BRANCH   4  19
HETATM   19  O2  UNL     1      19.304   4.055  34.540  1.00  0.00    -0.387 OA
ATOM     20  H2  UNL     1      20.181   3.700  34.633  1.00  0.00     0.210 HD
ENDBRANCH   4  19
BRANCH   4  21
HETATM   21  C5  UNL     1      17.984   5.545  33.172  1.00  0.00     0.022 A 
HETATM   22  C6  UNL     1      16.816   4.717  33.684  1.00  0.00     0.008 A 
HETATM   23  C7  UNL     1      16.866   6.190  33.894  1.00  0.00     0.008 A 
ENDBRANCH   4  21
BRANCH   3  24
HETATM   24  O1  UNL     1      20.388   6.605  32.327  1.00  0.00    -0.392 OA
ATOM     25  H1  UNL     1      19.587   7.111  32.401  1.00  0.00     0.210 HD
ENDBRANCH   3  24
BRANCH  16  26
HETATM   26  O5  UNL     1      24.156   8.532  33.699  1.00  0.00    -0.368 OA
ATOM     27  H5  UNL     1      23.729   9.001  32.990  1.00  0.00     0.212 HD
ENDBRANCH  16  26
TORSDOF 4
ENDMDL
MODEL 2
REMARK VINA RESULT: -5.961841390      1.642      5.427
REMARK  4 active torsions:
REMARK  status: ('A' for Active; 'I' for Inactive)
REMARK    1  A    between atoms: C3_3  and  O1_4 
REMARK    2  A    between atoms: C4_6  and  O2_7 
REMARK    3  A    between atoms: C4_6  and  C5_9 
REMARK    4  A    between atoms: C17_23  and  O5_24 
ROOT
HETATM    1  C1  UNL     1      23.213   7.758  34.193  1.00  0.00     0.014 C 
HETATM    2  C2  UNL     1      22.928   6.383  34.818  1.00  0.00     0.025 C 
HETATM    3  C3  UNL     1      24.230   5.782  35.148  1.00  0.00     0.157 C 
HETATM    4  C4  UNL     1      24.191   4.864  36.379  1.00  0.00     0.087 C 
HETATM    5  C8  UNL     1      23.571   3.570  35.892  1.00  0.00     0.041 C 
HETATM    6  C9  UNL     1      22.089   3.879  35.673  1.00  0.00     0.009 C 
HETATM    7  C10 UNL     1      21.802   4.216  34.251  1.00  0.00     0.005 C 
HETATM    8  C11 UNL     1      20.324   4.400  34.032  1.00  0.00     0.029 C 
HETATM    9  C12 UNL     1      19.421   4.237  35.195  1.00  0.00     0.009 C 
HETATM   10  C13 UNL     1      18.718   5.579  35.264  1.00  0.00     0.008 C 
HETATM   11  C14 UNL     1      19.910   6.517  35.012  1.00  0.00     0.020 C 
HETATM   12  C15 UNL     1      19.268   7.855  34.620  1.00  0.00     0.013 C 
HETATM   13  C16 UNL     1      20.597   5.888  33.899  1.00  0.00     0.112 C 
HETATM   14  O3  UNL     1      20.110   6.369  32.659  1.00  0.00    -0.225 OA
HETATM   15  O4  UNL     1      20.212   5.386  31.791  1.00  0.00    -0.207 OA
HETATM   16  C17 UNL     1      21.531   5.281  31.431  1.00  0.00     0.294 C 
HETATM   17  C18 UNL     1      22.483   5.878  32.427  1.00  0.00     0.077 C 
HETATM   18  C19 UNL     1      22.051   5.646  33.876  1.00  0.00     0.009 C 
ENDROOT
BRANCH   4  19
HETATM   19  O2  UNL     1      23.408   5.375  37.383  1.00  0.00    -0.387 OA
ATOM     20  H2  UNL     1      23.749   5.167  38.246  1.00  0.00     0.210 HD
ENDBRANCH   4  19
BRANCH   4  21
HETATM   21  C5  UNL     1      25.638   4.665  36.787  1.00  0.00     0.022 A 
HETATM   22  C6  UNL     1      25.822   3.705  37.951  1.00  0.00     0.008 A 
HETATM   23  C7  UNL     1      26.307   3.361  36.587  1.00  0.00     0.008 A 
ENDBRANCH   4  21
BRANCH   3  24
HETATM   24  O1  UNL     1      24.879   5.095  34.169  1.00  0.00    -0.392 OA
ATOM     25  H1  UNL     1      24.750   4.155  34.125  1.00  0.00     0.210 HD
ENDBRANCH   3  24
BRANCH  16  26
HETATM   26  O5  UNL     1      21.908   3.982  31.050  1.00  0.00    -0.368 OA
ATOM     27  H5  UNL     1      21.194   3.469  30.690  1.00  0.00     0.212 HD
ENDBRANCH  16  26
TORSDOF 4
ENDMDL
MODEL 3
REMARK VINA RESULT: -5.704606174      1.982      5.422
REMARK  4 active torsions:
REMARK  status: ('A' for Active; 'I' for Inactive)
REMARK    1  A    between atoms: C3_3  and  O1_4 
REMARK    2  A    between atoms: C4_6  and  O2_7 
REMARK    3  A    between atoms: C4_6  and  C5_9 
REMARK    4  A    between atoms: C17_23  and  O5_24 
ROOT
HETATM    1  C1  UNL     1      23.278   8.526  35.031  1.00  0.00     0.014 C 
HETATM    2  C2  UNL     1      23.276   7.059  34.571  1.00  0.00     0.025 C 
HETATM    3  C3  UNL     1      24.518   6.448  35.074  1.00  0.00     0.157 C 
HETATM    4  C4  UNL     1      24.382   4.954  35.400  1.00  0.00     0.087 C 
HETATM    5  C8  UNL     1      24.426   4.248  34.059  1.00  0.00     0.041 C 
HETATM    6  C9  UNL     1      23.085   4.556  33.387  1.00  0.00     0.009 C 
HETATM    7  C10 UNL     1      23.190   5.714  32.457  1.00  0.00     0.005 C 
HETATM    8  C11 UNL     1      21.895   5.925  31.718  1.00  0.00     0.029 C 
HETATM    9  C12 UNL     1      20.768   5.011  32.010  1.00  0.00     0.009 C 
HETATM   10  C13 UNL     1      19.678   5.959  32.472  1.00  0.00     0.008 C 
HETATM   11  C14 UNL     1      20.502   6.894  33.372  1.00  0.00     0.020 C 
HETATM   12  C15 UNL     1      19.620   8.139  33.541  1.00  0.00     0.013 C 
HETATM   13  C16 UNL     1      21.686   7.162  32.575  1.00  0.00     0.112 C 
HETATM   14  O3  UNL     1      21.506   8.303  31.757  1.00  0.00    -0.225 OA
HETATM   15  O4  UNL     1      22.210   8.115  30.662  1.00  0.00    -0.207 OA
HETATM   16  C17 UNL     1      23.529   8.328  30.970  1.00  0.00     0.294 C 
HETATM   17  C18 UNL     1      23.842   8.189  32.432  1.00  0.00     0.077 C 
HETATM   18  C19 UNL     1      23.059   7.060  33.103  1.00  0.00     0.009 C 
ENDROOT
BRANCH   4  19
HETATM   19  O2  UNL     1      23.189   4.662  36.010  1.00  0.00    -0.387 OA
ATOM     20  H2  UNL     1      23.309   4.285  36.875  1.00  0.00     0.210 HD
ENDBRANCH   4  19
BRANCH   4  21
HETATM   21  C5  UNL     1      25.591   4.608  36.246  1.00  0.00     0.022 A 
HETATM   22  C6  UNL     1      25.265   3.766  37.469  1.00  0.00     0.008 A 
HETATM   23  C7  UNL     1      26.069   3.212  36.347  1.00  0.00     0.008 A 
ENDBRANCH   4  21
BRANCH   3  24
HETATM   24  O1  UNL     1      25.643   6.584  34.321  1.00  0.00    -0.392 OA
ATOM     25  H1  UNL     1      26.476   6.363  34.723  1.00  0.00     0.210 HD
ENDBRANCH   3  24
BRANCH  16  26
HETATM   26  O5  UNL     1      24.419   7.598  30.166  1.00  0.00    -0.368 OA
ATOM     27  H5  UNL     1      25.334   7.764  30.363  1.00  0.00     0.212 HD
ENDBRANCH  16  26
TORSDOF 4
ENDMDL
MODEL 4
REMARK VINA RESULT: -5.439063930      1.030      1.138
REMARK  4 active torsions:
REMARK  status: ('A' for Active; 'I' for Inactive)
REMARK    1  A    between atoms: C3_3  and  O1_4 
REMARK    2  A    between atoms: C4_6  and  O2_7 
REMARK    3  A    between atoms: C4_6  and  C5_9 
REMARK    4  A    between atoms: C17_23  and  O5_24 
ROOT
HETATM    1  C1  UNL     1      21.273   4.938  31.826  1.00  0.00     0.014 C 
HETATM    2  C2  UNL     1      20.903   5.029  33.315  1.00  0.00     0.025 C 
HETATM    3  C3  UNL     1      19.490   5.436  33.383  1.00  0.00     0.157 C 
HETATM    4  C4  UNL     1      18.745   4.876  34.603  1.00  0.00     0.087 C 
HETATM    5  C8  UNL     1      19.183   5.740  35.768  1.00  0.00     0.041 C 
HETATM    6  C9  UNL     1      20.630   5.336  36.060  1.00  0.00     0.009 C 
HETATM    7  C10 UNL     1      21.600   6.247  35.392  1.00  0.00     0.005 C 
HETATM    8  C11 UNL     1      23.013   5.907  35.787  1.00  0.00     0.029 C 
HETATM    9  C12 UNL     1      23.223   4.777  36.721  1.00  0.00     0.009 C 
HETATM   10  C13 UNL     1      24.121   3.848  35.926  1.00  0.00     0.008 C 
HETATM   11  C14 UNL     1      23.438   3.931  34.550  1.00  0.00     0.020 C 
HETATM   12  C15 UNL     1      24.491   3.399  33.568  1.00  0.00     0.013 C 
HETATM   13  C16 UNL     1      23.199   5.353  34.385  1.00  0.00     0.112 C 
HETATM   14  O3  UNL     1      24.293   5.986  33.747  1.00  0.00    -0.225 OA
HETATM   15  O4  UNL     1      24.359   7.215  34.211  1.00  0.00    -0.207 OA
HETATM   16  C17 UNL     1      23.364   7.943  33.612  1.00  0.00     0.294 C 
HETATM   17  C18 UNL     1      22.242   7.107  33.068  1.00  0.00     0.077 C 
HETATM   18  C19 UNL     1      21.902   5.913  33.963  1.00  0.00     0.009 C 
ENDROOT
BRANCH   4  19
HETATM   19  O2  UNL     1      19.087   3.574  34.869  1.00  0.00    -0.387 OA
ATOM     20  H2  UNL     1      18.686   3.252  35.668  1.00  0.00     0.210 HD
ENDBRANCH   4  19
BRANCH   4  21
HETATM   21  C5  UNL     1      17.270   5.060  34.302  1.00  0.00     0.022 A 
HETATM   22  C6  UNL     1      16.924   4.939  32.827  1.00  0.00     0.008 A 
HETATM   23  C7  UNL     1      16.452   3.930  33.812  1.00  0.00     0.008 A 
ENDBRANCH   4  21
BRANCH   3  24
HETATM   24  O1  UNL     1      19.208   6.766  33.329  1.00  0.00    -0.392 OA
ATOM     25  H1  UNL     1      18.714   7.085  32.582  1.00  0.00     0.210 HD
ENDBRANCH   3  24
BRANCH  16  26
HETATM   26  O5  UNL     1      22.898   9.010  34.397  1.00  0.00    -0.368 OA
ATOM     27  H5  UNL     1      22.239   8.755  35.032  1.00  0.00     0.212 HD
ENDBRANCH  16  26
TORSDOF 4
ENDMDL
MODEL 5
REMARK VINA RESULT: -5.317002175      1.183      1.371
REMARK  4 active torsions:
REMARK  status: ('A' for Active; 'I' for Inactive)
REMARK    1  A    between atoms: C3_3  and  O1_4 
REMARK    2  A    between atoms: C4_6  and  O2_7 
REMARK    3  A    between atoms: C4_6  and  C5_9 
REMARK    4  A    between atoms: C17_23  and  O5_24 
ROOT
HETATM    1  C1  UNL     1      22.100   4.978  31.557  1.00  0.00     0.014 C 
HETATM    2  C2  UNL     1      21.627   5.145  33.011  1.00  0.00     0.025 C 
HETATM    3  C3  UNL     1      20.156   5.162  32.986  1.00  0.00     0.157 C 
HETATM    4  C4  UNL     1      19.511   4.572  34.249  1.00  0.00     0.087 C 
HETATM    5  C8  UNL     1      19.634   5.656  35.302  1.00  0.00     0.041 C 
HETATM    6  C9  UNL     1      21.115   5.694  35.683  1.00  0.00     0.009 C 
HETATM    7  C10 UNL     1      21.850   6.745  34.928  1.00  0.00     0.005 C 
HETATM    8  C11 UNL     1      23.276   6.847  35.402  1.00  0.00     0.029 C 
HETATM    9  C12 UNL     1      23.718   5.936  36.482  1.00  0.00     0.009 C 
HETATM   10  C13 UNL     1      24.876   5.194  35.841  1.00  0.00     0.008 C 
HETATM   11  C14 UNL     1      24.281   4.925  34.449  1.00  0.00     0.020 C 
HETATM   12  C15 UNL     1      25.495   4.582  33.574  1.00  0.00     0.013 C 
HETATM   13  C16 UNL     1      23.687   6.200  34.091  1.00  0.00     0.112 C 
HETATM   14  O3  UNL     1      24.613   7.023  33.405  1.00  0.00    -0.225 OA
HETATM   15  O4  UNL     1      24.325   8.270  33.705  1.00  0.00    -0.207 OA
HETATM   16  C17 UNL     1      23.212   8.627  32.987  1.00  0.00     0.294 C 
HETATM   17  C18 UNL     1      22.385   7.461  32.529  1.00  0.00     0.077 C 
HETATM   18  C19 UNL     1      22.317   6.336  33.564  1.00  0.00     0.009 C 
ENDROOT
BRANCH   4  19
HETATM   19  O2  UNL     1      20.166   3.452  34.693  1.00  0.00    -0.387 OA
ATOM     20  H2  UNL     1      21.110   3.532  34.614  1.00  0.00     0.210 HD
ENDBRANCH   4  19
BRANCH   4  21
HETATM   21  C5  UNL     1      18.060   4.316  33.886  1.00  0.00     0.022 A 
HETATM   22  C6  UNL     1      17.223   3.787  35.040  1.00  0.00     0.008 A 
HETATM   23  C7  UNL     1      16.979   5.140  34.469  1.00  0.00     0.008 A 
ENDBRANCH   4  21
BRANCH   3  24
HETATM   24  O1  UNL     1      19.538   6.351  32.749  1.00  0.00    -0.392 OA
ATOM     25  H1  UNL     1      18.640   6.452  33.046  1.00  0.00     0.210 HD
ENDBRANCH   3  24
BRANCH  16  26
HETATM   26  O5  UNL     1      22.434   9.616  33.612  1.00  0.00    -0.368 OA
ATOM     27  H5  UNL     1      22.352  10.413  33.103  1.00  0.00     0.212 HD
ENDBRANCH  16  26
TORSDOF 4
ENDMDL
