MODEL 1
REMARK VINA RESULT: -8.196341168      0.000      0.000
REMARK  4 active torsions:
REMARK  status: ('A' for Active; 'I' for Inactive)
REMARK    1  A    between atoms: C2_2  and  C4_4 
REMARK    2  A    between atoms: C11_12  and  O2_13 
REMARK    3  A    between atoms: C16_20  and  O4_21 
REMARK    4  A    between atoms: C19_25  and  O5_26 
ROOT
HETATM    1  C4  UNL     1      23.285   3.969  35.971  1.00  0.00     0.171 C 
HETATM    2  O1  UNL     1      23.757   2.898  35.201  1.00  0.00    -0.353 OA
HETATM    3  C5  UNL     1      24.704   2.253  35.995  1.00  0.00     0.180 C 
HETATM    4  C6  UNL     1      25.367   3.319  36.823  1.00  0.00    -0.017 C 
HETATM    5  C7  UNL     1      26.795   3.415  36.412  1.00  0.00     0.018 C 
HETATM    6  C8  UNL     1      25.394   2.938  38.308  1.00  0.00     0.018 C 
HETATM    7  C9  UNL     1      24.534   4.534  36.551  1.00  0.00     0.061 C 
HETATM    8  C10 UNL     1      25.180   5.635  35.855  1.00  0.00     0.043 C 
HETATM    9  C11 UNL     1      24.860   5.910  34.430  1.00  0.00     0.132 C 
HETATM   10  C12 UNL     1      23.514   6.546  34.207  1.00  0.00     0.045 A 
HETATM   11  C13 UNL     1      22.652   6.127  35.390  1.00  0.00     0.187 C 
HETATM   12  O3  UNL     1      22.487   4.792  35.265  1.00  0.00    -0.353 OA
HETATM   13  C14 UNL     1      23.262   7.781  33.586  1.00  0.00     0.039 A 
HETATM   14  C15 UNL     1      23.822   8.466  32.395  1.00  0.00     0.040 C 
HETATM   15  C16 UNL     1      22.726   8.570  31.384  1.00  0.00     0.118 C 
HETATM   16  C17 UNL     1      21.439   7.924  31.708  1.00  0.00     0.034 C 
HETATM   17  C18 UNL     1      21.491   6.646  32.498  1.00  0.00     0.042 C 
HETATM   18  C19 UNL     1      22.871   6.418  32.943  1.00  0.00     0.075 A 
ENDROOT
BRANCH   9  19
HETATM   19  O2  UNL     1      25.110   4.847  33.567  1.00  0.00    -0.395 OA
ATOM     20  H2  UNL     1      24.362   4.576  33.048  1.00  0.00     0.210 HD
ENDBRANCH   9  19
BRANCH  18  21
HETATM   21  O5  UNL     1      23.689   5.925  31.910  1.00  0.00    -0.388 OA
ATOM     22  H5  UNL     1      23.221   5.603  31.149  1.00  0.00     0.210 HD
ENDBRANCH  18  21
BRANCH   1  23
HETATM   23  C2  UNL     1      22.377   3.324  37.010  1.00  0.00     0.040 C 
HETATM   24  C1  UNL     1      22.204   4.120  38.246  1.00  0.00     0.015 C 
HETATM   25  C3  UNL     1      21.007   3.230  36.327  1.00  0.00     0.015 C 
ENDBRANCH   1  23
BRANCH  15  26
HETATM   26  O4  UNL     1      23.236   8.168  30.150  1.00  0.00    -0.396 OA
ATOM     27  H4  UNL     1      22.676   8.523  29.469  1.00  0.00     0.210 HD
ENDBRANCH  15  26
TORSDOF 4
ENDMDL
MODEL 2
REMARK VINA RESULT: -8.050794734      2.669      5.749
REMARK  4 active torsions:
REMARK  status: ('A' for Active; 'I' for Inactive)
REMARK    1  A    between atoms: C2_2  and  C4_4 
REMARK    2  A    between atoms: C11_12  and  O2_13 
REMARK    3  A    between atoms: C16_20  and  O4_21 
REMARK    4  A    between atoms: C19_25  and  O5_26 
ROOT
HETATM    1  C4  UNL     1      19.258   5.274  35.466  1.00  0.00     0.171 C 
HETATM    2  O1  UNL     1      19.122   6.661  35.606  1.00  0.00    -0.353 OA
HETATM    3  C5  UNL     1      18.083   7.026  34.752  1.00  0.00     0.180 C 
HETATM    4  C6  UNL     1      18.151   6.096  33.572  1.00  0.00    -0.017 C 
HETATM    5  C7  UNL     1      18.496   6.892  32.364  1.00  0.00     0.018 C 
HETATM    6  C8  UNL     1      16.783   5.471  33.273  1.00  0.00     0.018 C 
HETATM    7  C9  UNL     1      19.171   5.082  33.992  1.00  0.00     0.061 C 
HETATM    8  C10 UNL     1      20.408   5.037  33.228  1.00  0.00     0.043 C 
HETATM    9  C11 UNL     1      21.666   5.569  33.812  1.00  0.00     0.132 C 
HETATM   10  C12 UNL     1      22.278   4.696  34.874  1.00  0.00     0.045 A 
HETATM   11  C13 UNL     1      21.128   3.897  35.472  1.00  0.00     0.187 C 
HETATM   12  O3  UNL     1      20.346   4.800  36.101  1.00  0.00    -0.353 OA
HETATM   13  C14 UNL     1      23.564   4.129  34.856  1.00  0.00     0.039 A 
HETATM   14  C15 UNL     1      24.900   4.624  34.445  1.00  0.00     0.040 C 
HETATM   15  C16 UNL     1      25.749   4.689  35.673  1.00  0.00     0.118 C 
HETATM   16  C17 UNL     1      25.104   4.376  36.963  1.00  0.00     0.034 C 
HETATM   17  C18 UNL     1      23.667   4.785  37.129  1.00  0.00     0.042 C 
HETATM   18  C19 UNL     1      23.156   5.265  35.840  1.00  0.00     0.075 A 
ENDROOT
BRANCH   9  19
HETATM   19  O2  UNL     1      21.611   6.912  34.175  1.00  0.00    -0.395 OA
ATOM     20  H2  UNL     1      20.758   7.315  34.066  1.00  0.00     0.210 HD
ENDBRANCH   9  19
BRANCH  18  21
HETATM   21  O5  UNL     1      23.593   6.569  35.547  1.00  0.00    -0.388 OA
ATOM     22  H5  UNL     1      23.535   6.814  34.631  1.00  0.00     0.210 HD
ENDBRANCH  18  21
BRANCH   1  23
HETATM   23  C2  UNL     1      18.068   4.693  36.218  1.00  0.00     0.040 C 
HETATM   24  C1  UNL     1      18.171   3.243  36.496  1.00  0.00     0.015 C 
HETATM   25  C3  UNL     1      18.067   5.422  37.568  1.00  0.00     0.015 C 
ENDBRANCH   1  23
BRANCH  15  26
HETATM   26  O4  UNL     1      26.403   5.921  35.682  1.00  0.00    -0.396 OA
ATOM     27  H4  UNL     1      26.105   6.420  34.930  1.00  0.00     0.210 HD
ENDBRANCH  15  26
TORSDOF 4
ENDMDL
MODEL 3
REMARK VINA RESULT: -7.417553417      1.665      6.001
REMARK  4 active torsions:
REMARK  status: ('A' for Active; 'I' for Inactive)
REMARK    1  A    between atoms: C2_2  and  C4_4 
REMARK    2  A    between atoms: C11_12  and  O2_13 
REMARK    3  A    between atoms: C16_20  and  O4_21 
REMARK    4  A    between atoms: C19_25  and  O5_26 
ROOT
HETATM    1  C4  UNL     1      22.419   6.332  33.452  1.00  0.00     0.171 C 
HETATM    2  O1  UNL     1      22.169   5.282  32.558  1.00  0.00    -0.353 OA
HETATM    3  C5  UNL     1      20.823   5.394  32.213  1.00  0.00     0.180 C 
HETATM    4  C6  UNL     1      20.112   5.925  33.428  1.00  0.00    -0.017 C 
HETATM    5  C7  UNL     1      19.182   4.875  33.926  1.00  0.00     0.018 C 
HETATM    6  C8  UNL     1      19.225   7.125  33.076  1.00  0.00     0.018 C 
HETATM    7  C9  UNL     1      21.235   6.285  34.353  1.00  0.00     0.061 C 
HETATM    8  C10 UNL     1      21.338   5.528  35.590  1.00  0.00     0.043 C 
HETATM    9  C11 UNL     1      22.409   4.512  35.757  1.00  0.00     0.132 C 
HETATM   10  C12 UNL     1      23.782   5.085  35.981  1.00  0.00     0.045 A 
HETATM   11  C13 UNL     1      23.769   6.465  35.337  1.00  0.00     0.187 C 
HETATM   12  O3  UNL     1      23.641   6.247  34.011  1.00  0.00    -0.353 OA
HETATM   13  C14 UNL     1      24.615   4.860  37.091  1.00  0.00     0.039 A 
HETATM   14  C15 UNL     1      24.945   3.663  37.902  1.00  0.00     0.040 C 
HETATM   15  C16 UNL     1      26.392   3.362  37.685  1.00  0.00     0.118 C 
HETATM   16  C17 UNL     1      27.118   4.188  36.699  1.00  0.00     0.034 C 
HETATM   17  C18 UNL     1      26.350   4.650  35.492  1.00  0.00     0.042 C 
HETATM   18  C19 UNL     1      24.934   4.308  35.669  1.00  0.00     0.075 A 
ENDROOT
BRANCH   9  19
HETATM   19  O2  UNL     1      22.392   3.494  34.807  1.00  0.00    -0.395 OA
ATOM     20  H2  UNL     1      23.115   2.882  34.871  1.00  0.00     0.210 HD
ENDBRANCH   9  19
BRANCH  18  21
HETATM   21  O5  UNL     1      24.681   2.946  35.427  1.00  0.00    -0.388 OA
ATOM     22  H5  UNL     1      25.307   2.518  34.855  1.00  0.00     0.210 HD
ENDBRANCH  18  21
BRANCH   1  23
HETATM   23  C2  UNL     1      22.462   7.579  32.580  1.00  0.00     0.040 C 
HETATM   24  C1  UNL     1      22.465   8.852  33.334  1.00  0.00     0.015 C 
HETATM   25  C3  UNL     1      23.797   7.484  31.830  1.00  0.00     0.015 C 
ENDBRANCH   1  23
BRANCH  15  26
HETATM   26  O4  UNL     1      26.519   1.995  37.440  1.00  0.00    -0.396 OA
ATOM     27  H4  UNL     1      27.434   1.808  37.269  1.00  0.00     0.210 HD
ENDBRANCH  15  26
TORSDOF 4
ENDMDL
MODEL 4
REMARK VINA RESULT: -7.403983864      2.177      5.997
REMARK  4 active torsions:
REMARK  status: ('A' for Active; 'I' for Inactive)
REMARK    1  A    between atoms: C2_2  and  C4_4 
REMARK    2  A    between atoms: C11_12  and  O2_13 
REMARK    3  A    between atoms: C16_20  and  O4_21 
REMARK    4  A    between atoms: C19_25  and  O5_26 
ROOT
HETATM    1  C4  UNL     1      20.694   5.045  34.328  1.00  0.00     0.171 C 
HETATM    2  O1  UNL     1      20.159   3.780  34.056  1.00  0.00    -0.353 OA
HETATM    3  C5  UNL     1      18.783   3.905  34.242  1.00  0.00     0.180 C 
HETATM    4  C6  UNL     1      18.589   4.907  35.346  1.00  0.00    -0.017 C 
HETATM    5  C7  UNL     1      17.984   4.210  36.514  1.00  0.00     0.018 C 
HETATM    6  C8  UNL     1      17.580   5.990  34.948  1.00  0.00     0.018 C 
HETATM    7  C9  UNL     1      19.968   5.451  35.563  1.00  0.00     0.061 C 
HETATM    8  C10 UNL     1      20.591   5.179  36.849  1.00  0.00     0.043 C 
HETATM    9  C11 UNL     1      21.685   4.180  36.952  1.00  0.00     0.132 C 
HETATM   10  C12 UNL     1      23.007   4.645  36.401  1.00  0.00     0.045 A 
HETATM   11  C13 UNL     1      22.674   5.697  35.351  1.00  0.00     0.187 C 
HETATM   12  O3  UNL     1      22.039   5.035  34.360  1.00  0.00    -0.353 OA
HETATM   13  C14 UNL     1      24.221   4.742  37.101  1.00  0.00     0.039 A 
HETATM   14  C15 UNL     1      24.902   3.885  38.102  1.00  0.00     0.040 C 
HETATM   15  C16 UNL     1      26.156   3.373  37.472  1.00  0.00     0.118 C 
HETATM   16  C17 UNL     1      26.391   3.710  36.054  1.00  0.00     0.034 C 
HETATM   17  C18 UNL     1      25.186   3.791  35.159  1.00  0.00     0.042 C 
HETATM   18  C19 UNL     1      23.974   3.689  35.980  1.00  0.00     0.075 A 
ENDROOT
BRANCH   9  19
HETATM   19  O2  UNL     1      21.340   2.899  36.532  1.00  0.00    -0.395 OA
ATOM     20  H2  UNL     1      20.913   2.864  35.684  1.00  0.00     0.210 HD
ENDBRANCH   9  19
BRANCH  18  21
HETATM   21  O5  UNL     1      23.710   2.365  36.376  1.00  0.00    -0.388 OA
ATOM     22  H5  UNL     1      23.287   2.278  37.222  1.00  0.00     0.210 HD
ENDBRANCH  18  21
BRANCH   1  23
HETATM   23  C2  UNL     1      20.328   5.887  33.112  1.00  0.00     0.040 C 
HETATM   24  C1  UNL     1      20.564   7.338  33.281  1.00  0.00     0.015 C 
HETATM   25  C3  UNL     1      21.263   5.394  32.001  1.00  0.00     0.015 C 
ENDBRANCH   1  23
BRANCH  15  26
HETATM   26  O4  UNL     1      26.239   2.003  37.722  1.00  0.00    -0.396 OA
ATOM     27  H4  UNL     1      25.527   1.766  38.305  1.00  0.00     0.210 HD
ENDBRANCH  15  26
TORSDOF 4
ENDMDL
MODEL 5
REMARK VINA RESULT: -7.376559425      2.665      5.261
REMARK  4 active torsions:
REMARK  status: ('A' for Active; 'I' for Inactive)
REMARK    1  A    between atoms: C2_2  and  C4_4 
REMARK    2  A    between atoms: C11_12  and  O2_13 
REMARK    3  A    between atoms: C16_20  and  O4_21 
REMARK    4  A    between atoms: C19_25  and  O5_26 
ROOT
HETATM    1  C4  UNL     1      19.677   5.147  35.276  1.00  0.00     0.171 C 
HETATM    2  O1  UNL     1      19.214   6.436  35.571  1.00  0.00    -0.353 OA
HETATM    3  C5  UNL     1      17.937   6.513  35.018  1.00  0.00     0.180 C 
HETATM    4  C6  UNL     1      17.957   5.669  33.773  1.00  0.00    -0.017 C 
HETATM    5  C7  UNL     1      17.766   6.560  32.597  1.00  0.00     0.018 C 
HETATM    6  C8  UNL     1      16.777   4.691  33.742  1.00  0.00     0.018 C 
HETATM    7  C9  UNL     1      19.283   4.975  33.851  1.00  0.00     0.061 C 
HETATM    8  C10 UNL     1      20.258   5.299  32.821  1.00  0.00     0.043 C 
HETATM    9  C11 UNL     1      21.431   6.151  33.145  1.00  0.00     0.132 C 
HETATM   10  C12 UNL     1      22.498   5.461  33.952  1.00  0.00     0.045 A 
HETATM   11  C13 UNL     1      21.789   4.355  34.723  1.00  0.00     0.187 C 
HETATM   12  O3  UNL     1      20.974   4.985  35.596  1.00  0.00    -0.353 OA
HETATM   13  C14 UNL     1      23.843   5.280  33.586  1.00  0.00     0.039 A 
HETATM   14  C15 UNL     1      24.852   6.143  32.925  1.00  0.00     0.040 C 
HETATM   15  C16 UNL     1      25.929   6.415  33.925  1.00  0.00     0.118 C 
HETATM   16  C17 UNL     1      25.731   5.901  35.294  1.00  0.00     0.034 C 
HETATM   17  C18 UNL     1      24.325   5.883  35.824  1.00  0.00     0.042 C 
HETATM   18  C19 UNL     1      23.402   6.231  34.738  1.00  0.00     0.075 A 
ENDROOT
BRANCH   9  19
HETATM   19  O2  UNL     1      21.110   7.414  33.635  1.00  0.00    -0.395 OA
ATOM     20  H2  UNL     1      21.806   7.837  34.123  1.00  0.00     0.210 HD
ENDBRANCH   9  19
BRANCH  18  21
HETATM   21  O5  UNL     1      23.386   7.612  34.474  1.00  0.00    -0.388 OA
ATOM     22  H5  UNL     1      23.918   7.884  33.735  1.00  0.00     0.210 HD
ENDBRANCH  18  21
BRANCH   1  23
HETATM   23  C2  UNL     1      18.911   4.235  36.225  1.00  0.00     0.040 C 
HETATM   24  C1  UNL     1      18.588   2.904  35.665  1.00  0.00     0.015 C 
HETATM   25  C3  UNL     1      19.862   4.019  37.410  1.00  0.00     0.015 C 
ENDBRANCH   1  23
BRANCH  15  26
HETATM   26  O4  UNL     1      26.210   7.781  33.897  1.00  0.00    -0.396 OA
ATOM     27  H4  UNL     1      27.110   7.892  33.612  1.00  0.00     0.210 HD
ENDBRANCH  15  26
TORSDOF 4
ENDMDL
