MODEL 1
REMARK VINA RESULT: -6.704247952      0.000      0.000
REMARK  9 active torsions:
REMARK  status: ('A' for Active; 'I' for Inactive)
REMARK    1  A    between atoms: C2_2  and  C3_4 
REMARK    2  A    between atoms: C3_4  and  N1_5 
REMARK    3  A    between atoms: C8_11  and  N2_12 
REMARK       I    between atoms: N2_12  and  C9_13 
REMARK       I    between atoms: N2_12  and  C10_16 
REMARK    4  A    between atoms: C10_16  and  C11_18 
REMARK    5  A    between atoms: C11_18  and  C12_19 
REMARK    6  A    between atoms: C12_19  and  C13_20 
REMARK    7  A    between atoms: C13_20  and  N4_21 
REMARK    8  A    between atoms: C17_28  and  C18_29 
REMARK    9  A    between atoms: C18_29  and  C19_30 
ROOT
HETATM    1  N1  UNL     1       3.530  22.085  17.413  1.00  0.00    -0.340 N 
HETATM    2  C4  UNL     1       2.264  22.052  16.751  1.00  0.00     0.225 C 
HETATM    3  O2  UNL     1       1.944  22.938  15.897  1.00  0.00    -0.273 OA
HETATM    4  C5  UNL     1       1.331  20.958  17.084  1.00  0.00     0.084 C 
HETATM    5  C6  UNL     1      -0.121  21.219  16.844  1.00  0.00     0.016 C 
HETATM    6  C7  UNL     1      -0.778  20.277  17.886  1.00  0.00     0.027 C 
HETATM    7  C8  UNL     1       0.136  20.302  19.068  1.00  0.00     0.102 C 
HETATM    8  C15 UNL     1       1.359  20.873  18.575  1.00  0.00     0.024 C 
HETATM    9  C16 UNL     1       2.709  20.442  19.043  1.00  0.00     0.033 C 
HETATM   10  C17 UNL     1       3.603  21.647  18.804  1.00  0.00     0.098 C 
ENDROOT
BRANCH   7  11
HETATM   11  N2  UNL     1       0.175  19.040  19.785  1.00  0.00    -0.267 N 
HETATM   12  C9  UNL     1       0.325  18.951  21.174  1.00  0.00     0.338 C 
HETATM   13  N3  UNL     1       0.347  17.780  21.967  1.00  0.00    -0.039 NA
HETATM   14  O3  UNL     1       0.462  20.024  21.851  1.00  0.00    -0.250 OA
HETATM   15  C10 UNL     1       0.045  17.823  19.023  1.00  0.00     0.227 C 
HETATM   16  O4  UNL     1      -0.100  17.944  17.751  1.00  0.00    -0.273 OA
BRANCH  15  17
HETATM   17  C11 UNL     1       0.062  16.461  19.539  1.00  0.00     0.105 C 
BRANCH  17  18
HETATM   18  C12 UNL     1      -1.347  15.897  19.485  1.00  0.00     0.029 C 
BRANCH  18  19
HETATM   19  C13 UNL     1      -1.350  14.450  19.054  1.00  0.00     0.122 C 
BRANCH  19  20
HETATM   20  N4  UNL     1      -1.799  14.427  17.679  1.00  0.00    -0.367 N 
HETATM   21  C14 UNL     1      -1.263  13.598  16.866  1.00  0.00     0.196 C 
HETATM   22  N5  UNL     1      -0.248  12.725  17.323  1.00  0.00    -0.067 NA
HETATM   23  N6  UNL     1      -1.708  13.585  15.531  1.00  0.00    -0.067 NA
ATOM     24  H4  UNL     1      -2.531  15.063  17.363  1.00  0.00     0.161 HD
ENDBRANCH  19  20
ENDBRANCH  18  19
ENDBRANCH  17  18
ENDBRANCH  15  17
ENDBRANCH   7  11
BRANCH  10  25
HETATM   25  C18 UNL     1       4.977  21.533  19.308  1.00  0.00     0.138 C 
BRANCH  25  26
HETATM   26  C19 UNL     1       5.154  21.880  20.724  1.00  0.00     0.174 C 
HETATM   27  O5  UNL     1       5.444  23.010  21.155  1.00  0.00    -0.648 OA
HETATM   28  O6  UNL     1       4.995  20.901  21.728  1.00  0.00    -0.648 OA
ENDBRANCH  25  26
ENDBRANCH  10  25
BRANCH   1  29
HETATM   29  C3  UNL     1       4.677  22.602  16.696  1.00  0.00     0.204 C 
BRANCH  29  30
HETATM   30  C2  UNL     1       5.066  21.776  15.533  1.00  0.00     0.140 C 
HETATM   31  C1  UNL     1       5.442  20.360  15.721  1.00  0.00     0.092 C 
HETATM   32  O1  UNL     1       5.083  22.234  14.393  1.00  0.00    -0.297 OA
ENDBRANCH  29  30
ENDBRANCH   1  29
TORSDOF 9
ENDMDL
MODEL 2
REMARK VINA RESULT: -6.423022907      4.582      7.321
REMARK  9 active torsions:
REMARK  status: ('A' for Active; 'I' for Inactive)
REMARK    1  A    between atoms: C2_2  and  C3_4 
REMARK    2  A    between atoms: C3_4  and  N1_5 
REMARK    3  A    between atoms: C8_11  and  N2_12 
REMARK       I    between atoms: N2_12  and  C9_13 
REMARK       I    between atoms: N2_12  and  C10_16 
REMARK    4  A    between atoms: C10_16  and  C11_18 
REMARK    5  A    between atoms: C11_18  and  C12_19 
REMARK    6  A    between atoms: C12_19  and  C13_20 
REMARK    7  A    between atoms: C13_20  and  N4_21 
REMARK    8  A    between atoms: C17_28  and  C18_29 
REMARK    9  A    between atoms: C18_29  and  C19_30 
ROOT
HETATM    1  N1  UNL     1      -0.628  17.769  19.239  1.00  0.00    -0.340 N 
HETATM    2  C4  UNL     1      -0.294  18.679  18.190  1.00  0.00     0.225 C 
HETATM    3  O2  UNL     1       0.867  18.686  17.670  1.00  0.00    -0.273 OA
HETATM    4  C5  UNL     1      -1.332  19.616  17.722  1.00  0.00     0.084 C 
HETATM    5  C6  UNL     1      -0.857  20.874  17.070  1.00  0.00     0.016 C 
HETATM    6  C7  UNL     1      -2.036  21.837  17.365  1.00  0.00     0.027 C 
HETATM    7  C8  UNL     1      -2.528  21.451  18.722  1.00  0.00     0.102 C 
HETATM    8  C15 UNL     1      -1.946  20.161  18.969  1.00  0.00     0.024 C 
HETATM    9  C16 UNL     1      -2.651  19.077  19.715  1.00  0.00     0.033 C 
HETATM   10  C17 UNL     1      -1.538  18.216  20.289  1.00  0.00     0.098 C 
ENDROOT
BRANCH   7  11
HETATM   11  N2  UNL     1      -3.959  21.633  18.882  1.00  0.00    -0.267 N 
HETATM   12  C9  UNL     1      -4.889  21.313  17.886  1.00  0.00     0.338 C 
HETATM   13  N3  UNL     1      -6.298  21.425  17.951  1.00  0.00    -0.039 NA
HETATM   14  O3  UNL     1      -4.468  20.864  16.768  1.00  0.00    -0.250 OA
HETATM   15  C10 UNL     1      -4.440  22.163  20.133  1.00  0.00     0.227 C 
HETATM   16  O4  UNL     1      -3.558  22.437  21.028  1.00  0.00    -0.273 OA
BRANCH  15  17
HETATM   17  C11 UNL     1      -5.825  22.427  20.498  1.00  0.00     0.105 C 
BRANCH  17  18
HETATM   18  C12 UNL     1      -6.168  21.621  21.739  1.00  0.00     0.029 C 
BRANCH  18  19
HETATM   19  C13 UNL     1      -7.523  20.964  21.617  1.00  0.00     0.122 C 
BRANCH  19  20
HETATM   20  N4  UNL     1      -7.554  20.316  20.324  1.00  0.00    -0.367 N 
HETATM   21  C14 UNL     1      -8.221  19.233  20.189  1.00  0.00     0.196 C 
HETATM   22  N5  UNL     1      -8.910  18.692  21.300  1.00  0.00    -0.067 NA
HETATM   23  N6  UNL     1      -8.245  18.613  18.926  1.00  0.00    -0.067 NA
ATOM     24  H4  UNL     1      -7.052  20.717  19.532  1.00  0.00     0.161 HD
ENDBRANCH  19  20
ENDBRANCH  18  19
ENDBRANCH  17  18
ENDBRANCH  15  17
ENDBRANCH   7  11
BRANCH  10  25
HETATM   25  C18 UNL     1      -1.964  17.139  21.190  1.00  0.00     0.138 C 
BRANCH  25  26
HETATM   26  C19 UNL     1      -1.366  17.173  22.532  1.00  0.00     0.174 C 
HETATM   27  O5  UNL     1      -1.905  16.747  23.568  1.00  0.00    -0.648 OA
HETATM   28  O6  UNL     1      -0.080  17.718  22.730  1.00  0.00    -0.648 OA
ENDBRANCH  25  26
ENDBRANCH  10  25
BRANCH   1  29
HETATM   29  C3  UNL     1      -0.009  16.460  19.249  1.00  0.00     0.204 C 
BRANCH  29  30
HETATM   30  C2  UNL     1      -0.765  15.446  18.483  1.00  0.00     0.140 C 
HETATM   31  C1  UNL     1      -0.996  14.104  19.055  1.00  0.00     0.092 C 
HETATM   32  O1  UNL     1      -1.220  15.686  17.366  1.00  0.00    -0.297 OA
ENDBRANCH  29  30
ENDBRANCH   1  29
TORSDOF 9
ENDMDL
MODEL 3
REMARK VINA RESULT: -6.405131269      2.521      4.268
REMARK  9 active torsions:
REMARK  status: ('A' for Active; 'I' for Inactive)
REMARK    1  A    between atoms: C2_2  and  C3_4 
REMARK    2  A    between atoms: C3_4  and  N1_5 
REMARK    3  A    between atoms: C8_11  and  N2_12 
REMARK       I    between atoms: N2_12  and  C9_13 
REMARK       I    between atoms: N2_12  and  C10_16 
REMARK    4  A    between atoms: C10_16  and  C11_18 
REMARK    5  A    between atoms: C11_18  and  C12_19 
REMARK    6  A    between atoms: C12_19  and  C13_20 
REMARK    7  A    between atoms: C13_20  and  N4_21 
REMARK    8  A    between atoms: C17_28  and  C18_29 
REMARK    9  A    between atoms: C18_29  and  C19_30 
ROOT
HETATM    1  N1  UNL     1       4.371  22.853  21.561  1.00  0.00    -0.340 N 
HETATM    2  C4  UNL     1       4.569  22.312  20.253  1.00  0.00     0.225 C 
HETATM    3  O2  UNL     1       5.375  22.854  19.432  1.00  0.00    -0.273 OA
HETATM    4  C5  UNL     1       3.812  21.103  19.876  1.00  0.00     0.084 C 
HETATM    5  C6  UNL     1       3.591  20.878  18.415  1.00  0.00     0.016 C 
HETATM    6  C7  UNL     1       2.281  20.049  18.427  1.00  0.00     0.027 C 
HETATM    7  C8  UNL     1       1.479  20.599  19.561  1.00  0.00     0.102 C 
HETATM    8  C15 UNL     1       2.416  21.368  20.333  1.00  0.00     0.024 C 
HETATM    9  C16 UNL     1       2.368  21.457  21.822  1.00  0.00     0.033 C 
HETATM   10  C17 UNL     1       3.039  22.780  22.152  1.00  0.00     0.098 C 
ENDROOT
BRANCH   7  11
HETATM   11  N2  UNL     1       0.662  19.597  20.220  1.00  0.00    -0.267 N 
HETATM   12  C9  UNL     1       1.185  18.420  20.769  1.00  0.00     0.338 C 
HETATM   13  N3  UNL     1       0.484  17.399  21.452  1.00  0.00    -0.039 NA
HETATM   14  O3  UNL     1       2.438  18.194  20.668  1.00  0.00    -0.250 OA
HETATM   15  C10 UNL     1      -0.757  19.834  20.316  1.00  0.00     0.227 C 
HETATM   16  O4  UNL     1      -1.201  20.929  19.809  1.00  0.00    -0.273 OA
BRANCH  15  17
HETATM   17  C11 UNL     1      -1.751  18.962  20.927  1.00  0.00     0.105 C 
BRANCH  17  18
HETATM   18  C12 UNL     1      -2.753  18.539  19.867  1.00  0.00     0.029 C 
BRANCH  18  19
HETATM   19  C13 UNL     1      -2.149  17.557  18.891  1.00  0.00     0.122 C 
BRANCH  19  20
HETATM   20  N4  UNL     1      -1.771  16.390  19.659  1.00  0.00    -0.367 N 
HETATM   21  C14 UNL     1      -1.273  15.382  19.049  1.00  0.00     0.196 C 
HETATM   22  N5  UNL     1      -1.103  15.427  17.645  1.00  0.00    -0.067 NA
HETATM   23  N6  UNL     1      -0.909  14.254  19.806  1.00  0.00    -0.067 NA
ATOM     24  H4  UNL     1      -1.900  16.372  20.670  1.00  0.00     0.161 HD
ENDBRANCH  19  20
ENDBRANCH  18  19
ENDBRANCH  17  18
ENDBRANCH  15  17
ENDBRANCH   7  11
BRANCH  10  25
HETATM   25  C18 UNL     1       3.005  23.178  23.565  1.00  0.00     0.138 C 
BRANCH  25  26
HETATM   26  C19 UNL     1       2.640  22.112  24.507  1.00  0.00     0.174 C 
HETATM   27  O5  UNL     1       1.517  21.961  25.019  1.00  0.00    -0.648 OA
HETATM   28  O6  UNL     1       3.593  21.150  24.905  1.00  0.00    -0.648 OA
ENDBRANCH  25  26
ENDBRANCH  10  25
BRANCH   1  29
HETATM   29  C3  UNL     1       5.484  23.499  22.223  1.00  0.00     0.204 C 
BRANCH  29  30
HETATM   30  C2  UNL     1       6.340  22.564  22.984  1.00  0.00     0.140 C 
HETATM   31  C1  UNL     1       6.630  22.816  24.410  1.00  0.00     0.092 C 
HETATM   32  O1  UNL     1       6.825  21.562  22.462  1.00  0.00    -0.297 OA
ENDBRANCH  29  30
ENDBRANCH   1  29
TORSDOF 9
ENDMDL
MODEL 4
REMARK VINA RESULT: -6.398187623      3.105      7.437
REMARK  9 active torsions:
REMARK  status: ('A' for Active; 'I' for Inactive)
REMARK    1  A    between atoms: C2_2  and  C3_4 
REMARK    2  A    between atoms: C3_4  and  N1_5 
REMARK    3  A    between atoms: C8_11  and  N2_12 
REMARK       I    between atoms: N2_12  and  C9_13 
REMARK       I    between atoms: N2_12  and  C10_16 
REMARK    4  A    between atoms: C10_16  and  C11_18 
REMARK    5  A    between atoms: C11_18  and  C12_19 
REMARK    6  A    between atoms: C12_19  and  C13_20 
REMARK    7  A    between atoms: C13_20  and  N4_21 
REMARK    8  A    between atoms: C17_28  and  C18_29 
REMARK    9  A    between atoms: C18_29  and  C19_30 
ROOT
HETATM    1  N1  UNL     1      -0.709  17.644  19.741  1.00  0.00    -0.340 N 
HETATM    2  C4  UNL     1       0.611  17.767  20.275  1.00  0.00     0.225 C 
HETATM    3  O2  UNL     1       0.941  17.182  21.354  1.00  0.00    -0.273 OA
HETATM    4  C5  UNL     1       1.586  18.596  19.541  1.00  0.00     0.084 C 
HETATM    5  C6  UNL     1       2.718  19.162  20.336  1.00  0.00     0.016 C 
HETATM    6  C7  UNL     1       3.062  20.434  19.517  1.00  0.00     0.027 C 
HETATM    7  C8  UNL     1       1.751  20.938  19.007  1.00  0.00     0.102 C 
HETATM    8  C15 UNL     1       0.841  19.841  19.188  1.00  0.00     0.024 C 
HETATM    9  C16 UNL     1      -0.262  19.529  18.232  1.00  0.00     0.033 C 
HETATM   10  C17 UNL     1      -1.299  18.795  19.065  1.00  0.00     0.098 C 
ENDROOT
BRANCH   7  11
HETATM   11  N2  UNL     1       1.853  21.575  17.707  1.00  0.00    -0.267 N 
HETATM   12  C9  UNL     1       2.615  21.054  16.655  1.00  0.00     0.338 C 
HETATM   13  N3  UNL     1       2.759  21.580  15.349  1.00  0.00    -0.039 NA
HETATM   14  O3  UNL     1       3.279  19.981  16.845  1.00  0.00    -0.250 OA
HETATM   15  C10 UNL     1       1.126  22.802  17.494  1.00  0.00     0.227 C 
HETATM   16  O4  UNL     1       0.429  23.246  18.480  1.00  0.00    -0.273 OA
BRANCH  15  17
HETATM   17  C11 UNL     1       1.094  23.601  16.276  1.00  0.00     0.105 C 
BRANCH  17  18
HETATM   18  C12 UNL     1      -0.334  23.660  15.764  1.00  0.00     0.029 C 
BRANCH  18  19
HETATM   19  C13 UNL     1      -0.800  22.314  15.261  1.00  0.00     0.122 C 
BRANCH  19  20
HETATM   20  N4  UNL     1      -2.241  22.298  15.393  1.00  0.00    -0.367 N 
HETATM   21  C14 UNL     1      -2.958  22.223  14.337  1.00  0.00     0.196 C 
HETATM   22  N5  UNL     1      -2.334  22.158  13.068  1.00  0.00    -0.067 NA
HETATM   23  N6  UNL     1      -4.358  22.207  14.477  1.00  0.00    -0.067 NA
ATOM     24  H4  UNL     1      -2.677  22.346  16.313  1.00  0.00     0.161 HD
ENDBRANCH  19  20
ENDBRANCH  18  19
ENDBRANCH  17  18
ENDBRANCH  15  17
ENDBRANCH   7  11
BRANCH  10  25
HETATM   25  C18 UNL     1      -2.564  18.487  18.386  1.00  0.00     0.138 C 
BRANCH  25  26
HETATM   26  C19 UNL     1      -3.000  19.481  17.396  1.00  0.00     0.174 C 
HETATM   27  O5  UNL     1      -2.943  19.339  16.163  1.00  0.00    -0.648 OA
HETATM   28  O6  UNL     1      -3.538  20.718  17.812  1.00  0.00    -0.648 OA
ENDBRANCH  25  26
ENDBRANCH  10  25
BRANCH   1  29
HETATM   29  C3  UNL     1      -1.426  16.402  19.938  1.00  0.00     0.204 C 
BRANCH  29  30
HETATM   30  C2  UNL     1      -0.880  15.275  19.153  1.00  0.00     0.140 C 
HETATM   31  C1  UNL     1      -1.308  15.069  17.754  1.00  0.00     0.092 C 
HETATM   32  O1  UNL     1      -0.063  14.491  19.631  1.00  0.00    -0.297 OA
ENDBRANCH  29  30
ENDBRANCH   1  29
TORSDOF 9
ENDMDL
MODEL 5
REMARK VINA RESULT: -6.368790828      1.691      3.675
REMARK  9 active torsions:
REMARK  status: ('A' for Active; 'I' for Inactive)
REMARK    1  A    between atoms: C2_2  and  C3_4 
REMARK    2  A    between atoms: C3_4  and  N1_5 
REMARK    3  A    between atoms: C8_11  and  N2_12 
REMARK       I    between atoms: N2_12  and  C9_13 
REMARK       I    between atoms: N2_12  and  C10_16 
REMARK    4  A    between atoms: C10_16  and  C11_18 
REMARK    5  A    between atoms: C11_18  and  C12_19 
REMARK    6  A    between atoms: C12_19  and  C13_20 
REMARK    7  A    between atoms: C13_20  and  N4_21 
REMARK    8  A    between atoms: C17_28  and  C18_29 
REMARK    9  A    between atoms: C18_29  and  C19_30 
ROOT
HETATM    1  N1  UNL     1       4.727  21.782  18.431  1.00  0.00    -0.340 N 
HETATM    2  C4  UNL     1       4.555  21.474  19.816  1.00  0.00     0.225 C 
HETATM    3  O2  UNL     1       5.547  21.446  20.611  1.00  0.00    -0.273 OA
HETATM    4  C5  UNL     1       3.193  21.186  20.303  1.00  0.00     0.084 C 
HETATM    5  C6  UNL     1       3.084  20.355  21.540  1.00  0.00     0.016 C 
HETATM    6  C7  UNL     1       1.694  19.696  21.346  1.00  0.00     0.027 C 
HETATM    7  C8  UNL     1       1.577  19.453  19.877  1.00  0.00     0.102 C 
HETATM    8  C15 UNL     1       2.612  20.257  19.289  1.00  0.00     0.024 C 
HETATM    9  C16 UNL     1       2.461  20.952  17.977  1.00  0.00     0.033 C 
HETATM   10  C17 UNL     1       3.879  21.105  17.454  1.00  0.00     0.098 C 
ENDROOT
BRANCH   7  11
HETATM   11  N2  UNL     1       0.215  19.572  19.387  1.00  0.00    -0.267 N 
HETATM   12  C9  UNL     1      -0.592  20.691  19.625  1.00  0.00     0.338 C 
HETATM   13  N3  UNL     1      -1.913  20.916  19.172  1.00  0.00    -0.039 NA
HETATM   14  O3  UNL     1      -0.127  21.649  20.329  1.00  0.00    -0.250 OA
HETATM   15  C10 UNL     1      -0.324  18.482  18.613  1.00  0.00     0.227 C 
HETATM   16  O4  UNL     1       0.448  17.474  18.406  1.00  0.00    -0.273 OA
BRANCH  15  17
HETATM   17  C11 UNL     1      -1.659  18.394  18.035  1.00  0.00     0.105 C 
BRANCH  17  18
HETATM   18  C12 UNL     1      -2.387  17.215  18.655  1.00  0.00     0.029 C 
BRANCH  18  19
HETATM   19  C13 UNL     1      -2.573  16.092  17.662  1.00  0.00     0.122 C 
BRANCH  19  20
HETATM   20  N4  UNL     1      -1.663  15.038  18.052  1.00  0.00    -0.367 N 
HETATM   21  C14 UNL     1      -1.389  14.113  17.212  1.00  0.00     0.196 C 
HETATM   22  N5  UNL     1      -1.977  14.138  15.925  1.00  0.00    -0.067 NA
HETATM   23  N6  UNL     1      -0.501  13.094  17.602  1.00  0.00    -0.067 NA
ATOM     24  H4  UNL     1      -1.246  15.032  18.983  1.00  0.00     0.161 HD
ENDBRANCH  19  20
ENDBRANCH  18  19
ENDBRANCH  17  18
ENDBRANCH  15  17
ENDBRANCH   7  11
BRANCH  10  25
HETATM   25  C18 UNL     1       4.005  21.649  16.097  1.00  0.00     0.138 C 
BRANCH  25  26
HETATM   26  C19 UNL     1       4.906  20.906  15.206  1.00  0.00     0.174 C 
HETATM   27  O5  UNL     1       5.752  20.072  15.575  1.00  0.00    -0.648 OA
HETATM   28  O6  UNL     1       4.859  21.104  13.810  1.00  0.00    -0.648 OA
ENDBRANCH  25  26
ENDBRANCH  10  25
BRANCH   1  29
HETATM   29  C3  UNL     1       5.769  22.712  18.049  1.00  0.00     0.204 C 
BRANCH  29  30
HETATM   30  C2  UNL     1       5.515  24.098  18.497  1.00  0.00     0.140 C 
HETATM   31  C1  UNL     1       4.216  24.741  18.218  1.00  0.00     0.092 C 
HETATM   32  O1  UNL     1       6.363  24.744  19.109  1.00  0.00    -0.297 OA
ENDBRANCH  29  30
ENDBRANCH   1  29
TORSDOF 9
ENDMDL
