MODEL 1
REMARK VINA RESULT: -7.288718385      0.000      0.000
REMARK  9 active torsions:
REMARK  status: ('A' for Active; 'I' for Inactive)
REMARK    1  A    between atoms: N1_2  and  C3_4 
REMARK    2  A    between atoms: N2_6  and  N3_8 
REMARK    3  A    between atoms: N3_8  and  N4_10 
REMARK    4  A    between atoms: N4_10  and  N5_11 
REMARK    5  A    between atoms: N5_11  and  C4_13 
REMARK    6  A    between atoms: C8_18  and  O1_19 
REMARK    7  A    between atoms: C9_21  and  N6_22 
REMARK    8  A    between atoms: N6_22  and  N7_24 
REMARK    9  A    between atoms: N8_26  and  N9_28 
ROOT
HETATM    1  C4  UNL     1      71.820  46.430  50.216  1.00  0.00     0.115 A 
HETATM    2  C5  UNL     1      72.250  47.657  49.803  1.00  0.00     0.146 A 
HETATM    3  F1  UNL     1      71.432  48.736  49.693  1.00  0.00    -0.204 F 
HETATM    4  C6  UNL     1      73.577  47.826  49.476  1.00  0.00     0.047 A 
HETATM    5  C7  UNL     1      74.437  46.761  49.573  1.00  0.00     0.042 A 
HETATM    6  C8  UNL     1      73.967  45.496  50.005  1.00  0.00     0.096 A 
HETATM    7  C9  UNL     1      72.647  45.296  50.339  1.00  0.00     0.113 A 
ENDROOT
BRANCH   1   8
HETATM    8  N5  UNL     1      70.436  46.315  50.527  1.00  0.00    -0.278 N 
ATOM      9  H5  UNL     1      69.810  45.796  49.911  1.00  0.00     0.184 HD
BRANCH   8  10
HETATM   10  N4  UNL     1      69.953  46.913  51.670  1.00  0.00    -0.006 NA
BRANCH  10  11
HETATM   11  N3  UNL     1      69.787  45.998  52.722  1.00  0.00    -0.224 N 
ATOM     12  H3  UNL     1      69.561  45.019  52.549  1.00  0.00     0.205 HD
BRANCH  11  13
HETATM   13  N2  UNL     1      69.946  46.494  54.014  1.00  0.00    -0.263 N 
HETATM   14  C3  UNL     1      70.795  45.974  54.800  1.00  0.00     0.192 C 
HETATM   15 CL1  UNL     1      70.993  46.594  56.416  1.00  0.00    -0.044 Cl
ATOM     16  H2  UNL     1      69.377  47.280  54.329  1.00  0.00     0.190 HD
BRANCH  14  17
HETATM   17  N1  UNL     1      71.588  44.887  54.383  1.00  0.00    -0.365 N 
HETATM   18  C1  UNL     1      72.986  45.178  54.036  1.00  0.00     0.151 C 
HETATM   19  C2  UNL     1      71.071  43.533  54.288  1.00  0.00     0.151 C 
ENDBRANCH  14  17
ENDBRANCH  11  13
ENDBRANCH  10  11
ENDBRANCH   8  10
ENDBRANCH   1   8
BRANCH   7  20
HETATM   20  N6  UNL     1      72.089  44.075  50.784  1.00  0.00    -0.280 N 
ATOM     21  H6  UNL     1      71.073  44.051  50.865  1.00  0.00     0.188 HD
BRANCH  20  22
HETATM   22  N7  UNL     1      72.742  42.926  51.117  1.00  0.00    -0.223 N 
HETATM   23  N8  UNL     1      73.075  42.030  50.315  1.00  0.00    -0.168 N 
ATOM     24  H8  UNL     1      72.860  42.125  49.323  1.00  0.00     0.216 HD
ATOM     25  H7  UNL     1      72.977  42.789  52.100  1.00  0.00     0.210 HD
BRANCH  23  26
HETATM   26  N9  UNL     1      73.747  40.891  50.783  1.00  0.00    -0.022 N 
HETATM   27  O2  UNL     1      74.971  40.889  50.851  1.00  0.00    -0.515 OA
HETATM   28  O3  UNL     1      73.044  39.794  51.158  1.00  0.00    -0.515 OA
ENDBRANCH  23  26
ENDBRANCH  20  22
ENDBRANCH   7  20
BRANCH   6  29
HETATM   29  O1  UNL     1      74.914  44.527  50.060  1.00  0.00    -0.358 OA
ATOM     30  H1  UNL     1      75.197  44.295  50.937  1.00  0.00     0.217 HD
ENDBRANCH   6  29
TORSDOF 9
ENDMDL
MODEL 2
REMARK VINA RESULT: -7.281839924      1.461      1.709
REMARK  9 active torsions:
REMARK  status: ('A' for Active; 'I' for Inactive)
REMARK    1  A    between atoms: N1_2  and  C3_4 
REMARK    2  A    between atoms: N2_6  and  N3_8 
REMARK    3  A    between atoms: N3_8  and  N4_10 
REMARK    4  A    between atoms: N4_10  and  N5_11 
REMARK    5  A    between atoms: N5_11  and  C4_13 
REMARK    6  A    between atoms: C8_18  and  O1_19 
REMARK    7  A    between atoms: C9_21  and  N6_22 
REMARK    8  A    between atoms: N6_22  and  N7_24 
REMARK    9  A    between atoms: N8_26  and  N9_28 
ROOT
HETATM    1  C4  UNL     1      71.797  46.451  50.212  1.00  0.00     0.115 A 
HETATM    2  C5  UNL     1      72.220  47.680  49.798  1.00  0.00     0.146 A 
HETATM    3  F1  UNL     1      71.394  48.752  49.679  1.00  0.00    -0.204 F 
HETATM    4  C6  UNL     1      73.548  47.859  49.479  1.00  0.00     0.047 A 
HETATM    5  C7  UNL     1      74.415  46.801  49.586  1.00  0.00     0.042 A 
HETATM    6  C8  UNL     1      73.953  45.534  50.019  1.00  0.00     0.096 A 
HETATM    7  C9  UNL     1      72.632  45.324  50.345  1.00  0.00     0.113 A 
ENDROOT
BRANCH   1   8
HETATM    8  N5  UNL     1      70.412  46.326  50.514  1.00  0.00    -0.278 N 
ATOM      9  H5  UNL     1      69.795  45.796  49.898  1.00  0.00     0.184 HD
BRANCH   8  10
HETATM   10  N4  UNL     1      69.914  46.928  51.648  1.00  0.00    -0.006 NA
BRANCH  10  11
HETATM   11  N3  UNL     1      69.866  46.050  52.743  1.00  0.00    -0.224 N 
ATOM     12  H3  UNL     1      70.366  46.248  53.609  1.00  0.00     0.205 HD
BRANCH  11  13
HETATM   13  N2  UNL     1      69.102  44.897  52.587  1.00  0.00    -0.263 N 
HETATM   14  C3  UNL     1      69.182  43.955  53.434  1.00  0.00     0.192 C 
HETATM   15 CL1  UNL     1      68.228  42.512  53.238  1.00  0.00    -0.044 Cl
ATOM     16  H2  UNL     1      68.475  44.807  51.788  1.00  0.00     0.190 HD
BRANCH  14  17
HETATM   17  N1  UNL     1      70.044  44.060  54.543  1.00  0.00    -0.365 N 
HETATM   18  C1  UNL     1      69.483  44.647  55.769  1.00  0.00     0.151 C 
HETATM   19  C2  UNL     1      71.428  43.619  54.503  1.00  0.00     0.151 C 
ENDBRANCH  14  17
ENDBRANCH  11  13
ENDBRANCH  10  11
ENDBRANCH   8  10
ENDBRANCH   1   8
BRANCH   7  20
HETATM   20  N6  UNL     1      72.082  44.099  50.789  1.00  0.00    -0.280 N 
ATOM     21  H6  UNL     1      71.064  44.061  50.846  1.00  0.00     0.188 HD
BRANCH  20  22
HETATM   22  N7  UNL     1      72.742  42.965  51.152  1.00  0.00    -0.223 N 
HETATM   23  N8  UNL     1      73.061  42.039  50.378  1.00  0.00    -0.168 N 
ATOM     24  H8  UNL     1      72.826  42.097  49.388  1.00  0.00     0.216 HD
ATOM     25  H7  UNL     1      72.997  42.864  52.135  1.00  0.00     0.210 HD
BRANCH  23  26
HETATM   26  N9  UNL     1      73.743  40.919  50.875  1.00  0.00    -0.022 N 
HETATM   27  O2  UNL     1      74.957  40.968  51.042  1.00  0.00    -0.515 OA
HETATM   28  O3  UNL     1      73.062  39.784  51.168  1.00  0.00    -0.515 OA
ENDBRANCH  23  26
ENDBRANCH  20  22
ENDBRANCH   7  20
BRANCH   6  29
HETATM   29  O1  UNL     1      74.908  44.572  50.084  1.00  0.00    -0.358 OA
ATOM     30  H1  UNL     1      74.603  43.729  50.397  1.00  0.00     0.217 HD
ENDBRANCH   6  29
TORSDOF 9
ENDMDL
MODEL 3
REMARK VINA RESULT: -7.223485178      3.447      4.866
REMARK  9 active torsions:
REMARK  status: ('A' for Active; 'I' for Inactive)
REMARK    1  A    between atoms: N1_2  and  C3_4 
REMARK    2  A    between atoms: N2_6  and  N3_8 
REMARK    3  A    between atoms: N3_8  and  N4_10 
REMARK    4  A    between atoms: N4_10  and  N5_11 
REMARK    5  A    between atoms: N5_11  and  C4_13 
REMARK    6  A    between atoms: C8_18  and  O1_19 
REMARK    7  A    between atoms: C9_21  and  N6_22 
REMARK    8  A    between atoms: N6_22  and  N7_24 
REMARK    9  A    between atoms: N8_26  and  N9_28 
ROOT
HETATM    1  C4  UNL     1      72.967  46.915  49.609  1.00  0.00     0.115 A 
HETATM    2  C5  UNL     1      74.167  47.482  49.297  1.00  0.00     0.146 A 
HETATM    3  F1  UNL     1      75.307  46.765  49.119  1.00  0.00    -0.204 F 
HETATM    4  C6  UNL     1      74.245  48.849  49.153  1.00  0.00     0.047 A 
HETATM    5  C7  UNL     1      73.116  49.611  49.324  1.00  0.00     0.042 A 
HETATM    6  C8  UNL     1      71.880  48.999  49.647  1.00  0.00     0.096 A 
HETATM    7  C9  UNL     1      71.770  47.635  49.798  1.00  0.00     0.113 A 
ENDROOT
BRANCH   1   8
HETATM    8  N5  UNL     1      72.953  45.500  49.757  1.00  0.00    -0.278 N 
ATOM      9  H5  UNL     1      72.956  44.895  48.935  1.00  0.00     0.184 HD
BRANCH   8  10
HETATM   10  N4  UNL     1      72.936  44.956  51.022  1.00  0.00    -0.006 NA
BRANCH  10  11
HETATM   11  N3  UNL     1      72.787  43.560  51.002  1.00  0.00    -0.224 N 
ATOM     12  H3  UNL     1      72.393  43.076  50.196  1.00  0.00     0.205 HD
BRANCH  11  13
HETATM   13  N2  UNL     1      73.205  42.870  52.137  1.00  0.00    -0.263 N 
HETATM   14  C3  UNL     1      73.921  41.828  52.026  1.00  0.00     0.192 C 
HETATM   15 CL1  UNL     1      74.442  40.964  53.446  1.00  0.00    -0.044 Cl
ATOM     16  H2  UNL     1      72.935  43.204  53.061  1.00  0.00     0.190 HD
BRANCH  14  17
HETATM   17  N1  UNL     1      74.302  41.351  50.757  1.00  0.00    -0.365 N 
HETATM   18  C1  UNL     1      73.454  40.314  50.153  1.00  0.00     0.151 C 
HETATM   19  C2  UNL     1      75.477  41.844  50.057  1.00  0.00     0.151 C 
ENDBRANCH  14  17
ENDBRANCH  11  13
ENDBRANCH  10  11
ENDBRANCH   8  10
ENDBRANCH   1   8
BRANCH   7  20
HETATM   20  N6  UNL     1      70.581  46.938  50.113  1.00  0.00    -0.280 N 
ATOM     21  H6  UNL     1      69.882  46.888  49.373  1.00  0.00     0.188 HD
BRANCH  20  22
HETATM   22  N7  UNL     1      70.255  46.323  51.284  1.00  0.00    -0.223 N 
HETATM   23  N8  UNL     1      69.893  45.134  51.396  1.00  0.00    -0.168 N 
ATOM     24  H8  UNL     1      69.822  44.541  50.569  1.00  0.00     0.216 HD
ATOM     25  H7  UNL     1      70.311  46.879  52.137  1.00  0.00     0.210 HD
BRANCH  23  26
HETATM   26  N9  UNL     1      69.584  44.616  52.662  1.00  0.00    -0.022 N 
HETATM   27  O2  UNL     1      68.566  44.981  53.240  1.00  0.00    -0.515 OA
HETATM   28  O3  UNL     1      70.410  43.713  53.246  1.00  0.00    -0.515 OA
ENDBRANCH  23  26
ENDBRANCH  20  22
ENDBRANCH   7  20
BRANCH   6  29
HETATM   29  O1  UNL     1      70.840  49.859  49.789  1.00  0.00    -0.358 OA
ATOM     30  H1  UNL     1      70.366  50.046  48.987  1.00  0.00     0.217 HD
ENDBRANCH   6  29
TORSDOF 9
ENDMDL
MODEL 4
REMARK VINA RESULT: -7.163667517      1.754      2.168
REMARK  9 active torsions:
REMARK  status: ('A' for Active; 'I' for Inactive)
REMARK    1  A    between atoms: N1_2  and  C3_4 
REMARK    2  A    between atoms: N2_6  and  N3_8 
REMARK    3  A    between atoms: N3_8  and  N4_10 
REMARK    4  A    between atoms: N4_10  and  N5_11 
REMARK    5  A    between atoms: N5_11  and  C4_13 
REMARK    6  A    between atoms: C8_18  and  O1_19 
REMARK    7  A    between atoms: C9_21  and  N6_22 
REMARK    8  A    between atoms: N6_22  and  N7_24 
REMARK    9  A    between atoms: N8_26  and  N9_28 
ROOT
HETATM    1  C4  UNL     1      71.780  46.443  50.183  1.00  0.00     0.115 A 
HETATM    2  C5  UNL     1      72.194  47.685  49.802  1.00  0.00     0.146 A 
HETATM    3  F1  UNL     1      71.356  48.749  49.689  1.00  0.00    -0.204 F 
HETATM    4  C6  UNL     1      73.526  47.888  49.514  1.00  0.00     0.047 A 
HETATM    5  C7  UNL     1      74.405  46.840  49.616  1.00  0.00     0.042 A 
HETATM    6  C8  UNL     1      73.952  45.559  50.014  1.00  0.00     0.096 A 
HETATM    7  C9  UNL     1      72.628  45.324  50.309  1.00  0.00     0.113 A 
ENDROOT
BRANCH   1   8
HETATM    8  N5  UNL     1      70.392  46.293  50.456  1.00  0.00    -0.278 N 
ATOM      9  H5  UNL     1      69.804  45.726  49.845  1.00  0.00     0.184 HD
BRANCH   8  10
HETATM   10  N4  UNL     1      69.851  46.923  51.555  1.00  0.00    -0.006 NA
BRANCH  10  11
HETATM   11  N3  UNL     1      69.873  46.112  52.701  1.00  0.00    -0.224 N 
ATOM     12  H3  UNL     1      70.222  46.458  53.594  1.00  0.00     0.205 HD
BRANCH  11  13
HETATM   13  N2  UNL     1      69.394  44.812  52.557  1.00  0.00    -0.263 N 
HETATM   14  C3  UNL     1      68.580  44.332  53.403  1.00  0.00     0.192 C 
HETATM   15 CL1  UNL     1      67.982  42.705  53.224  1.00  0.00    -0.044 Cl
ATOM     16  H2  UNL     1      69.700  44.243  51.768  1.00  0.00     0.190 HD
BRANCH  14  17
HETATM   17  N1  UNL     1      68.148  45.102  54.500  1.00  0.00    -0.365 N 
HETATM   18  C1  UNL     1      66.929  45.902  54.313  1.00  0.00     0.151 C 
HETATM   19  C2  UNL     1      68.858  45.124  55.768  1.00  0.00     0.151 C 
ENDBRANCH  14  17
ENDBRANCH  11  13
ENDBRANCH  10  11
ENDBRANCH   8  10
ENDBRANCH   1   8
BRANCH   7  20
HETATM   20  N6  UNL     1      72.086  44.084  50.719  1.00  0.00    -0.280 N 
ATOM     21  H6  UNL     1      71.068  44.021  50.723  1.00  0.00     0.188 HD
BRANCH  20  22
HETATM   22  N7  UNL     1      72.755  42.963  51.108  1.00  0.00    -0.223 N 
HETATM   23  N8  UNL     1      73.103  42.034  50.351  1.00  0.00    -0.168 N 
ATOM     24  H8  UNL     1      72.888  42.077  49.355  1.00  0.00     0.216 HD
ATOM     25  H7  UNL     1      72.991  42.877  52.097  1.00  0.00     0.210 HD
BRANCH  23  26
HETATM   26  N9  UNL     1      73.791  40.929  50.875  1.00  0.00    -0.022 N 
HETATM   27  O2  UNL     1      75.007  40.980  51.021  1.00  0.00    -0.515 OA
HETATM   28  O3  UNL     1      73.112  39.807  51.217  1.00  0.00    -0.515 OA
ENDBRANCH  23  26
ENDBRANCH  20  22
ENDBRANCH   7  20
BRANCH   6  29
HETATM   29  O1  UNL     1      74.919  44.609  50.078  1.00  0.00    -0.358 OA
ATOM     30  H1  UNL     1      75.105  44.288  50.952  1.00  0.00     0.217 HD
ENDBRANCH   6  29
TORSDOF 9
ENDMDL
MODEL 5
REMARK VINA RESULT: -7.132070723      3.826      5.086
REMARK  9 active torsions:
REMARK  status: ('A' for Active; 'I' for Inactive)
REMARK    1  A    between atoms: N1_2  and  C3_4 
REMARK    2  A    between atoms: N2_6  and  N3_8 
REMARK    3  A    between atoms: N3_8  and  N4_10 
REMARK    4  A    between atoms: N4_10  and  N5_11 
REMARK    5  A    between atoms: N5_11  and  C4_13 
REMARK    6  A    between atoms: C8_18  and  O1_19 
REMARK    7  A    between atoms: C9_21  and  N6_22 
REMARK    8  A    between atoms: N6_22  and  N7_24 
REMARK    9  A    between atoms: N8_26  and  N9_28 
ROOT
HETATM    1  C4  UNL     1      72.778  45.744  50.137  1.00  0.00     0.115 A 
HETATM    2  C5  UNL     1      74.064  46.066  49.818  1.00  0.00     0.146 A 
HETATM    3  F1  UNL     1      75.085  45.170  49.845  1.00  0.00    -0.204 F 
HETATM    4  C6  UNL     1      74.359  47.360  49.449  1.00  0.00     0.047 A 
HETATM    5  C7  UNL     1      73.356  48.295  49.409  1.00  0.00     0.042 A 
HETATM    6  C8  UNL     1      72.027  47.937  49.744  1.00  0.00     0.096 A 
HETATM    7  C9  UNL     1      71.701  46.653  50.117  1.00  0.00     0.113 A 
ENDROOT
BRANCH   1   8
HETATM    8  N5  UNL     1      72.538  44.396  50.523  1.00  0.00    -0.278 N 
ATOM      9  H5  UNL     1      72.604  43.644  49.836  1.00  0.00     0.184 HD
BRANCH   8  10
HETATM   10  N4  UNL     1      72.216  44.118  51.832  1.00  0.00    -0.006 NA
BRANCH  10  11
HETATM   11  N3  UNL     1      72.282  42.745  52.119  1.00  0.00    -0.224 N 
ATOM     12  H3  UNL     1      72.149  42.390  53.066  1.00  0.00     0.205 HD
BRANCH  11  13
HETATM   13  N2  UNL     1      72.537  41.893  51.048  1.00  0.00    -0.263 N 
HETATM   14  C3  UNL     1      73.630  41.251  50.987  1.00  0.00     0.192 C 
HETATM   15 CL1  UNL     1      73.950  40.185  49.646  1.00  0.00    -0.044 Cl
ATOM     16  H2  UNL     1      71.843  41.785  50.310  1.00  0.00     0.190 HD
BRANCH  14  17
HETATM   17  N1  UNL     1      74.601  41.389  51.997  1.00  0.00    -0.365 N 
HETATM   18  C1  UNL     1      75.717  42.307  51.727  1.00  0.00     0.151 C 
HETATM   19  C2  UNL     1      74.528  40.667  53.256  1.00  0.00     0.151 C 
ENDBRANCH  14  17
ENDBRANCH  11  13
ENDBRANCH  10  11
ENDBRANCH   8  10
ENDBRANCH   1   8
BRANCH   7  20
HETATM   20  N6  UNL     1      70.405  46.203  50.463  1.00  0.00    -0.280 N 
ATOM     21  H6  UNL     1      69.807  45.923  49.686  1.00  0.00     0.188 HD
BRANCH  20  22
HETATM   22  N7  UNL     1      69.858  46.098  51.706  1.00  0.00    -0.223 N 
HETATM   23  N8  UNL     1      69.449  45.039  52.224  1.00  0.00    -0.168 N 
ATOM     24  H8  UNL     1      69.510  44.161  51.710  1.00  0.00     0.216 HD
ATOM     25  H7  UNL     1      69.776  46.953  52.257  1.00  0.00     0.210 HD
BRANCH  23  26
HETATM   26  N9  UNL     1      68.904  45.061  53.516  1.00  0.00    -0.022 N 
HETATM   27  O2  UNL     1      69.521  44.555  54.448  1.00  0.00    -0.515 OA
HETATM   28  O3  UNL     1      67.698  45.638  53.735  1.00  0.00    -0.515 OA
ENDBRANCH  23  26
ENDBRANCH  20  22
ENDBRANCH   7  20
BRANCH   6  29
HETATM   29  O1  UNL     1      71.128  48.951  49.664  1.00  0.00    -0.358 OA
ATOM     30  H1  UNL     1      70.384  48.869  50.248  1.00  0.00     0.217 HD
ENDBRANCH   6  29
TORSDOF 9
ENDMDL
