MODEL 1
REMARK VINA RESULT: -9.125219513      0.000      0.000
REMARK  2 active torsions:
REMARK  status: ('A' for Active; 'I' for Inactive)
REMARK    1  A    between atoms: C5_7  and  C6_8 
REMARK    2  A    between atoms: C7_9  and  C8_10 
ROOT
HETATM    1  C8  UNL     1      16.298  21.284 -23.439  1.00  0.00     0.019 A 
HETATM    2  C9  UNL     1      16.276  22.159 -22.382  1.00  0.00     0.023 A 
HETATM    3  C10 UNL     1      17.227  22.094 -21.388  1.00  0.00     0.032 A 
HETATM    4  C11 UNL     1      18.210  21.111 -21.493  1.00  0.00     0.045 A 
HETATM    5  N2  UNL     1      19.260  20.774 -20.724  1.00  0.00    -0.341 N 
ATOM      6  H2  UNL     1      19.517  21.243 -19.855  1.00  0.00     0.167 HD
HETATM    7  C12 UNL     1      19.931  19.728 -21.259  1.00  0.00     0.116 A 
HETATM    8  N3  UNL     1      21.022  19.024 -20.899  1.00  0.00    -0.352 N 
ATOM      9  H3  UNL     1      21.501  19.286 -20.037  1.00  0.00     0.166 HD
HETATM   10  C13 UNL     1      21.512  18.003 -21.606  1.00  0.00     0.090 A 
HETATM   11  C14 UNL     1      20.878  17.638 -22.772  1.00  0.00     0.018 A 
HETATM   12  C15 UNL     1      19.753  18.311 -23.211  1.00  0.00     0.017 A 
HETATM   13  C16 UNL     1      19.298  19.363 -22.426  1.00  0.00     0.021 A 
HETATM   14  C17 UNL     1      18.233  20.230 -22.556  1.00  0.00     0.006 A 
HETATM   15  C18 UNL     1      17.272  20.325 -23.523  1.00  0.00     0.035 A 
ENDROOT
BRANCH   1  16
HETATM   16  C7  UNL     1      15.309  21.330 -24.496  1.00  0.00    -0.061 C 
HETATM   17  C6  UNL     1      14.472  21.354 -25.369  1.00  0.00    -0.060 C 
BRANCH  17  18
HETATM   18  C5  UNL     1      13.465  21.359 -26.405  1.00  0.00     0.034 A 
HETATM   19  C4  UNL     1      13.828  21.586 -27.714  1.00  0.00     0.108 A 
HETATM   20  N1  UNL     1      12.908  21.598 -28.707  1.00  0.00    -0.373 N 
HETATM   21  C3  UNL     1      11.618  21.384 -28.424  1.00  0.00     0.094 A 
ATOM     22  H1  UNL     1      13.199  21.770 -29.670  1.00  0.00     0.164 HD
HETATM   23  C2  UNL     1      11.215  21.151 -27.115  1.00  0.00    -0.045 A 
HETATM   24  C1  UNL     1       9.769  20.913 -26.800  1.00  0.00     0.049 C 
HETATM   25  C19 UNL     1      12.144  21.138 -26.095  1.00  0.00     0.030 A 
ENDBRANCH  17  18
ENDBRANCH   1  16
TORSDOF 2
ENDMDL
MODEL 2
REMARK VINA RESULT: -9.051439941      3.326      4.033
REMARK  2 active torsions:
REMARK  status: ('A' for Active; 'I' for Inactive)
REMARK    1  A    between atoms: C5_7  and  C6_8 
REMARK    2  A    between atoms: C7_9  and  C8_10 
ROOT
HETATM    1  C8  UNL     1      16.099  21.786 -22.065  1.00  0.00     0.019 A 
HETATM    2  C9  UNL     1      15.481  20.722 -21.459  1.00  0.00     0.023 A 
HETATM    3  C10 UNL     1      16.213  19.685 -20.926  1.00  0.00     0.032 A 
HETATM    4  C11 UNL     1      17.603  19.754 -21.023  1.00  0.00     0.045 A 
HETATM    5  N2  UNL     1      18.595  18.940 -20.622  1.00  0.00    -0.341 N 
ATOM      6  H2  UNL     1      18.457  18.055 -20.135  1.00  0.00     0.167 HD
HETATM    7  C12 UNL     1      19.802  19.454 -20.954  1.00  0.00     0.116 A 
HETATM    8  N3  UNL     1      21.076  19.051 -20.788  1.00  0.00    -0.352 N 
ATOM      9  H3  UNL     1      21.243  18.164 -20.312  1.00  0.00     0.166 HD
HETATM   10  C13 UNL     1      22.135  19.746 -21.212  1.00  0.00     0.090 A 
HETATM   11  C14 UNL     1      21.927  20.944 -21.856  1.00  0.00     0.018 A 
HETATM   12  C15 UNL     1      20.650  21.429 -22.065  1.00  0.00     0.017 A 
HETATM   13  C16 UNL     1      19.595  20.654 -21.598  1.00  0.00     0.021 A 
HETATM   14  C17 UNL     1      18.227  20.824 -21.633  1.00  0.00     0.006 A 
HETATM   15  C18 UNL     1      17.465  21.835 -22.150  1.00  0.00     0.035 A 
ENDROOT
BRANCH   1  16
HETATM   16  C7  UNL     1      15.352  22.888 -22.633  1.00  0.00    -0.061 C 
HETATM   17  C6  UNL     1      14.711  23.795 -23.112  1.00  0.00    -0.060 C 
BRANCH  17  18
HETATM   18  C5  UNL     1      13.933  24.863 -23.699  1.00  0.00     0.034 A 
HETATM   19  C4  UNL     1      12.571  24.717 -23.848  1.00  0.00     0.108 A 
HETATM   20  N1  UNL     1      11.816  25.698 -24.395  1.00  0.00    -0.373 N 
HETATM   21  C3  UNL     1      12.391  26.837 -24.799  1.00  0.00     0.094 A 
ATOM     22  H1  UNL     1      10.809  25.569 -24.497  1.00  0.00     0.164 HD
HETATM   23  C2  UNL     1      13.761  27.018 -24.663  1.00  0.00    -0.045 A 
HETATM   24  C1  UNL     1      14.403  28.294 -25.118  1.00  0.00     0.049 C 
HETATM   25  C19 UNL     1      14.541  26.025 -24.109  1.00  0.00     0.030 A 
ENDBRANCH  17  18
ENDBRANCH   1  16
TORSDOF 2
ENDMDL
MODEL 3
REMARK VINA RESULT: -8.935043415      0.788      1.467
REMARK  2 active torsions:
REMARK  status: ('A' for Active; 'I' for Inactive)
REMARK    1  A    between atoms: C5_7  and  C6_8 
REMARK    2  A    between atoms: C7_9  and  C8_10 
ROOT
HETATM    1  C8  UNL     1      16.259  21.250 -23.499  1.00  0.00     0.019 A 
HETATM    2  C9  UNL     1      16.222  22.105 -22.427  1.00  0.00     0.023 A 
HETATM    3  C10 UNL     1      17.154  22.017 -21.417  1.00  0.00     0.032 A 
HETATM    4  C11 UNL     1      18.133  21.029 -21.522  1.00  0.00     0.045 A 
HETATM    5  N2  UNL     1      19.167  20.671 -20.739  1.00  0.00    -0.341 N 
ATOM      6  H2  UNL     1      19.410  21.123 -19.858  1.00  0.00     0.167 HD
HETATM    7  C12 UNL     1      19.841  19.631 -21.281  1.00  0.00     0.116 A 
HETATM    8  N3  UNL     1      20.921  18.914 -20.914  1.00  0.00    -0.352 N 
ATOM      9  H3  UNL     1      21.385  19.156 -20.039  1.00  0.00     0.166 HD
HETATM   10  C13 UNL     1      21.418  17.902 -21.631  1.00  0.00     0.090 A 
HETATM   11  C14 UNL     1      20.804  17.564 -22.815  1.00  0.00     0.018 A 
HETATM   12  C15 UNL     1      19.691  18.251 -23.262  1.00  0.00     0.017 A 
HETATM   13  C16 UNL     1      19.228  19.291 -22.467  1.00  0.00     0.021 A 
HETATM   14  C17 UNL     1      18.171  20.168 -22.600  1.00  0.00     0.006 A 
HETATM   15  C18 UNL     1      17.229  20.287 -23.583  1.00  0.00     0.035 A 
ENDROOT
BRANCH   1  16
HETATM   16  C7  UNL     1      15.290  21.322 -24.574  1.00  0.00    -0.061 C 
HETATM   17  C6  UNL     1      14.466  21.381 -25.457  1.00  0.00    -0.060 C 
BRANCH  17  18
HETATM   18  C5  UNL     1      13.464  21.439 -26.497  1.00  0.00     0.034 A 
HETATM   19  C4  UNL     1      12.149  21.157 -26.200  1.00  0.00     0.108 A 
HETATM   20  N1  UNL     1      11.188  21.202 -27.152  1.00  0.00    -0.373 N 
HETATM   21  C3  UNL     1      11.510  21.527 -28.410  1.00  0.00     0.094 A 
ATOM     22  H1  UNL     1      10.220  20.988 -26.911  1.00  0.00     0.164 HD
HETATM   23  C2  UNL     1      12.826  21.819 -28.745  1.00  0.00    -0.045 A 
HETATM   24  C1  UNL     1      13.184  22.182 -30.155  1.00  0.00     0.049 C 
HETATM   25  C19 UNL     1      13.813  21.775 -27.783  1.00  0.00     0.030 A 
ENDBRANCH  17  18
ENDBRANCH   1  16
TORSDOF 2
ENDMDL
MODEL 4
REMARK VINA RESULT: -8.809691783      2.954      3.197
REMARK  2 active torsions:
REMARK  status: ('A' for Active; 'I' for Inactive)
REMARK    1  A    between atoms: C5_7  and  C6_8 
REMARK    2  A    between atoms: C7_9  and  C8_10 
ROOT
HETATM    1  C8  UNL     1      16.479  22.368 -22.384  1.00  0.00     0.019 A 
HETATM    2  C9  UNL     1      17.240  22.824 -21.338  1.00  0.00     0.023 A 
HETATM    3  C10 UNL     1      18.415  22.196 -20.990  1.00  0.00     0.032 A 
HETATM    4  C11 UNL     1      18.802  21.083 -21.736  1.00  0.00     0.045 A 
HETATM    5  N2  UNL     1      19.860  20.255 -21.672  1.00  0.00    -0.341 N 
ATOM      6  H2  UNL     1      20.616  20.332 -20.992  1.00  0.00     0.167 HD
HETATM    7  C12 UNL     1      19.786  19.306 -22.634  1.00  0.00     0.116 A 
HETATM    8  N3  UNL     1      20.564  18.268 -22.996  1.00  0.00    -0.352 N 
ATOM      9  H3  UNL     1      21.421  18.101 -22.468  1.00  0.00     0.166 HD
HETATM   10  C13 UNL     1      20.278  17.445 -24.008  1.00  0.00     0.090 A 
HETATM   11  C14 UNL     1      19.127  17.658 -24.732  1.00  0.00     0.018 A 
HETATM   12  C15 UNL     1      18.275  18.702 -24.424  1.00  0.00     0.017 A 
HETATM   13  C16 UNL     1      18.634  19.519 -23.359  1.00  0.00     0.021 A 
HETATM   14  C17 UNL     1      18.037  20.623 -22.789  1.00  0.00     0.006 A 
HETATM   15  C18 UNL     1      16.876  21.274 -23.104  1.00  0.00     0.035 A 
ENDROOT
BRANCH   1  16
HETATM   16  C7  UNL     1      15.239  23.010 -22.770  1.00  0.00    -0.061 C 
HETATM   17  C6  UNL     1      14.215  23.558 -23.107  1.00  0.00    -0.060 C 
BRANCH  17  18
HETATM   18  C5  UNL     1      13.004  24.232 -23.518  1.00  0.00     0.034 A 
HETATM   19  C4  UNL     1      13.050  25.555 -23.898  1.00  0.00     0.108 A 
HETATM   20  N1  UNL     1      11.934  26.214 -24.287  1.00  0.00    -0.373 N 
HETATM   21  C3  UNL     1      10.757  25.577 -24.310  1.00  0.00     0.094 A 
ATOM     22  H1  UNL     1      11.990  27.194 -24.564  1.00  0.00     0.164 HD
HETATM   23  C2  UNL     1      10.673  24.243 -23.934  1.00  0.00    -0.045 A 
HETATM   24  C1  UNL     1       9.353  23.532 -23.959  1.00  0.00     0.049 C 
HETATM   25  C19 UNL     1      11.805  23.562 -23.535  1.00  0.00     0.030 A 
ENDBRANCH  17  18
ENDBRANCH   1  16
TORSDOF 2
ENDMDL
MODEL 5
REMARK VINA RESULT: -8.798765978      1.172      1.304
REMARK  2 active torsions:
REMARK  status: ('A' for Active; 'I' for Inactive)
REMARK    1  A    between atoms: C5_7  and  C6_8 
REMARK    2  A    between atoms: C7_9  and  C8_10 
ROOT
HETATM    1  C8  UNL     1      16.813  21.556 -22.890  1.00  0.00     0.019 A 
HETATM    2  C9  UNL     1      16.905  22.391 -21.806  1.00  0.00     0.023 A 
HETATM    3  C10 UNL     1      17.951  22.285 -20.916  1.00  0.00     0.032 A 
HETATM    4  C11 UNL     1      18.910  21.302 -21.155  1.00  0.00     0.045 A 
HETATM    5  N2  UNL     1      20.030  20.932 -20.508  1.00  0.00    -0.341 N 
ATOM      6  H2  UNL     1      20.376  21.368 -19.654  1.00  0.00     0.167 HD
HETATM    7  C12 UNL     1      20.634  19.903 -21.146  1.00  0.00     0.116 A 
HETATM    8  N3  UNL     1      21.750  19.181 -20.923  1.00  0.00    -0.352 N 
ATOM      9  H3  UNL     1      22.315  19.409 -20.105  1.00  0.00     0.166 HD
HETATM   10  C13 UNL     1      22.158  18.184 -21.713  1.00  0.00     0.090 A 
HETATM   11  C14 UNL     1      21.407  17.866 -22.821  1.00  0.00     0.018 A 
HETATM   12  C15 UNL     1      20.249  18.560 -23.120  1.00  0.00     0.017 A 
HETATM   13  C16 UNL     1      19.884  19.584 -22.256  1.00  0.00     0.021 A 
HETATM   14  C17 UNL     1      18.819  20.460 -22.246  1.00  0.00     0.006 A 
HETATM   15  C18 UNL     1      17.766  20.596 -23.107  1.00  0.00     0.035 A 
ENDROOT
BRANCH   1  16
HETATM   16  C7  UNL     1      15.724  21.646 -23.841  1.00  0.00    -0.061 C 
HETATM   17  C6  UNL     1      14.817  21.743 -24.634  1.00  0.00    -0.060 C 
BRANCH  17  18
HETATM   18  C5  UNL     1      13.728  21.882 -25.575  1.00  0.00     0.034 A 
HETATM   19  C4  UNL     1      13.500  20.897 -26.511  1.00  0.00     0.108 A 
HETATM   20  N1  UNL     1      12.489  20.998 -27.405  1.00  0.00    -0.373 N 
HETATM   21  C3  UNL     1      11.689  22.071 -27.389  1.00  0.00     0.094 A 
ATOM     22  H1  UNL     1      12.338  20.258 -28.091  1.00  0.00     0.164 HD
HETATM   23  C2  UNL     1      11.890  23.083 -26.459  1.00  0.00    -0.045 A 
HETATM   24  C1  UNL     1      10.992  24.284 -26.444  1.00  0.00     0.049 C 
HETATM   25  C19 UNL     1      12.917  22.990 -25.543  1.00  0.00     0.030 A 
ENDBRANCH  17  18
ENDBRANCH   1  16
TORSDOF 2
ENDMDL
