MODEL 1
REMARK VINA RESULT: -8.086777827      0.000      0.000
REMARK  8 active torsions:
REMARK  status: ('A' for Active; 'I' for Inactive)
REMARK    1  A    between atoms: N1_1  and  C1_4 
REMARK    2  A    between atoms: C2_7  and  C3_8 
REMARK    3  A    between atoms: N3_10  and  C5_11 
REMARK    4  A    between atoms: C5_11  and  C6_12 
REMARK    5  A    between atoms: N5_21  and  C13_23 
REMARK    6  A    between atoms: C13_23  and  C14_24 
REMARK    7  A    between atoms: C14_24  and  C15_25 
REMARK    8  A    between atoms: C15_25  and  N6_26 
ROOT
HETATM    1  C3  UNL     1      38.215   7.380   9.571  1.00  0.00     0.071 A 
HETATM    2  C4  UNL     1      37.219   6.441   9.395  1.00  0.00     0.129 A 
HETATM    3  N3  UNL     1      36.222   6.678  10.258  1.00  0.00    -0.296 N 
HETATM    4  N4  UNL     1      36.523   7.728  10.987  1.00  0.00    -0.283 N 
ATOM      5  H4  UNL     1      35.943   8.132  11.723  1.00  0.00     0.189 HD
HETATM    6  C12 UNL     1      37.747   8.184  10.587  1.00  0.00     0.131 A 
HETATM    7  N5  UNL     1      38.343   9.196  11.089  1.00  0.00    -0.374 N 
ATOM      8  H5  UNL     1      39.258   9.467  10.728  1.00  0.00     0.161 HD
ENDROOT
BRANCH   1   9
HETATM    9  C2  UNL     1      39.485   7.493   8.839  1.00  0.00     0.140 A 
HETATM   10  N2  UNL     1      39.554   7.181   7.543  1.00  0.00    -0.176 N 
HETATM   11  C1  UNL     1      40.711   7.281   6.867  1.00  0.00     0.681 A 
ATOM     12  H2  UNL     1      38.715   6.861   7.058  1.00  0.00     0.186 HD
HETATM   13  N8  UNL     1      41.850   7.697   7.452  1.00  0.00    -0.141 N 
HETATM   14  C16 UNL     1      41.752   8.007   8.762  1.00  0.00     0.340 A 
ATOM     15  H8  UNL     1      42.728   7.774   6.939  1.00  0.00     0.189 HD
HETATM   16  N7  UNL     1      40.606   7.912   9.453  1.00  0.00    -0.293 N 
HETATM   17  O1  UNL     1      42.833   8.400   9.307  1.00  0.00    -0.246 OA
ATOM     18  H7  UNL     1      40.584   8.159  10.442  1.00  0.00     0.172 HD
BRANCH  11  19
HETATM   19  N1  UNL     1      40.779   6.976   5.599  1.00  0.00    -0.234 N 
ATOM     20  H12 UNL     1      40.489   6.034   5.337  1.00  0.00     0.174 HD
ATOM     21  H11 UNL     1      41.107   7.655   4.911  1.00  0.00     0.174 HD
ENDBRANCH  11  19
ENDBRANCH   1   9
BRANCH   3  22
HETATM   22  C5  UNL     1      35.021   5.904  10.363  1.00  0.00     0.186 C 
BRANCH  22  23
HETATM   23  C6  UNL     1      35.254   4.487  10.656  1.00  0.00    -0.038 A 
HETATM   24  C7  UNL     1      35.969   4.079  11.756  1.00  0.00     0.009 A 
HETATM   25  C8  UNL     1      36.168   2.726  11.999  1.00  0.00     0.001 A 
HETATM   26  C9  UNL     1      35.654   1.772  11.145  1.00  0.00     0.000 A 
HETATM   27  C10 UNL     1      34.940   2.169  10.046  1.00  0.00     0.001 A 
HETATM   28  C11 UNL     1      34.750   3.519   9.817  1.00  0.00     0.009 A 
ENDBRANCH  22  23
ENDBRANCH   3  22
BRANCH   7  29
HETATM   29  C13 UNL     1      37.746   9.969  12.162  1.00  0.00     0.123 C 
BRANCH  29  30
HETATM   30  C14 UNL     1      38.685  11.064  12.605  1.00  0.00     0.047 C 
BRANCH  30  31
HETATM   31  C15 UNL     1      39.663  11.317  11.485  1.00  0.00     0.231 C 
BRANCH  31  32
HETATM   32  N6  UNL     1      41.018  11.363  12.014  1.00  0.00    -0.079 N 
ATOM     33  H63 UNL     1      41.320  10.456  12.371  1.00  0.00     0.274 HD
ATOM     34  H62 UNL     1      41.715  11.471  11.277  1.00  0.00     0.274 HD
ATOM     35  H61 UNL     1      41.088  12.096  12.720  1.00  0.00     0.274 HD
ENDBRANCH  31  32
ENDBRANCH  30  31
ENDBRANCH  29  30
ENDBRANCH   7  29
TORSDOF 8
ENDMDL
MODEL 2
REMARK VINA RESULT: -7.991771444      1.490      4.204
REMARK  8 active torsions:
REMARK  status: ('A' for Active; 'I' for Inactive)
REMARK    1  A    between atoms: N1_1  and  C1_4 
REMARK    2  A    between atoms: C2_7  and  C3_8 
REMARK    3  A    between atoms: N3_10  and  C5_11 
REMARK    4  A    between atoms: C5_11  and  C6_12 
REMARK    5  A    between atoms: N5_21  and  C13_23 
REMARK    6  A    between atoms: C13_23  and  C14_24 
REMARK    7  A    between atoms: C14_24  and  C15_25 
REMARK    8  A    between atoms: C15_25  and  N6_26 
ROOT
HETATM    1  C3  UNL     1      38.201   7.413   9.389  1.00  0.00     0.071 A 
HETATM    2  C4  UNL     1      37.219   7.072  10.297  1.00  0.00     0.129 A 
HETATM    3  N3  UNL     1      36.353   6.226   9.724  1.00  0.00    -0.296 N 
HETATM    4  N4  UNL     1      36.725   6.000   8.485  1.00  0.00    -0.283 N 
ATOM      5  H4  UNL     1      36.248   5.393   7.818  1.00  0.00     0.189 HD
HETATM    6  C12 UNL     1      37.863   6.718   8.247  1.00  0.00     0.131 A 
HETATM    7  N5  UNL     1      38.495   6.729   7.138  1.00  0.00    -0.374 N 
ATOM      8  H5  UNL     1      39.338   7.296   7.049  1.00  0.00     0.161 HD
ENDROOT
BRANCH   1   9
HETATM    9  C2  UNL     1      39.345   8.313   9.595  1.00  0.00     0.140 A 
HETATM   10  N2  UNL     1      39.163   9.545  10.075  1.00  0.00    -0.176 N 
HETATM   11  C1  UNL     1      40.204  10.374  10.266  1.00  0.00     0.681 A 
ATOM     12  H2  UNL     1      38.220   9.864  10.299  1.00  0.00     0.186 HD
HETATM   13  N8  UNL     1      41.470  10.012   9.990  1.00  0.00    -0.141 N 
HETATM   14  C16 UNL     1      41.625   8.761   9.507  1.00  0.00     0.340 A 
ATOM     15  H8  UNL     1      42.260  10.640  10.135  1.00  0.00     0.189 HD
HETATM   16  N7  UNL     1      40.598   7.920   9.309  1.00  0.00    -0.293 N 
HETATM   17  O1  UNL     1      42.826   8.426   9.248  1.00  0.00    -0.246 OA
ATOM     18  H7  UNL     1      40.768   6.984   8.942  1.00  0.00     0.172 HD
BRANCH  11  19
HETATM   19  N1  UNL     1      40.027  11.580  10.735  1.00  0.00    -0.234 N 
ATOM     20  H12 UNL     1      39.065  11.916  10.788  1.00  0.00     0.174 HD
ATOM     21  H11 UNL     1      40.819  12.151  11.032  1.00  0.00     0.174 HD
ENDBRANCH  11  19
ENDBRANCH   1   9
BRANCH   3  22
HETATM   22  C5  UNL     1      35.204   5.660  10.368  1.00  0.00     0.186 C 
BRANCH  22  23
HETATM   23  C6  UNL     1      35.311   4.218  10.607  1.00  0.00    -0.038 A 
HETATM   24  C7  UNL     1      36.034   3.706  11.657  1.00  0.00     0.009 A 
HETATM   25  C8  UNL     1      36.112   2.333  11.850  1.00  0.00     0.001 A 
HETATM   26  C9  UNL     1      35.467   1.462  10.995  1.00  0.00     0.000 A 
HETATM   27  C10 UNL     1      34.744   1.963   9.946  1.00  0.00     0.001 A 
HETATM   28  C11 UNL     1      34.676   3.332   9.767  1.00  0.00     0.009 A 
ENDBRANCH  22  23
ENDBRANCH   3  22
BRANCH   7  29
HETATM   29  C13 UNL     1      38.038   5.952   6.001  1.00  0.00     0.123 C 
BRANCH  29  30
HETATM   30  C14 UNL     1      39.160   5.765   5.010  1.00  0.00     0.047 C 
BRANCH  30  31
HETATM   31  C15 UNL     1      40.085   4.702   5.548  1.00  0.00     0.231 C 
BRANCH  31  32
HETATM   32  N6  UNL     1      41.467   5.068   5.278  1.00  0.00    -0.079 N 
ATOM     33  H63 UNL     1      42.068   4.250   5.179  1.00  0.00     0.274 HD
ATOM     34  H62 UNL     1      41.586   5.453   4.340  1.00  0.00     0.274 HD
ATOM     35  H61 UNL     1      41.803   5.706   5.999  1.00  0.00     0.274 HD
ENDBRANCH  31  32
ENDBRANCH  30  31
ENDBRANCH  29  30
ENDBRANCH   7  29
TORSDOF 8
ENDMDL
MODEL 3
REMARK VINA RESULT: -7.831758526      2.731      5.729
REMARK  8 active torsions:
REMARK  status: ('A' for Active; 'I' for Inactive)
REMARK    1  A    between atoms: N1_1  and  C1_4 
REMARK    2  A    between atoms: C2_7  and  C3_8 
REMARK    3  A    between atoms: N3_10  and  C5_11 
REMARK    4  A    between atoms: C5_11  and  C6_12 
REMARK    5  A    between atoms: N5_21  and  C13_23 
REMARK    6  A    between atoms: C13_23  and  C14_24 
REMARK    7  A    between atoms: C14_24  and  C15_25 
REMARK    8  A    between atoms: C15_25  and  N6_26 
ROOT
HETATM    1  C3  UNL     1      40.581   8.029   8.769  1.00  0.00     0.071 A 
HETATM    2  C4  UNL     1      40.856   7.892   7.424  1.00  0.00     0.129 A 
HETATM    3  N3  UNL     1      40.330   6.746   6.972  1.00  0.00    -0.296 N 
HETATM    4  N4  UNL     1      39.724   6.130   7.961  1.00  0.00    -0.283 N 
ATOM      5  H4  UNL     1      39.236   5.236   7.902  1.00  0.00     0.189 HD
HETATM    6  C12 UNL     1      39.861   6.897   9.085  1.00  0.00     0.131 A 
HETATM    7  N5  UNL     1      39.389   6.593  10.232  1.00  0.00    -0.374 N 
ATOM      8  H5  UNL     1      39.539   7.226  11.017  1.00  0.00     0.161 HD
ENDROOT
BRANCH   1   9
HETATM    9  C2  UNL     1      40.969   9.132   9.660  1.00  0.00     0.140 A 
HETATM   10  N2  UNL     1      40.104  10.104   9.956  1.00  0.00    -0.176 N 
HETATM   11  C1  UNL     1      40.451  11.116  10.769  1.00  0.00     0.681 A 
ATOM     12  H2  UNL     1      39.164  10.079   9.559  1.00  0.00     0.186 HD
HETATM   13  N8  UNL     1      41.675  11.204  11.324  1.00  0.00    -0.141 N 
HETATM   14  C16 UNL     1      42.529  10.208  11.008  1.00  0.00     0.340 A 
ATOM     15  H8  UNL     1      41.939  11.971  11.941  1.00  0.00     0.189 HD
HETATM   16  N7  UNL     1      42.200   9.190  10.198  1.00  0.00    -0.293 N 
HETATM   17  O1  UNL     1      43.684  10.298  11.537  1.00  0.00    -0.246 OA
ATOM     18  H7  UNL     1      42.882   8.461   9.991  1.00  0.00     0.172 HD
BRANCH  11  19
HETATM   19  N1  UNL     1      39.605  12.068  11.060  1.00  0.00    -0.234 N 
ATOM     20  H12 UNL     1      38.669  11.987  10.663  1.00  0.00     0.174 HD
ATOM     21  H11 UNL     1      39.877  12.851  11.655  1.00  0.00     0.174 HD
ENDBRANCH  11  19
ENDBRANCH   1   9
BRANCH   3  22
HETATM   22  C5  UNL     1      40.417   6.273   5.623  1.00  0.00     0.186 C 
BRANCH  22  23
HETATM   23  C6  UNL     1      39.176   5.671   5.126  1.00  0.00    -0.038 A 
HETATM   24  C7  UNL     1      39.168   4.775   4.085  1.00  0.00     0.009 A 
HETATM   25  C8  UNL     1      37.971   4.227   3.643  1.00  0.00     0.001 A 
HETATM   26  C9  UNL     1      36.774   4.570   4.239  1.00  0.00     0.000 A 
HETATM   27  C10 UNL     1      36.773   5.462   5.277  1.00  0.00     0.001 A 
HETATM   28  C11 UNL     1      37.972   6.000   5.706  1.00  0.00     0.009 A 
ENDBRANCH  22  23
ENDBRANCH   3  22
BRANCH   7  29
HETATM   29  C13 UNL     1      38.644   5.366  10.441  1.00  0.00     0.123 C 
BRANCH  29  30
HETATM   30  C14 UNL     1      38.038   5.350  11.823  1.00  0.00     0.047 C 
BRANCH  30  31
HETATM   31  C15 UNL     1      36.956   4.300  11.843  1.00  0.00     0.231 C 
BRANCH  31  32
HETATM   32  N6  UNL     1      37.516   3.008  11.475  1.00  0.00    -0.079 N 
ATOM     33  H63 UNL     1      36.806   2.276  11.447  1.00  0.00     0.274 HD
ATOM     34  H62 UNL     1      37.799   2.978  10.495  1.00  0.00     0.274 HD
ATOM     35  H61 UNL     1      38.284   2.774  12.103  1.00  0.00     0.274 HD
ENDBRANCH  31  32
ENDBRANCH  30  31
ENDBRANCH  29  30
ENDBRANCH   7  29
TORSDOF 8
ENDMDL
MODEL 4
REMARK VINA RESULT: -7.802631330      1.029      1.435
REMARK  8 active torsions:
REMARK  status: ('A' for Active; 'I' for Inactive)
REMARK    1  A    between atoms: N1_1  and  C1_4 
REMARK    2  A    between atoms: C2_7  and  C3_8 
REMARK    3  A    between atoms: N3_10  and  C5_11 
REMARK    4  A    between atoms: C5_11  and  C6_12 
REMARK    5  A    between atoms: N5_21  and  C13_23 
REMARK    6  A    between atoms: C13_23  and  C14_24 
REMARK    7  A    between atoms: C14_24  and  C15_25 
REMARK    8  A    between atoms: C15_25  and  N6_26 
ROOT
HETATM    1  C3  UNL     1      38.130   7.404   9.581  1.00  0.00     0.071 A 
HETATM    2  C4  UNL     1      37.178   6.422   9.402  1.00  0.00     0.129 A 
HETATM    3  N3  UNL     1      36.131   6.661  10.203  1.00  0.00    -0.296 N 
HETATM    4  N4  UNL     1      36.357   7.754  10.894  1.00  0.00    -0.283 N 
ATOM      5  H4  UNL     1      35.727   8.170  11.581  1.00  0.00     0.189 HD
HETATM    6  C12 UNL     1      37.584   8.237  10.533  1.00  0.00     0.131 A 
HETATM    7  N5  UNL     1      38.117   9.293  11.014  1.00  0.00    -0.374 N 
ATOM      8  H5  UNL     1      39.039   9.581  10.685  1.00  0.00     0.161 HD
ENDROOT
BRANCH   1   9
HETATM    9  C2  UNL     1      39.431   7.531   8.906  1.00  0.00     0.140 A 
HETATM   10  N2  UNL     1      39.554   7.252   7.607  1.00  0.00    -0.176 N 
HETATM   11  C1  UNL     1      40.739   7.365   6.984  1.00  0.00     0.681 A 
ATOM     12  H2  UNL     1      38.736   6.949   7.078  1.00  0.00     0.186 HD
HETATM   13  N8  UNL     1      41.853   7.761   7.627  1.00  0.00    -0.141 N 
HETATM   14  C16 UNL     1      41.700   8.036   8.940  1.00  0.00     0.340 A 
ATOM     15  H8  UNL     1      42.753   7.847   7.155  1.00  0.00     0.189 HD
HETATM   16  N7  UNL     1      40.525   7.929   9.578  1.00  0.00    -0.293 N 
HETATM   17  O1  UNL     1      42.759   8.410   9.541  1.00  0.00    -0.246 OA
ATOM     18  H7  UNL     1      40.462   8.150  10.572  1.00  0.00     0.172 HD
BRANCH  11  19
HETATM   19  N1  UNL     1      40.860   7.093   5.712  1.00  0.00    -0.234 N 
ATOM     20  H12 UNL     1      40.821   7.883   5.068  1.00  0.00     0.174 HD
ATOM     21  H11 UNL     1      40.987   6.134   5.389  1.00  0.00     0.174 HD
ENDBRANCH  11  19
ENDBRANCH   1   9
BRANCH   3  22
HETATM   22  C5  UNL     1      34.954   5.848  10.287  1.00  0.00     0.186 C 
BRANCH  22  23
HETATM   23  C6  UNL     1      35.224   4.448  10.628  1.00  0.00    -0.038 A 
HETATM   24  C7  UNL     1      35.947   4.097  11.742  1.00  0.00     0.009 A 
HETATM   25  C8  UNL     1      36.182   2.759  12.032  1.00  0.00     0.001 A 
HETATM   26  C9  UNL     1      35.696   1.764  11.209  1.00  0.00     0.000 A 
HETATM   27  C10 UNL     1      34.975   2.104  10.096  1.00  0.00     0.001 A 
HETATM   28  C11 UNL     1      34.750   3.440   9.821  1.00  0.00     0.009 A 
ENDBRANCH  22  23
ENDBRANCH   3  22
BRANCH   7  29
HETATM   29  C13 UNL     1      37.440  10.091  12.018  1.00  0.00     0.123 C 
BRANCH  29  30
HETATM   30  C14 UNL     1      37.815   9.619  13.402  1.00  0.00     0.047 C 
BRANCH  30  31
HETATM   31  C15 UNL     1      37.273  10.618  14.395  1.00  0.00     0.231 C 
BRANCH  31  32
HETATM   32  N6  UNL     1      35.821  10.660  14.309  1.00  0.00    -0.079 N 
ATOM     33  H63 UNL     1      35.389   9.828  14.711  1.00  0.00     0.274 HD
ATOM     34  H62 UNL     1      35.420  11.355  14.939  1.00  0.00     0.274 HD
ATOM     35  H61 UNL     1      35.537  10.810  13.341  1.00  0.00     0.274 HD
ENDBRANCH  31  32
ENDBRANCH  30  31
ENDBRANCH  29  30
ENDBRANCH   7  29
TORSDOF 8
ENDMDL
MODEL 5
REMARK VINA RESULT: -7.799464799      0.377      1.024
REMARK  8 active torsions:
REMARK  status: ('A' for Active; 'I' for Inactive)
REMARK    1  A    between atoms: N1_1  and  C1_4 
REMARK    2  A    between atoms: C2_7  and  C3_8 
REMARK    3  A    between atoms: N3_10  and  C5_11 
REMARK    4  A    between atoms: C5_11  and  C6_12 
REMARK    5  A    between atoms: N5_21  and  C13_23 
REMARK    6  A    between atoms: C13_23  and  C14_24 
REMARK    7  A    between atoms: C14_24  and  C15_25 
REMARK    8  A    between atoms: C15_25  and  N6_26 
ROOT
HETATM    1  C3  UNL     1      38.288   7.531   9.519  1.00  0.00     0.071 A 
HETATM    2  C4  UNL     1      37.259   6.620   9.399  1.00  0.00     0.129 A 
HETATM    3  N3  UNL     1      36.286   6.925  10.268  1.00  0.00    -0.296 N 
HETATM    4  N4  UNL     1      36.633   7.994  10.946  1.00  0.00    -0.283 N 
ATOM      5  H4  UNL     1      36.080   8.448  11.674  1.00  0.00     0.189 HD
HETATM    6  C12 UNL     1      37.865   8.393  10.507  1.00  0.00     0.131 A 
HETATM    7  N5  UNL     1      38.502   9.405  10.956  1.00  0.00    -0.374 N 
ATOM      8  H5  UNL     1      39.418   9.630  10.569  1.00  0.00     0.161 HD
ENDROOT
BRANCH   1   9
HETATM    9  C2  UNL     1      39.548   7.571   8.762  1.00  0.00     0.140 A 
HETATM   10  N2  UNL     1      39.594   7.157   7.494  1.00  0.00    -0.176 N 
HETATM   11  C1  UNL     1      40.742   7.190   6.796  1.00  0.00     0.681 A 
ATOM     12  H2  UNL     1      38.745   6.809   7.048  1.00  0.00     0.186 HD
HETATM   13  N8  UNL     1      41.894   7.639   7.329  1.00  0.00    -0.141 N 
HETATM   14  C16 UNL     1      41.819   8.052   8.612  1.00  0.00     0.340 A 
ATOM     15  H8  UNL     1      42.765   7.664   6.800  1.00  0.00     0.189 HD
HETATM   16  N7  UNL     1      40.682   8.026   9.324  1.00  0.00    -0.293 N 
HETATM   17  O1  UNL     1      42.912   8.475   9.108  1.00  0.00    -0.246 OA
ATOM     18  H7  UNL     1      40.678   8.350  10.291  1.00  0.00     0.172 HD
BRANCH  11  19
HETATM   19  N1  UNL     1      40.787   6.785   5.555  1.00  0.00    -0.234 N 
ATOM     20  H12 UNL     1      41.292   5.918   5.374  1.00  0.00     0.174 HD
ATOM     21  H11 UNL     1      40.337   7.318   4.810  1.00  0.00     0.174 HD
ENDBRANCH  11  19
ENDBRANCH   1   9
BRANCH   3  22
HETATM   22  C5  UNL     1      35.062   6.197  10.425  1.00  0.00     0.186 C 
BRANCH  22  23
HETATM   23  C6  UNL     1      35.253   4.757  10.630  1.00  0.00    -0.038 A 
HETATM   24  C7  UNL     1      34.750   3.825   9.756  1.00  0.00     0.009 A 
HETATM   25  C8  UNL     1      34.952   2.470   9.985  1.00  0.00     0.001 A 
HETATM   26  C9  UNL     1      35.659   2.038  11.089  1.00  0.00     0.000 A 
HETATM   27  C10 UNL     1      36.164   2.961  11.966  1.00  0.00     0.001 A 
HETATM   28  C11 UNL     1      35.955   4.306  11.724  1.00  0.00     0.009 A 
ENDBRANCH  22  23
ENDBRANCH   3  22
BRANCH   7  29
HETATM   29  C13 UNL     1      37.949  10.240  12.005  1.00  0.00     0.123 C 
BRANCH  29  30
HETATM   30  C14 UNL     1      38.581  11.610  11.971  1.00  0.00     0.047 C 
BRANCH  30  31
HETATM   31  C15 UNL     1      39.819  11.572  12.832  1.00  0.00     0.231 C 
BRANCH  31  32
HETATM   32  N6  UNL     1      40.993  11.367  11.997  1.00  0.00    -0.079 N 
ATOM     33  H63 UNL     1      41.162  12.155  11.372  1.00  0.00     0.274 HD
ATOM     34  H62 UNL     1      41.859  11.415  12.534  1.00  0.00     0.274 HD
ATOM     35  H61 UNL     1      40.906  10.487  11.490  1.00  0.00     0.274 HD
ENDBRANCH  31  32
ENDBRANCH  30  31
ENDBRANCH  29  30
ENDBRANCH   7  29
TORSDOF 8
ENDMDL
