MODEL 1
REMARK VINA RESULT: -7.615574536      0.000      0.000
REMARK  7 active torsions:
REMARK  status: ('A' for Active; 'I' for Inactive)
REMARK    1  A    between atoms: N1_1  and  C1_4 
REMARK    2  A    between atoms: C2_9  and  N4_10 
REMARK    3  A    between atoms: N4_10  and  C3_12 
REMARK    4  A    between atoms: N6_17  and  C5_18 
REMARK    5  A    between atoms: C5_18  and  C6_19 
REMARK    6  A    between atoms: C6_19  and  C7_20 
REMARK    7  A    between atoms: C7_20  and  C8_21 
ROOT
HETATM    1  C3  UNL     1     -24.207  23.662 155.906  1.00  0.00     0.705 A 
HETATM    2  N5  UNL     1     -24.475  24.376 154.798  1.00  0.00    -0.140 N 
ATOM      3  H5  UNL     1     -25.230  25.062 154.800  1.00  0.00     0.189 HD
HETATM    4  C4  UNL     1     -23.731  24.178 153.669  1.00  0.00     0.344 A 
HETATM    5  O1  UNL     1     -24.079  24.909 152.687  1.00  0.00    -0.246 OA
HETATM    6  N6  UNL     1     -22.730  23.290 153.623  1.00  0.00    -0.250 N 
HETATM    7  C9  UNL     1     -22.456  22.573 154.725  1.00  0.00     0.344 A 
HETATM    8  O3  UNL     1     -21.508  21.710 154.728  1.00  0.00    -0.246 OA
HETATM    9  N8  UNL     1     -23.200  22.780 155.826  1.00  0.00    -0.140 N 
ATOM     10  H8  UNL     1     -22.984  22.228 156.656  1.00  0.00     0.189 HD
ENDROOT
BRANCH   1  11
HETATM   11  N4  UNL     1     -24.979  23.868 157.070  1.00  0.00    -0.020 N 
ATOM     12  H4  UNL     1     -24.525  24.282 157.884  1.00  0.00     0.203 HD
BRANCH  11  13
HETATM   13  C2  UNL     1     -26.221  23.563 157.159  1.00  0.00     0.726 A 
HETATM   14  N3  UNL     1     -27.265  24.358 156.896  1.00  0.00    -0.117 N 
HETATM   15  N2  UNL     1     -28.400  23.676 157.107  1.00  0.00    -0.118 N 
ATOM     16  H3  UNL     1     -27.207  25.328 156.585  1.00  0.00     0.206 HD
HETATM   17  C1  UNL     1     -28.058  22.438 157.507  1.00  0.00     0.705 A 
ATOM     18  H2  UNL     1     -29.349  24.030 156.987  1.00  0.00     0.206 HD
HETATM   19  N9  UNL     1     -26.694  22.367 157.539  1.00  0.00    -0.019 N 
ATOM     20  H9  UNL     1     -26.137  21.554 157.804  1.00  0.00     0.203 HD
BRANCH  17  21
HETATM   21  N1  UNL     1     -28.877  21.487 157.806  1.00  0.00    -0.233 N 
ATOM     22  H12 UNL     1     -29.705  21.569 158.396  1.00  0.00     0.174 HD
ATOM     23  H11 UNL     1     -28.808  20.519 157.492  1.00  0.00     0.174 HD
ENDBRANCH  17  21
ENDBRANCH  11  13
ENDBRANCH   1  11
BRANCH   6  24
HETATM   24  C5  UNL     1     -21.975  23.126 152.426  1.00  0.00     0.139 C 
BRANCH  24  25
HETATM   25  C6  UNL     1     -22.484  22.145 151.439  1.00  0.00     0.029 C 
BRANCH  25  26
HETATM   26  C7  UNL     1     -21.860  20.794 151.453  1.00  0.00     0.101 C 
BRANCH  26  27
HETATM   27  C8  UNL     1     -22.759  19.807 150.802  1.00  0.00     0.231 C 
HETATM   28  N7  UNL     1     -22.278  18.678 150.102  1.00  0.00    -0.062 NA
HETATM   29  O2  UNL     1     -23.997  19.977 150.874  1.00  0.00    -0.277 OA
ENDBRANCH  26  27
ENDBRANCH  25  26
ENDBRANCH  24  25
ENDBRANCH   6  24
TORSDOF 7
ENDMDL
MODEL 2
REMARK VINA RESULT: -7.567627481      0.057      1.734
REMARK  7 active torsions:
REMARK  status: ('A' for Active; 'I' for Inactive)
REMARK    1  A    between atoms: N1_1  and  C1_4 
REMARK    2  A    between atoms: C2_9  and  N4_10 
REMARK    3  A    between atoms: N4_10  and  C3_12 
REMARK    4  A    between atoms: N6_17  and  C5_18 
REMARK    5  A    between atoms: C5_18  and  C6_19 
REMARK    6  A    between atoms: C6_19  and  C7_20 
REMARK    7  A    between atoms: C7_20  and  C8_21 
ROOT
HETATM    1  C3  UNL     1     -24.234  23.659 155.882  1.00  0.00     0.705 A 
HETATM    2  N5  UNL     1     -23.226  22.770 155.834  1.00  0.00    -0.140 N 
ATOM      3  H5  UNL     1     -23.000  22.205 156.653  1.00  0.00     0.189 HD
HETATM    4  C4  UNL     1     -22.506  22.626 154.681  1.00  0.00     0.344 A 
HETATM    5  O1  UNL     1     -21.579  21.758 154.757  1.00  0.00    -0.246 OA
HETATM    6  N6  UNL     1     -22.770  23.345 153.583  1.00  0.00    -0.250 N 
HETATM    7  C9  UNL     1     -23.774  24.235 153.624  1.00  0.00     0.344 A 
HETATM    8  O3  UNL     1     -24.063  24.947 152.598  1.00  0.00    -0.246 OA
HETATM    9  N8  UNL     1     -24.471  24.364 154.767  1.00  0.00    -0.140 N 
ATOM     10  H8  UNL     1     -25.230  25.044 154.787  1.00  0.00     0.189 HD
ENDROOT
BRANCH   1  11
HETATM   11  N4  UNL     1     -24.975  23.805 157.076  1.00  0.00    -0.020 N 
ATOM     12  H4  UNL     1     -24.490  24.140 157.909  1.00  0.00     0.203 HD
BRANCH  11  13
HETATM   13  C2  UNL     1     -26.225  23.541 157.169  1.00  0.00     0.726 A 
HETATM   14  N3  UNL     1     -27.244  24.366 156.903  1.00  0.00    -0.117 N 
HETATM   15  N2  UNL     1     -28.400  23.722 157.121  1.00  0.00    -0.118 N 
ATOM     16  H3  UNL     1     -27.156  25.332 156.585  1.00  0.00     0.206 HD
HETATM   17  C1  UNL     1     -28.097  22.477 157.529  1.00  0.00     0.705 A 
ATOM     18  H2  UNL     1     -29.338  24.106 156.999  1.00  0.00     0.206 HD
HETATM   19  N9  UNL     1     -26.736  22.362 157.559  1.00  0.00    -0.019 N 
ATOM     20  H9  UNL     1     -26.205  21.534 157.828  1.00  0.00     0.203 HD
BRANCH  17  21
HETATM   21  N1  UNL     1     -28.945  21.555 157.836  1.00  0.00    -0.233 N 
ATOM     22  H12 UNL     1     -29.952  21.675 157.946  1.00  0.00     0.174 HD
ATOM     23  H11 UNL     1     -28.724  20.574 158.012  1.00  0.00     0.174 HD
ENDBRANCH  17  21
ENDBRANCH  11  13
ENDBRANCH   1  11
BRANCH   6  24
HETATM   24  C5  UNL     1     -21.998  23.153 152.401  1.00  0.00     0.139 C 
BRANCH  24  25
HETATM   25  C6  UNL     1     -22.498  22.156 151.426  1.00  0.00     0.029 C 
BRANCH  25  26
HETATM   26  C7  UNL     1     -21.872  20.805 151.466  1.00  0.00     0.101 C 
BRANCH  26  27
HETATM   27  C8  UNL     1     -22.760  19.809 150.814  1.00  0.00     0.231 C 
HETATM   28  N7  UNL     1     -22.267  18.682 150.120  1.00  0.00    -0.062 NA
HETATM   29  O2  UNL     1     -24.000  19.969 150.880  1.00  0.00    -0.277 OA
ENDBRANCH  26  27
ENDBRANCH  25  26
ENDBRANCH  24  25
ENDBRANCH   6  24
TORSDOF 7
ENDMDL
MODEL 3
REMARK VINA RESULT: -7.445204347      2.083      2.856
REMARK  7 active torsions:
REMARK  status: ('A' for Active; 'I' for Inactive)
REMARK    1  A    between atoms: N1_1  and  C1_4 
REMARK    2  A    between atoms: C2_9  and  N4_10 
REMARK    3  A    between atoms: N4_10  and  C3_12 
REMARK    4  A    between atoms: N6_17  and  C5_18 
REMARK    5  A    between atoms: C5_18  and  C6_19 
REMARK    6  A    between atoms: C6_19  and  C7_20 
REMARK    7  A    between atoms: C7_20  and  C8_21 
ROOT
HETATM    1  C3  UNL     1     -24.141  23.671 155.856  1.00  0.00     0.705 A 
HETATM    2  N5  UNL     1     -24.412  24.388 154.751  1.00  0.00    -0.140 N 
ATOM      3  H5  UNL     1     -25.151  25.092 154.765  1.00  0.00     0.189 HD
HETATM    4  C4  UNL     1     -23.693  24.171 153.610  1.00  0.00     0.344 A 
HETATM    5  O1  UNL     1     -24.041  24.908 152.633  1.00  0.00    -0.246 OA
HETATM    6  N6  UNL     1     -22.714  23.259 153.548  1.00  0.00    -0.250 N 
HETATM    7  C9  UNL     1     -22.437  22.539 154.647  1.00  0.00     0.344 A 
HETATM    8  O3  UNL     1     -21.510  21.654 154.635  1.00  0.00    -0.246 OA
HETATM    9  N8  UNL     1     -23.156  22.765 155.761  1.00  0.00    -0.140 N 
ATOM     10  H8  UNL     1     -22.938  22.210 156.588  1.00  0.00     0.189 HD
ENDROOT
BRANCH   1  11
HETATM   11  N4  UNL     1     -24.887  23.897 157.034  1.00  0.00    -0.020 N 
ATOM     12  H4  UNL     1     -24.404  24.282 157.846  1.00  0.00     0.203 HD
BRANCH  11  13
HETATM   13  C2  UNL     1     -26.140  23.646 157.137  1.00  0.00     0.726 A 
HETATM   14  N3  UNL     1     -27.152  24.482 156.876  1.00  0.00    -0.117 N 
HETATM   15  N2  UNL     1     -28.313  23.850 157.104  1.00  0.00    -0.118 N 
ATOM     16  H3  UNL     1     -27.056  25.445 156.554  1.00  0.00     0.206 HD
HETATM   17  C1  UNL     1     -28.020  22.603 157.513  1.00  0.00     0.705 A 
ATOM     18  H2  UNL     1     -29.247  24.244 156.988  1.00  0.00     0.206 HD
HETATM   19  N9  UNL     1     -26.659  22.475 157.533  1.00  0.00    -0.019 N 
ATOM     20  H9  UNL     1     -26.135  21.642 157.801  1.00  0.00     0.203 HD
BRANCH  17  21
HETATM   21  N1  UNL     1     -28.875  21.691 157.829  1.00  0.00    -0.233 N 
ATOM     22  H12 UNL     1     -29.783  21.843 158.268  1.00  0.00     0.174 HD
ATOM     23  H11 UNL     1     -28.760  20.688 157.683  1.00  0.00     0.174 HD
ENDBRANCH  17  21
ENDBRANCH  11  13
ENDBRANCH   1  11
BRANCH   6  24
HETATM   24  C5  UNL     1     -21.985  23.076 152.339  1.00  0.00     0.139 C 
BRANCH  24  25
HETATM   25  C6  UNL     1     -20.713  23.823 152.200  1.00  0.00     0.029 C 
BRANCH  25  26
HETATM   26  C7  UNL     1     -19.800  23.397 151.104  1.00  0.00     0.101 C 
BRANCH  26  27
HETATM   27  C8  UNL     1     -18.934  24.529 150.688  1.00  0.00     0.231 C 
HETATM   28  N7  UNL     1     -18.547  25.562 151.571  1.00  0.00    -0.062 NA
HETATM   29  O2  UNL     1     -18.524  24.576 149.506  1.00  0.00    -0.277 OA
ENDBRANCH  26  27
ENDBRANCH  25  26
ENDBRANCH  24  25
ENDBRANCH   6  24
TORSDOF 7
ENDMDL
MODEL 4
REMARK VINA RESULT: -7.428235880      2.096      3.345
REMARK  7 active torsions:
REMARK  status: ('A' for Active; 'I' for Inactive)
REMARK    1  A    between atoms: N1_1  and  C1_4 
REMARK    2  A    between atoms: C2_9  and  N4_10 
REMARK    3  A    between atoms: N4_10  and  C3_12 
REMARK    4  A    between atoms: N6_17  and  C5_18 
REMARK    5  A    between atoms: C5_18  and  C6_19 
REMARK    6  A    between atoms: C6_19  and  C7_20 
REMARK    7  A    between atoms: C7_20  and  C8_21 
ROOT
HETATM    1  C3  UNL     1     -24.170  23.680 155.799  1.00  0.00     0.705 A 
HETATM    2  N5  UNL     1     -23.200  22.753 155.713  1.00  0.00    -0.140 N 
ATOM      3  H5  UNL     1     -22.982  22.163 156.516  1.00  0.00     0.189 HD
HETATM    4  C4  UNL     1     -22.507  22.605 154.544  1.00  0.00     0.344 A 
HETATM    5  O1  UNL     1     -21.614  21.700 154.585  1.00  0.00    -0.246 OA
HETATM    6  N6  UNL     1     -22.762  23.358 153.466  1.00  0.00    -0.250 N 
HETATM    7  C9  UNL     1     -23.729  24.285 153.545  1.00  0.00     0.344 A 
HETATM    8  O3  UNL     1     -24.008  25.029 152.538  1.00  0.00    -0.246 OA
HETATM    9  N8  UNL     1     -24.400  24.417 154.703  1.00  0.00    -0.140 N 
ATOM     10  H8  UNL     1     -25.131  25.127 154.751  1.00  0.00     0.189 HD
ENDROOT
BRANCH   1  11
HETATM   11  N4  UNL     1     -24.884  23.830 157.009  1.00  0.00    -0.020 N 
ATOM     12  H4  UNL     1     -24.374  24.148 157.834  1.00  0.00     0.203 HD
BRANCH  11  13
HETATM   13  C2  UNL     1     -26.137  23.588 157.127  1.00  0.00     0.726 A 
HETATM   14  N3  UNL     1     -27.145  24.437 156.892  1.00  0.00    -0.117 N 
HETATM   15  N2  UNL     1     -28.308  23.812 157.128  1.00  0.00    -0.118 N 
ATOM     16  H3  UNL     1     -27.045  25.404 156.583  1.00  0.00     0.206 HD
HETATM   17  C1  UNL     1     -28.020  22.556 157.515  1.00  0.00     0.705 A 
ATOM     18  H2  UNL     1     -29.240  24.215 157.032  1.00  0.00     0.206 HD
HETATM   19  N9  UNL     1     -26.661  22.416 157.514  1.00  0.00    -0.019 N 
ATOM     20  H9  UNL     1     -26.141  21.574 157.762  1.00  0.00     0.203 HD
BRANCH  17  21
HETATM   21  N1  UNL     1     -28.879  21.647 157.830  1.00  0.00    -0.233 N 
ATOM     22  H12 UNL     1     -28.777  20.644 157.680  1.00  0.00     0.174 HD
ATOM     23  H11 UNL     1     -29.785  21.809 158.272  1.00  0.00     0.174 HD
ENDBRANCH  17  21
ENDBRANCH  11  13
ENDBRANCH   1  11
BRANCH   6  24
HETATM   24  C5  UNL     1     -22.020  23.160 152.266  1.00  0.00     0.139 C 
BRANCH  24  25
HETATM   25  C6  UNL     1     -20.711  23.846 152.165  1.00  0.00     0.029 C 
BRANCH  25  26
HETATM   26  C7  UNL     1     -19.808  23.410 151.064  1.00  0.00     0.101 C 
BRANCH  26  27
HETATM   27  C8  UNL     1     -18.911  24.525 150.665  1.00  0.00     0.231 C 
HETATM   28  N7  UNL     1     -18.491  25.530 151.564  1.00  0.00    -0.062 NA
HETATM   29  O2  UNL     1     -18.506  24.581 149.482  1.00  0.00    -0.277 OA
ENDBRANCH  26  27
ENDBRANCH  25  26
ENDBRANCH  24  25
ENDBRANCH   6  24
TORSDOF 7
ENDMDL
MODEL 5
REMARK VINA RESULT: -7.419883933      2.897      7.012
REMARK  7 active torsions:
REMARK  status: ('A' for Active; 'I' for Inactive)
REMARK    1  A    between atoms: N1_1  and  C1_4 
REMARK    2  A    between atoms: C2_9  and  N4_10 
REMARK    3  A    between atoms: N4_10  and  C3_12 
REMARK    4  A    between atoms: N6_17  and  C5_18 
REMARK    5  A    between atoms: C5_18  and  C6_19 
REMARK    6  A    between atoms: C6_19  and  C7_20 
REMARK    7  A    between atoms: C7_20  and  C8_21 
ROOT
HETATM    1  C3  UNL     1     -25.475  21.943 153.028  1.00  0.00     0.705 A 
HETATM    2  N5  UNL     1     -26.669  22.562 153.002  1.00  0.00    -0.140 N 
ATOM      3  H5  UNL     1     -26.927  23.145 152.205  1.00  0.00     0.189 HD
HETATM    4  C4  UNL     1     -27.534  22.409 154.049  1.00  0.00     0.344 A 
HETATM    5  O1  UNL     1     -28.628  23.043 153.912  1.00  0.00    -0.246 OA
HETATM    6  N6  UNL     1     -27.235  21.653 155.113  1.00  0.00    -0.250 N 
HETATM    7  C9  UNL     1     -26.045  21.031 155.146  1.00  0.00     0.344 A 
HETATM    8  O3  UNL     1     -25.715  20.298 156.145  1.00  0.00    -0.246 OA
HETATM    9  N8  UNL     1     -25.206  21.196 154.108  1.00  0.00    -0.140 N 
ATOM     10  H8  UNL     1     -24.305  20.720 154.145  1.00  0.00     0.189 HD
ENDROOT
BRANCH   1  11
HETATM   11  N4  UNL     1     -24.584  22.106 151.944  1.00  0.00    -0.020 N 
ATOM     12  H4  UNL     1     -24.559  23.008 151.469  1.00  0.00     0.203 HD
BRANCH  11  13
HETATM   13  C2  UNL     1     -23.803  21.180 151.525  1.00  0.00     0.726 A 
HETATM   14  N3  UNL     1     -22.516  21.006 151.847  1.00  0.00    -0.117 N 
HETATM   15  N2  UNL     1     -22.044  19.927 151.204  1.00  0.00    -0.118 N 
ATOM     16  H3  UNL     1     -21.979  21.599 152.480  1.00  0.00     0.206 HD
HETATM   17  C1  UNL     1     -23.052  19.421 150.471  1.00  0.00     0.705 A 
ATOM     18  H2  UNL     1     -21.095  19.558 151.261  1.00  0.00     0.206 HD
HETATM   19  N9  UNL     1     -24.154  20.205 150.672  1.00  0.00    -0.019 N 
ATOM     20  H9  UNL     1     -25.074  20.073 150.252  1.00  0.00     0.203 HD
BRANCH  17  21
HETATM   21  N1  UNL     1     -22.987  18.379 149.715  1.00  0.00    -0.233 N 
ATOM     22  H12 UNL     1     -22.579  18.337 148.781  1.00  0.00     0.174 HD
ATOM     23  H11 UNL     1     -23.339  17.450 149.947  1.00  0.00     0.174 HD
ENDBRANCH  17  21
ENDBRANCH  11  13
ENDBRANCH   1  11
BRANCH   6  24
HETATM   24  C5  UNL     1     -28.173  21.514 156.176  1.00  0.00     0.139 C 
BRANCH  24  25
HETATM   25  C6  UNL     1     -27.931  22.319 157.396  1.00  0.00     0.029 C 
BRANCH  25  26
HETATM   26  C7  UNL     1     -27.430  23.707 157.196  1.00  0.00     0.101 C 
BRANCH  26  27
HETATM   27  C8  UNL     1     -25.986  23.785 157.537  1.00  0.00     0.231 C 
HETATM   28  N7  UNL     1     -24.986  24.055 156.577  1.00  0.00    -0.062 NA
HETATM   29  O2  UNL     1     -25.634  23.605 158.725  1.00  0.00    -0.277 OA
ENDBRANCH  26  27
ENDBRANCH  25  26
ENDBRANCH  24  25
ENDBRANCH   6  24
TORSDOF 7
ENDMDL
