MODEL 1
REMARK VINA RESULT: -7.754382353      0.000      0.000
REMARK  10 active torsions:
REMARK  status: ('A' for Active; 'I' for Inactive)
REMARK    1  A    between atoms: C2_2  and  C3_3 
REMARK    2  A    between atoms: C4_4  and  C5_5 
REMARK    3  A    between atoms: C12_14  and  C13_15 
REMARK    4  A    between atoms: C13_15  and  C14_16 
REMARK    5  A    between atoms: C14_16  and  C15_17 
REMARK    6  A    between atoms: C15_17  and  N2_18 
REMARK    7  A    between atoms: C18_27  and  C19_28 
REMARK    8  A    between atoms: C19_28  and  C20_29 
REMARK    9  A    between atoms: C20_29  and  C21_30 
REMARK   10  A    between atoms: C21_30  and  N6_31 
ROOT
HETATM    1  C3  UNL     1      30.291  12.944  31.220  1.00  0.00     0.048 C 
HETATM    2  C4  UNL     1      31.788  12.707  31.381  1.00  0.00     0.085 C 
HETATM    3  C6  UNL     1      31.896  11.281  31.838  1.00  0.00     0.017 C 
HETATM    4  C7  UNL     1      30.630  10.623  31.459  1.00  0.00     0.033 C 
HETATM    5  C8  UNL     1      29.795  11.587  30.696  1.00  0.00     0.043 C 
HETATM    6  C9  UNL     1      28.373  11.420  31.199  1.00  0.00     0.058 C 
HETATM    7  C10 UNL     1      27.422  12.453  30.778  1.00  0.00    -0.027 C 
HETATM    8  C11 UNL     1      26.662  12.521  29.713  1.00  0.00    -0.017 C 
HETATM    9  C12 UNL     1      26.503  11.594  28.584  1.00  0.00     0.100 C 
HETATM   10  C17 UNL     1      26.517  10.157  28.925  1.00  0.00     0.226 C 
HETATM   11  O2  UNL     1      25.559   9.782  29.698  1.00  0.00    -0.273 OA
HETATM   12  N5  UNL     1      27.442   9.185  28.507  1.00  0.00    -0.347 N 
ATOM     13  H5  UNL     1      27.057   8.388  28.001  1.00  0.00     0.163 HD
HETATM   14  C18 UNL     1      28.872   9.180  28.706  1.00  0.00     0.176 C 
HETATM   15  C23 UNL     1      29.548  10.448  28.416  1.00  0.00     0.241 C 
HETATM   16  O3  UNL     1      29.826  10.612  27.168  1.00  0.00    -0.271 OA
HETATM   17  N9  UNL     1      29.931  11.489  29.274  1.00  0.00    -0.349 N 
ATOM     18  H9  UNL     1      30.371  12.290  28.821  1.00  0.00     0.163 HD
ENDROOT
BRANCH   1  19
HETATM   19  C2  UNL     1      30.080  14.055  30.296  1.00  0.00    -0.029 C 
HETATM   20  C1  UNL     1      29.710  15.253  30.701  1.00  0.00     0.007 C 
ENDBRANCH   1  19
BRANCH   2  21
HETATM   21  C5  UNL     1      32.359  13.583  32.431  1.00  0.00     0.236 C 
HETATM   22  N1  UNL     1      31.784  13.661  33.727  1.00  0.00    -0.062 NA
HETATM   23  O1  UNL     1      33.383  14.297  32.210  1.00  0.00    -0.276 OA
ENDBRANCH   2  21
BRANCH  14  24
HETATM   24  C19 UNL     1      29.445   8.068  27.794  1.00  0.00     0.036 C 
BRANCH  24  25
HETATM   25  C20 UNL     1      30.636   7.397  28.421  1.00  0.00     0.022 C 
BRANCH  25  26
HETATM   26  C21 UNL     1      30.938   6.126  27.666  1.00  0.00     0.122 C 
BRANCH  26  27
HETATM   27  N6  UNL     1      32.352   5.892  27.528  1.00  0.00    -0.367 N 
HETATM   28  C22 UNL     1      32.940   4.866  28.042  1.00  0.00     0.196 C 
HETATM   29  N7  UNL     1      34.335   4.661  27.891  1.00  0.00    -0.067 NA
HETATM   30  N8  UNL     1      32.147   3.943  28.767  1.00  0.00    -0.067 NA
ATOM     31  H6  UNL     1      32.910   6.565  27.003  1.00  0.00     0.161 HD
ENDBRANCH  26  27
ENDBRANCH  25  26
ENDBRANCH  24  25
ENDBRANCH  14  24
BRANCH   9  32
HETATM   32  C13 UNL     1      25.266  11.958  27.786  1.00  0.00     0.019 C 
BRANCH  32  33
HETATM   33  C14 UNL     1      24.181  12.634  28.529  1.00  0.00     0.021 C 
BRANCH  33  34
HETATM   34  C15 UNL     1      22.895  11.837  28.207  1.00  0.00     0.122 C 
BRANCH  34  35
HETATM   35  N2  UNL     1      23.085  10.441  28.483  1.00  0.00    -0.367 N 
HETATM   36  C16 UNL     1      22.814   9.583  27.566  1.00  0.00     0.196 C 
HETATM   37  N3  UNL     1      22.985   8.189  27.788  1.00  0.00    -0.067 NA
HETATM   38  N4  UNL     1      22.335  10.008  26.301  1.00  0.00    -0.067 NA
ATOM     39  H2  UNL     1      23.429  10.136  29.393  1.00  0.00     0.161 HD
ENDBRANCH  34  35
ENDBRANCH  33  34
ENDBRANCH  32  33
ENDBRANCH   9  32
TORSDOF 10
ENDMDL
MODEL 2
REMARK VINA RESULT: -7.486106782      2.525      4.178
REMARK  10 active torsions:
REMARK  status: ('A' for Active; 'I' for Inactive)
REMARK    1  A    between atoms: C2_2  and  C3_3 
REMARK    2  A    between atoms: C4_4  and  C5_5 
REMARK    3  A    between atoms: C12_14  and  C13_15 
REMARK    4  A    between atoms: C13_15  and  C14_16 
REMARK    5  A    between atoms: C14_16  and  C15_17 
REMARK    6  A    between atoms: C15_17  and  N2_18 
REMARK    7  A    between atoms: C18_27  and  C19_28 
REMARK    8  A    between atoms: C19_28  and  C20_29 
REMARK    9  A    between atoms: C20_29  and  C21_30 
REMARK   10  A    between atoms: C21_30  and  N6_31 
ROOT
HETATM    1  C3  UNL     1      30.370  11.812  26.558  1.00  0.00     0.048 C 
HETATM    2  C4  UNL     1      30.658  11.040  25.276  1.00  0.00     0.085 C 
HETATM    3  C6  UNL     1      31.466   9.856  25.724  1.00  0.00     0.017 C 
HETATM    4  C7  UNL     1      31.204   9.693  27.167  1.00  0.00     0.033 C 
HETATM    5  C8  UNL     1      30.182  10.687  27.588  1.00  0.00     0.043 C 
HETATM    6  C9  UNL     1      30.641  11.240  28.925  1.00  0.00     0.058 C 
HETATM    7  C10 UNL     1      29.927  12.427  29.402  1.00  0.00    -0.027 C 
HETATM    8  C11 UNL     1      28.844  12.527  30.133  1.00  0.00    -0.017 C 
HETATM    9  C12 UNL     1      27.979  11.493  30.717  1.00  0.00     0.100 C 
HETATM   10  C17 UNL     1      28.672  10.308  31.262  1.00  0.00     0.226 C 
HETATM   11  O2  UNL     1      29.467  10.558  32.243  1.00  0.00    -0.273 OA
HETATM   12  N5  UNL     1      28.559   8.974  30.833  1.00  0.00    -0.347 N 
ATOM     13  H5  UNL     1      28.253   8.301  31.535  1.00  0.00     0.163 HD
HETATM   14  C18 UNL     1      28.822   8.443  29.517  1.00  0.00     0.176 C 
HETATM   15  C23 UNL     1      28.254   9.213  28.406  1.00  0.00     0.241 C 
HETATM   16  O3  UNL     1      27.021   8.932  28.160  1.00  0.00    -0.271 OA
HETATM   17  N9  UNL     1      28.840  10.189  27.586  1.00  0.00    -0.349 N 
ATOM     18  H9  UNL     1      28.220  10.603  26.889  1.00  0.00     0.163 HD
ENDROOT
BRANCH   1  19
HETATM   19  C2  UNL     1      29.186  12.644  26.358  1.00  0.00    -0.029 C 
HETATM   20  C1  UNL     1      29.257  13.947  26.180  1.00  0.00     0.007 C 
ENDBRANCH   1  19
BRANCH   2  21
HETATM   21  C5  UNL     1      31.479  11.843  24.340  1.00  0.00     0.236 C 
HETATM   22  N1  UNL     1      30.947  12.332  23.117  1.00  0.00    -0.062 NA
HETATM   23  O1  UNL     1      32.689  12.123  24.595  1.00  0.00    -0.276 OA
ENDBRANCH   2  21
BRANCH  14  24
HETATM   24  C19 UNL     1      28.250   7.004  29.495  1.00  0.00     0.036 C 
BRANCH  24  25
HETATM   25  C20 UNL     1      29.344   5.973  29.547  1.00  0.00     0.022 C 
BRANCH  25  26
HETATM   26  C21 UNL     1      29.681   5.543  28.141  1.00  0.00     0.122 C 
BRANCH  26  27
HETATM   27  N6  UNL     1      30.775   4.607  28.100  1.00  0.00    -0.367 N 
HETATM   28  C22 UNL     1      32.007   4.981  28.042  1.00  0.00     0.196 C 
HETATM   29  N7  UNL     1      33.065   4.038  28.003  1.00  0.00    -0.067 NA
HETATM   30  N8  UNL     1      32.277   6.372  28.019  1.00  0.00    -0.067 NA
ATOM     31  H6  UNL     1      30.566   3.609  28.118  1.00  0.00     0.161 HD
ENDBRANCH  26  27
ENDBRANCH  25  26
ENDBRANCH  24  25
ENDBRANCH  14  24
BRANCH   9  32
HETATM   32  C13 UNL     1      27.055  12.112  31.748  1.00  0.00     0.019 C 
BRANCH  32  33
HETATM   33  C14 UNL     1      25.779  12.659  31.241  1.00  0.00     0.021 C 
BRANCH  33  34
HETATM   34  C15 UNL     1      25.401  11.780  30.025  1.00  0.00     0.122 C 
BRANCH  34  35
HETATM   35  N2  UNL     1      24.045  12.030  29.625  1.00  0.00    -0.367 N 
HETATM   36  C16 UNL     1      23.311  11.039  29.262  1.00  0.00     0.196 C 
HETATM   37  N3  UNL     1      21.962  11.233  28.857  1.00  0.00    -0.067 NA
HETATM   38  N4  UNL     1      23.832   9.721  29.256  1.00  0.00    -0.067 NA
ATOM     39  H2  UNL     1      23.671  12.979  29.629  1.00  0.00     0.161 HD
ENDBRANCH  34  35
ENDBRANCH  33  34
ENDBRANCH  32  33
ENDBRANCH   9  32
TORSDOF 10
ENDMDL
MODEL 3
REMARK VINA RESULT: -7.416317545      1.276      1.467
REMARK  10 active torsions:
REMARK  status: ('A' for Active; 'I' for Inactive)
REMARK    1  A    between atoms: C2_2  and  C3_3 
REMARK    2  A    between atoms: C4_4  and  C5_5 
REMARK    3  A    between atoms: C12_14  and  C13_15 
REMARK    4  A    between atoms: C13_15  and  C14_16 
REMARK    5  A    between atoms: C14_16  and  C15_17 
REMARK    6  A    between atoms: C15_17  and  N2_18 
REMARK    7  A    between atoms: C18_27  and  C19_28 
REMARK    8  A    between atoms: C19_28  and  C20_29 
REMARK    9  A    between atoms: C20_29  and  C21_30 
REMARK   10  A    between atoms: C21_30  and  N6_31 
ROOT
HETATM    1  C3  UNL     1      30.224  12.745  30.970  1.00  0.00     0.048 C 
HETATM    2  C4  UNL     1      31.653  12.282  31.224  1.00  0.00     0.085 C 
HETATM    3  C6  UNL     1      31.503  10.934  31.868  1.00  0.00     0.017 C 
HETATM    4  C7  UNL     1      30.150  10.455  31.525  1.00  0.00     0.033 C 
HETATM    5  C8  UNL     1      29.510  11.434  30.608  1.00  0.00     0.043 C 
HETATM    6  C9  UNL     1      28.071  11.580  31.066  1.00  0.00     0.058 C 
HETATM    7  C10 UNL     1      27.323  12.692  30.473  1.00  0.00    -0.027 C 
HETATM    8  C11 UNL     1      26.607  12.742  29.378  1.00  0.00    -0.017 C 
HETATM    9  C12 UNL     1      26.311  11.710  28.374  1.00  0.00     0.100 C 
HETATM   10  C17 UNL     1      26.069  10.352  28.900  1.00  0.00     0.226 C 
HETATM   11  O2  UNL     1      25.045  10.253  29.673  1.00  0.00    -0.273 OA
HETATM   12  N5  UNL     1      26.819   9.189  28.652  1.00  0.00    -0.347 N 
ATOM     13  H5  UNL     1      26.312   8.407  28.240  1.00  0.00     0.163 HD
HETATM   14  C18 UNL     1      28.222   8.969  28.911  1.00  0.00     0.176 C 
HETATM   15  C23 UNL     1      29.114  10.053  28.487  1.00  0.00     0.241 C 
HETATM   16  O3  UNL     1      29.441   9.995  27.242  1.00  0.00    -0.271 OA
HETATM   17  N9  UNL     1      29.655  11.120  29.218  1.00  0.00    -0.349 N 
ATOM     18  H9  UNL     1      30.236  11.767  28.682  1.00  0.00     0.163 HD
ENDROOT
BRANCH   1  19
HETATM   19  C2  UNL     1      30.228  13.740  29.901  1.00  0.00    -0.029 C 
HETATM   20  C1  UNL     1      30.120  15.032  30.134  1.00  0.00     0.007 C 
ENDBRANCH   1  19
BRANCH   2  21
HETATM   21  C5  UNL     1      32.347  13.183  32.174  1.00  0.00     0.236 C 
HETATM   22  N1  UNL     1      31.776  13.522  33.429  1.00  0.00    -0.062 NA
HETATM   23  O1  UNL     1      33.478  13.686  31.901  1.00  0.00    -0.276 OA
ENDBRANCH   2  21
BRANCH  14  24
HETATM   24  C19 UNL     1      28.611   7.662  28.179  1.00  0.00     0.036 C 
BRANCH  24  25
HETATM   25  C20 UNL     1      29.410   6.747  29.065  1.00  0.00     0.022 C 
BRANCH  25  26
HETATM   26  C21 UNL     1      29.777   5.507  28.288  1.00  0.00     0.122 C 
BRANCH  26  27
HETATM   27  N6  UNL     1      31.146   5.525  27.840  1.00  0.00    -0.367 N 
HETATM   28  C22 UNL     1      32.049   4.747  28.334  1.00  0.00     0.196 C 
HETATM   29  N7  UNL     1      33.389   4.785  27.875  1.00  0.00    -0.067 NA
HETATM   30  N8  UNL     1      31.659   3.846  29.356  1.00  0.00    -0.067 NA
ATOM     31  H6  UNL     1      31.412   6.178  27.104  1.00  0.00     0.161 HD
ENDBRANCH  26  27
ENDBRANCH  25  26
ENDBRANCH  24  25
ENDBRANCH  14  24
BRANCH   9  32
HETATM   32  C13 UNL     1      25.173  12.166  27.483  1.00  0.00     0.019 C 
BRANCH  32  33
HETATM   33  C14 UNL     1      24.511  13.433  27.860  1.00  0.00     0.021 C 
BRANCH  33  34
HETATM   34  C15 UNL     1      22.994  13.135  27.842  1.00  0.00     0.122 C 
BRANCH  34  35
HETATM   35  N2  UNL     1      22.701  11.967  28.623  1.00  0.00    -0.367 N 
HETATM   36  C16 UNL     1      21.970  12.088  29.674  1.00  0.00     0.196 C 
HETATM   37  N3  UNL     1      21.651  10.963  30.482  1.00  0.00    -0.067 NA
HETATM   38  N4  UNL     1      21.462  13.356  30.055  1.00  0.00    -0.067 NA
ATOM     39  H2  UNL     1      23.066  11.055  28.349  1.00  0.00     0.161 HD
ENDBRANCH  34  35
ENDBRANCH  33  34
ENDBRANCH  32  33
ENDBRANCH   9  32
TORSDOF 10
ENDMDL
MODEL 4
REMARK VINA RESULT: -7.310988358      2.089      7.819
REMARK  10 active torsions:
REMARK  status: ('A' for Active; 'I' for Inactive)
REMARK    1  A    between atoms: C2_2  and  C3_3 
REMARK    2  A    between atoms: C4_4  and  C5_5 
REMARK    3  A    between atoms: C12_14  and  C13_15 
REMARK    4  A    between atoms: C13_15  and  C14_16 
REMARK    5  A    between atoms: C14_16  and  C15_17 
REMARK    6  A    between atoms: C15_17  and  N2_18 
REMARK    7  A    between atoms: C18_27  and  C19_28 
REMARK    8  A    between atoms: C19_28  and  C20_29 
REMARK    9  A    between atoms: C20_29  and  C21_30 
REMARK   10  A    between atoms: C21_30  and  N6_31 
ROOT
HETATM    1  C3  UNL     1      30.295   7.867  29.120  1.00  0.00     0.048 C 
HETATM    2  C4  UNL     1      29.436   6.856  28.371  1.00  0.00     0.085 C 
HETATM    3  C6  UNL     1      28.077   6.980  28.995  1.00  0.00     0.017 C 
HETATM    4  C7  UNL     1      28.041   8.298  29.660  1.00  0.00     0.033 C 
HETATM    5  C8  UNL     1      29.309   9.018  29.373  1.00  0.00     0.043 C 
HETATM    6  C9  UNL     1      29.734   9.680  30.671  1.00  0.00     0.058 C 
HETATM    7  C10 UNL     1      31.095  10.224  30.692  1.00  0.00    -0.027 C 
HETATM    8  C11 UNL     1      31.538  11.410  30.354  1.00  0.00    -0.017 C 
HETATM    9  C12 UNL     1      30.830  12.591  29.840  1.00  0.00     0.100 C 
HETATM   10  C17 UNL     1      29.507  12.858  30.440  1.00  0.00     0.226 C 
HETATM   11  O2  UNL     1      29.533  13.107  31.702  1.00  0.00    -0.273 OA
HETATM   12  N5  UNL     1      28.258  12.867  29.794  1.00  0.00    -0.347 N 
ATOM     13  H5  UNL     1      27.729  13.737  29.853  1.00  0.00     0.163 HD
HETATM   14  C18 UNL     1      27.635  11.794  29.057  1.00  0.00     0.176 C 
HETATM   15  C23 UNL     1      28.509  11.097  28.109  1.00  0.00     0.241 C 
HETATM   16  O3  UNL     1      28.608  11.686  26.967  1.00  0.00    -0.271 OA
HETATM   17  N9  UNL     1      29.240   9.908  28.253  1.00  0.00    -0.349 N 
ATOM     18  H9  UNL     1      29.802   9.639  27.446  1.00  0.00     0.163 HD
ENDROOT
BRANCH   1  19
HETATM   19  C2  UNL     1      31.439   8.231  28.289  1.00  0.00    -0.029 C 
HETATM   20  C1  UNL     1      31.426   8.123  26.976  1.00  0.00     0.007 C 
ENDBRANCH   1  19
BRANCH   2  21
HETATM   21  C5  UNL     1      29.927   5.474  28.582  1.00  0.00     0.236 C 
HETATM   22  N1  UNL     1      30.040   4.917  29.883  1.00  0.00    -0.062 NA
HETATM   23  O1  UNL     1      30.266   4.737  27.608  1.00  0.00    -0.276 OA
ENDBRANCH   2  21
BRANCH  14  24
HETATM   24  C19 UNL     1      26.436  12.413  28.297  1.00  0.00     0.036 C 
BRANCH  24  25
HETATM   25  C20 UNL     1      25.234  12.562  29.188  1.00  0.00     0.022 C 
BRANCH  25  26
HETATM   26  C21 UNL     1      24.612  11.204  29.404  1.00  0.00     0.122 C 
BRANCH  26  27
HETATM   27  N6  UNL     1      23.664  10.864  28.374  1.00  0.00    -0.367 N 
HETATM   28  C22 UNL     1      23.822   9.852  27.591  1.00  0.00     0.196 C 
HETATM   29  N7  UNL     1      22.873   9.540  26.585  1.00  0.00    -0.067 NA
HETATM   30  N8  UNL     1      24.980   9.054  27.765  1.00  0.00    -0.067 NA
ATOM     31  H6  UNL     1      22.835  11.446  28.261  1.00  0.00     0.161 HD
ENDBRANCH  26  27
ENDBRANCH  25  26
ENDBRANCH  24  25
ENDBRANCH  14  24
BRANCH   9  32
HETATM   32  C13 UNL     1      31.728  13.809  29.923  1.00  0.00     0.019 C 
BRANCH  32  33
HETATM   33  C14 UNL     1      32.962  13.661  30.723  1.00  0.00     0.021 C 
BRANCH  33  34
HETATM   34  C15 UNL     1      32.891  14.759  31.810  1.00  0.00     0.122 C 
BRANCH  34  35
HETATM   35  N2  UNL     1      32.160  14.290  32.953  1.00  0.00    -0.367 N 
HETATM   36  C16 UNL     1      31.438  15.123  33.615  1.00  0.00     0.196 C 
HETATM   37  N3  UNL     1      30.695  14.709  34.754  1.00  0.00    -0.067 NA
HETATM   38  N4  UNL     1      31.366  16.484  33.223  1.00  0.00    -0.067 NA
ATOM     39  H2  UNL     1      32.213  13.312  33.235  1.00  0.00     0.161 HD
ENDBRANCH  34  35
ENDBRANCH  33  34
ENDBRANCH  32  33
ENDBRANCH   9  32
TORSDOF 10
ENDMDL
MODEL 5
REMARK VINA RESULT: -7.291077979      1.327      1.438
REMARK  10 active torsions:
REMARK  status: ('A' for Active; 'I' for Inactive)
REMARK    1  A    between atoms: C2_2  and  C3_3 
REMARK    2  A    between atoms: C4_4  and  C5_5 
REMARK    3  A    between atoms: C12_14  and  C13_15 
REMARK    4  A    between atoms: C13_15  and  C14_16 
REMARK    5  A    between atoms: C14_16  and  C15_17 
REMARK    6  A    between atoms: C15_17  and  N2_18 
REMARK    7  A    between atoms: C18_27  and  C19_28 
REMARK    8  A    between atoms: C19_28  and  C20_29 
REMARK    9  A    between atoms: C20_29  and  C21_30 
REMARK   10  A    between atoms: C21_30  and  N6_31 
ROOT
HETATM    1  C3  UNL     1      31.506  13.170  30.331  1.00  0.00     0.048 C 
HETATM    2  C4  UNL     1      33.027  13.083  30.296  1.00  0.00     0.085 C 
HETATM    3  C6  UNL     1      33.355  11.892  31.149  1.00  0.00     0.017 C 
HETATM    4  C7  UNL     1      32.127  11.076  31.219  1.00  0.00     0.033 C 
HETATM    5  C8  UNL     1      31.089  11.691  30.351  1.00  0.00     0.043 C 
HETATM    6  C9  UNL     1      29.783  11.617  31.119  1.00  0.00     0.058 C 
HETATM    7  C10 UNL     1      28.674  12.402  30.568  1.00  0.00    -0.027 C 
HETATM    8  C11 UNL     1      27.763  12.077  29.685  1.00  0.00    -0.017 C 
HETATM    9  C12 UNL     1      27.543  10.826  28.946  1.00  0.00     0.100 C 
HETATM   10  C17 UNL     1      27.763   9.581  29.710  1.00  0.00     0.226 C 
HETATM   11  O2  UNL     1      26.975   9.425  30.715  1.00  0.00    -0.273 OA
HETATM   12  N5  UNL     1      28.717   8.579  29.462  1.00  0.00    -0.347 N 
ATOM     13  H5  UNL     1      28.351   7.641  29.305  1.00  0.00     0.163 HD
HETATM   14  C18 UNL     1      30.153   8.720  29.402  1.00  0.00     0.176 C 
HETATM   15  C23 UNL     1      30.637   9.860  28.618  1.00  0.00     0.241 C 
HETATM   16  O3  UNL     1      30.710   9.624  27.353  1.00  0.00    -0.271 OA
HETATM   17  N9  UNL     1      31.026  11.143  29.029  1.00  0.00    -0.349 N 
ATOM     18  H9  UNL     1      31.305  11.777  28.280  1.00  0.00     0.163 HD
ENDROOT
BRANCH   1  19
HETATM   19  C2  UNL     1      31.043  13.907  29.159  1.00  0.00    -0.029 C 
HETATM   20  C1  UNL     1      30.552  15.127  29.236  1.00  0.00     0.007 C 
ENDBRANCH   1  19
BRANCH   2  21
HETATM   21  C5  UNL     1      33.647  14.283  30.905  1.00  0.00     0.236 C 
HETATM   22  N1  UNL     1      32.998  15.012  31.936  1.00  0.00    -0.062 NA
HETATM   23  O1  UNL     1      34.781  14.705  30.527  1.00  0.00    -0.276 OA
ENDBRANCH   2  21
BRANCH  14  24
HETATM   24  C19 UNL     1      30.704   7.405  28.797  1.00  0.00     0.036 C 
BRANCH  24  25
HETATM   25  C20 UNL     1      29.712   6.282  28.919  1.00  0.00     0.022 C 
BRANCH  25  26
HETATM   26  C21 UNL     1      30.135   5.153  28.012  1.00  0.00     0.122 C 
BRANCH  26  27
HETATM   27  N6  UNL     1      31.519   5.250  27.623  1.00  0.00    -0.367 N 
HETATM   28  C22 UNL     1      32.450   4.561  28.190  1.00  0.00     0.196 C 
HETATM   29  N7  UNL     1      33.804   4.677  27.787  1.00  0.00    -0.067 NA
HETATM   30  N8  UNL     1      32.078   3.679  29.234  1.00  0.00    -0.067 NA
ATOM     31  H6  UNL     1      31.771   5.888  26.869  1.00  0.00     0.161 HD
ENDBRANCH  26  27
ENDBRANCH  25  26
ENDBRANCH  24  25
ENDBRANCH  14  24
BRANCH   9  32
HETATM   32  C13 UNL     1      26.171  10.841  28.302  1.00  0.00     0.019 C 
BRANCH  32  33
HETATM   33  C14 UNL     1      25.167  11.735  28.915  1.00  0.00     0.021 C 
BRANCH  33  34
HETATM   34  C15 UNL     1      23.791  11.199  28.456  1.00  0.00     0.122 C 
BRANCH  34  35
HETATM   35  N2  UNL     1      23.733   9.772  28.601  1.00  0.00    -0.367 N 
HETATM   36  C16 UNL     1      23.100   9.082  27.720  1.00  0.00     0.196 C 
HETATM   37  N3  UNL     1      23.013   7.666  27.817  1.00  0.00    -0.067 NA
HETATM   38  N4  UNL     1      22.468   9.721  26.623  1.00  0.00    -0.067 NA
ATOM     39  H2  UNL     1      24.187   9.313  29.390  1.00  0.00     0.161 HD
ENDBRANCH  34  35
ENDBRANCH  33  34
ENDBRANCH  32  33
ENDBRANCH   9  32
TORSDOF 10
ENDMDL
