MODEL 1
REMARK VINA RESULT: -8.246358975      0.000      0.000
REMARK  7 active torsions:
REMARK  status: ('A' for Active; 'I' for Inactive)
REMARK    1  A    between atoms: N1_1  and  N2_4 
REMARK       I    between atoms: N2_4  and  C1_6 
REMARK    2  A    between atoms: C1_6  and  C2_8 
REMARK    3  A    between atoms: C2_8  and  N3_9 
REMARK    4  A    between atoms: C2_8  and  C3_13 
REMARK    5  A    between atoms: C3_13  and  O2_14 
REMARK    6  A    between atoms: C3_13  and  C4_16 
REMARK    7  A    between atoms: C4_16  and  C5_17 
ROOT
HETATM    1  C5  UNL     1      62.821  39.424  38.429  1.00  0.00     0.178 A 
HETATM    2  N4  UNL     1      63.043  40.302  37.350  1.00  0.00    -0.361 N 
ATOM      3  H4  UNL     1      63.670  40.010  36.600  1.00  0.00     0.162 HD
HETATM    4  C6  UNL     1      62.487  41.452  37.278  1.00  0.00     0.138 A 
HETATM    5  N5  UNL     1      62.747  42.255  36.200  1.00  0.00    -0.293 N 
ATOM      6  H5  UNL     1      63.382  41.909  35.480  1.00  0.00     0.172 HD
HETATM    7  C7  UNL     1      62.209  43.472  36.043  1.00  0.00     0.328 A 
HETATM    8  O3  UNL     1      62.503  44.158  35.010  1.00  0.00    -0.247 OA
HETATM    9  N6  UNL     1      61.367  43.950  36.977  1.00  0.00    -0.273 N 
ATOM     10  H6  UNL     1      60.962  44.877  36.850  1.00  0.00     0.173 HD
HETATM   11  C8  UNL     1      61.049  43.252  38.059  1.00  0.00     0.280 A 
HETATM   12  O4  UNL     1      60.268  43.648  38.965  1.00  0.00    -0.265 OA
HETATM   13  C9  UNL     1      61.621  41.981  38.207  1.00  0.00     0.148 A 
HETATM   14  N7  UNL     1      61.346  41.267  39.235  1.00  0.00    -0.318 N 
ATOM     15  H7  UNL     1      60.707  41.635  39.941  1.00  0.00     0.169 HD
HETATM   16  C10 UNL     1      61.902  39.992  39.413  1.00  0.00     0.245 A 
HETATM   17  O5  UNL     1      61.553  39.375  40.474  1.00  0.00    -0.271 OA
ENDROOT
BRANCH   1  18
HETATM   18  C4  UNL     1      64.083  38.872  39.047  1.00  0.00     0.069 C 
BRANCH  18  19
HETATM   19  C3  UNL     1      64.095  37.374  39.110  1.00  0.00     0.160 C 
BRANCH  19  20
HETATM   20  C2  UNL     1      65.517  36.922  38.784  1.00  0.00     0.304 C 
BRANCH  20  21
HETATM   21  C1  UNL     1      66.466  37.352  39.833  1.00  0.00     0.268 C 
HETATM   22  N2  UNL     1      66.440  36.757  41.110  1.00  0.00    -0.275 N 
ATOM     23  H2  UNL     1      65.756  36.025  41.300  1.00  0.00     0.189 HD
HETATM   24  O1  UNL     1      67.309  38.257  39.596  1.00  0.00    -0.269 OA
BRANCH  22  25
HETATM   25  N1  UNL     1      67.320  37.139  42.120  1.00  0.00    -0.343 N 
ATOM     26  H12 UNL     1      67.866  37.990  41.982  1.00  0.00     0.176 HD
ATOM     27  H11 UNL     1      67.425  36.597  42.977  1.00  0.00     0.176 HD
ENDBRANCH  22  25
ENDBRANCH  20  21
BRANCH  20  28
HETATM   28  N3  UNL     1      65.940  37.475  37.512  1.00  0.00    -0.064 N 
ATOM     29  H33 UNL     1      66.732  38.110  37.609  1.00  0.00     0.275 HD
ATOM     30  H32 UNL     1      66.388  36.780  36.914  1.00  0.00     0.275 HD
ATOM     31  H31 UNL     1      65.138  37.918  37.062  1.00  0.00     0.275 HD
ENDBRANCH  20  28
ENDBRANCH  19  20
BRANCH  19  32
HETATM   32  O2  UNL     1      63.752  36.891  40.353  1.00  0.00    -0.393 OA
ATOM     33  H2  UNL     1      63.406  37.607  40.872  1.00  0.00     0.210 HD
ENDBRANCH  19  32
ENDBRANCH  18  19
ENDBRANCH   1  18
TORSDOF 7
ENDMDL
MODEL 2
REMARK VINA RESULT: -8.176450428      1.974      7.013
REMARK  7 active torsions:
REMARK  status: ('A' for Active; 'I' for Inactive)
REMARK    1  A    between atoms: N1_1  and  N2_4 
REMARK       I    between atoms: N2_4  and  C1_6 
REMARK    2  A    between atoms: C1_6  and  C2_8 
REMARK    3  A    between atoms: C2_8  and  N3_9 
REMARK    4  A    between atoms: C2_8  and  C3_13 
REMARK    5  A    between atoms: C3_13  and  O2_14 
REMARK    6  A    between atoms: C3_13  and  C4_16 
REMARK    7  A    between atoms: C4_16  and  C5_17 
ROOT
HETATM    1  C5  UNL     1      62.140  42.002  37.018  1.00  0.00     0.178 A 
HETATM    2  N4  UNL     1      62.975  40.893  36.777  1.00  0.00    -0.361 N 
ATOM      3  H4  UNL     1      63.471  40.835  35.887  1.00  0.00     0.162 HD
HETATM    4  C6  UNL     1      63.133  39.956  37.633  1.00  0.00     0.138 A 
HETATM    5  N5  UNL     1      63.960  38.907  37.333  1.00  0.00    -0.293 N 
ATOM      6  H5  UNL     1      64.430  38.905  36.428  1.00  0.00     0.172 HD
HETATM    7  C7  UNL     1      64.183  37.884  38.170  1.00  0.00     0.328 A 
HETATM    8  O3  UNL     1      64.968  36.945  37.815  1.00  0.00    -0.247 OA
HETATM    9  N6  UNL     1      63.577  37.866  39.371  1.00  0.00    -0.273 N 
ATOM     10  H6  UNL     1      63.752  37.084  40.002  1.00  0.00     0.173 HD
HETATM   11  C8  UNL     1      62.757  38.834  39.758  1.00  0.00     0.280 A 
HETATM   12  O4  UNL     1      62.163  38.869  40.869  1.00  0.00    -0.265 OA
HETATM   13  C9  UNL     1      62.535  39.896  38.871  1.00  0.00     0.148 A 
HETATM   14  N7  UNL     1      61.751  40.855  39.199  1.00  0.00    -0.318 N 
ATOM     15  H7  UNL     1      61.294  40.835  40.110  1.00  0.00     0.169 HD
HETATM   16  C10 UNL     1      61.508  41.932  38.333  1.00  0.00     0.245 A 
HETATM   17  O5  UNL     1      60.710  42.828  38.769  1.00  0.00    -0.271 OA
ENDROOT
BRANCH   1  18
HETATM   18  C4  UNL     1      61.162  42.294  35.905  1.00  0.00     0.069 C 
BRANCH  18  19
HETATM   19  C3  UNL     1      61.634  43.380  34.985  1.00  0.00     0.160 C 
BRANCH  19  20
HETATM   20  C2  UNL     1      60.668  44.554  35.143  1.00  0.00     0.304 C 
BRANCH  20  21
HETATM   21  C1  UNL     1      61.012  45.370  36.327  1.00  0.00     0.268 C 
HETATM   22  N2  UNL     1      60.239  45.288  37.502  1.00  0.00    -0.275 N 
ATOM     23  H2  UNL     1      59.439  44.656  37.524  1.00  0.00     0.189 HD
HETATM   24  O1  UNL     1      62.000  46.150  36.296  1.00  0.00    -0.269 OA
BRANCH  22  25
HETATM   25  N1  UNL     1      60.536  46.043  38.634  1.00  0.00    -0.343 N 
ATOM     26  H12 UNL     1      61.507  46.080  38.944  1.00  0.00     0.176 HD
ATOM     27  H11 UNL     1      59.816  46.551  39.148  1.00  0.00     0.176 HD
ENDBRANCH  22  25
ENDBRANCH  20  21
BRANCH  20  28
HETATM   28  N3  UNL     1      59.309  44.069  35.286  1.00  0.00    -0.064 N 
ATOM     29  H33 UNL     1      58.842  43.951  34.387  1.00  0.00     0.275 HD
ATOM     30  H32 UNL     1      59.273  43.096  35.593  1.00  0.00     0.275 HD
ATOM     31  H31 UNL     1      58.800  44.694  35.911  1.00  0.00     0.275 HD
ENDBRANCH  20  28
ENDBRANCH  19  20
BRANCH  19  32
HETATM   32  O2  UNL     1      62.907  43.814  35.281  1.00  0.00    -0.393 OA
ATOM     33  H2  UNL     1      63.232  43.317  36.023  1.00  0.00     0.210 HD
ENDBRANCH  19  32
ENDBRANCH  18  19
ENDBRANCH   1  18
TORSDOF 7
ENDMDL
MODEL 3
REMARK VINA RESULT: -8.155623171      2.036      7.045
REMARK  7 active torsions:
REMARK  status: ('A' for Active; 'I' for Inactive)
REMARK    1  A    between atoms: N1_1  and  N2_4 
REMARK       I    between atoms: N2_4  and  C1_6 
REMARK    2  A    between atoms: C1_6  and  C2_8 
REMARK    3  A    between atoms: C2_8  and  N3_9 
REMARK    4  A    between atoms: C2_8  and  C3_13 
REMARK    5  A    between atoms: C3_13  and  O2_14 
REMARK    6  A    between atoms: C3_13  and  C4_16 
REMARK    7  A    between atoms: C4_16  and  C5_17 
ROOT
HETATM    1  C5  UNL     1      61.616  41.880  37.392  1.00  0.00     0.178 A 
HETATM    2  N4  UNL     1      62.573  40.914  37.025  1.00  0.00    -0.361 N 
ATOM      3  H4  UNL     1      62.996  40.967  36.098  1.00  0.00     0.162 HD
HETATM    4  C6  UNL     1      62.931  39.971  37.813  1.00  0.00     0.138 A 
HETATM    5  N5  UNL     1      63.867  39.066  37.392  1.00  0.00    -0.293 N 
ATOM      6  H5  UNL     1      64.256  39.171  36.455  1.00  0.00     0.172 HD
HETATM    7  C7  UNL     1      64.300  38.049  38.152  1.00  0.00     0.328 A 
HETATM    8  O3  UNL     1      65.175  37.249  37.685  1.00  0.00    -0.247 OA
HETATM    9  N6  UNL     1      63.805  37.891  39.392  1.00  0.00    -0.273 N 
ATOM     10  H6  UNL     1      64.139  37.115  39.963  1.00  0.00     0.173 HD
HETATM   11  C8  UNL     1      62.894  38.713  39.895  1.00  0.00     0.280 A 
HETATM   12  O4  UNL     1      62.395  38.614  41.048  1.00  0.00    -0.265 OA
HETATM   13  C9  UNL     1      62.452  39.771  39.088  1.00  0.00     0.148 A 
HETATM   14  N7  UNL     1      61.574  40.593  39.528  1.00  0.00    -0.318 N 
ATOM     15  H7  UNL     1      61.201  40.467  40.469  1.00  0.00     0.169 HD
HETATM   16  C10 UNL     1      61.111  41.661  38.745  1.00  0.00     0.245 A 
HETATM   17  O5  UNL     1      60.236  42.414  39.290  1.00  0.00    -0.271 OA
ENDROOT
BRANCH   1  18
HETATM   18  C4  UNL     1      60.517  42.079  36.375  1.00  0.00     0.069 C 
BRANCH  18  19
HETATM   19  C3  UNL     1      60.378  43.507  35.939  1.00  0.00     0.160 C 
BRANCH  19  20
HETATM   20  C2  UNL     1      61.700  44.204  36.255  1.00  0.00     0.304 C 
BRANCH  20  21
HETATM   21  C1  UNL     1      61.515  45.666  36.377  1.00  0.00     0.268 C 
HETATM   22  N2  UNL     1      62.445  46.448  37.092  1.00  0.00    -0.275 N 
ATOM     23  H2  UNL     1      63.247  45.990  37.524  1.00  0.00     0.189 HD
HETATM   24  O1  UNL     1      60.524  46.229  35.843  1.00  0.00    -0.269 OA
BRANCH  22  25
HETATM   25  N1  UNL     1      62.300  47.827  37.226  1.00  0.00    -0.343 N 
ATOM     26  H12 UNL     1      61.713  48.175  37.984  1.00  0.00     0.176 HD
ATOM     27  H11 UNL     1      62.761  48.482  36.595  1.00  0.00     0.176 HD
ENDBRANCH  22  25
ENDBRANCH  20  21
BRANCH  20  28
HETATM   28  N3  UNL     1      62.669  43.939  35.210  1.00  0.00    -0.064 N 
ATOM     29  H33 UNL     1      62.613  42.982  34.861  1.00  0.00     0.275 HD
ATOM     30  H32 UNL     1      62.443  44.420  34.339  1.00  0.00     0.275 HD
ATOM     31  H31 UNL     1      63.600  44.174  35.555  1.00  0.00     0.275 HD
ENDBRANCH  20  28
ENDBRANCH  19  20
BRANCH  19  32
HETATM   32  O2  UNL     1      60.126  43.629  34.590  1.00  0.00    -0.393 OA
ATOM     33  H2  UNL     1      59.203  43.468  34.437  1.00  0.00     0.210 HD
ENDBRANCH  19  32
ENDBRANCH  18  19
ENDBRANCH   1  18
TORSDOF 7
ENDMDL
MODEL 4
REMARK VINA RESULT: -7.857162677      2.385      7.467
REMARK  7 active torsions:
REMARK  status: ('A' for Active; 'I' for Inactive)
REMARK    1  A    between atoms: N1_1  and  N2_4 
REMARK       I    between atoms: N2_4  and  C1_6 
REMARK    2  A    between atoms: C1_6  and  C2_8 
REMARK    3  A    between atoms: C2_8  and  N3_9 
REMARK    4  A    between atoms: C2_8  and  C3_13 
REMARK    5  A    between atoms: C3_13  and  O2_14 
REMARK    6  A    between atoms: C3_13  and  C4_16 
REMARK    7  A    between atoms: C4_16  and  C5_17 
ROOT
HETATM    1  C5  UNL     1      61.782  42.939  37.406  1.00  0.00     0.178 A 
HETATM    2  N4  UNL     1      62.549  41.836  36.981  1.00  0.00    -0.361 N 
ATOM      3  H4  UNL     1      63.027  41.886  36.081  1.00  0.00     0.162 HD
HETATM    4  C6  UNL     1      62.667  40.774  37.684  1.00  0.00     0.138 A 
HETATM    5  N5  UNL     1      63.429  39.740  37.211  1.00  0.00    -0.293 N 
ATOM      6  H5  UNL     1      63.883  39.848  36.305  1.00  0.00     0.172 HD
HETATM    7  C7  UNL     1      63.607  38.592  37.881  1.00  0.00     0.328 A 
HETATM    8  O3  UNL     1      64.332  37.676  37.370  1.00  0.00    -0.247 OA
HETATM    9  N6  UNL     1      63.020  38.425  39.079  1.00  0.00    -0.273 N 
ATOM     10  H6  UNL     1      63.161  37.550  39.582  1.00  0.00     0.173 HD
HETATM   11  C8  UNL     1      62.263  39.367  39.627  1.00  0.00     0.280 A 
HETATM   12  O4  UNL     1      61.689  39.267  40.744  1.00  0.00    -0.265 OA
HETATM   13  C9  UNL     1      62.086  40.561  38.913  1.00  0.00     0.148 A 
HETATM   14  N7  UNL     1      61.364  41.500  39.399  1.00  0.00    -0.318 N 
ATOM     15  H7  UNL     1      60.920  41.368  40.309  1.00  0.00     0.169 HD
HETATM   16  C10 UNL     1      61.168  42.706  38.710  1.00  0.00     0.245 A 
HETATM   17  O5  UNL     1      60.429  43.568  39.294  1.00  0.00    -0.271 OA
ENDROOT
BRANCH   1  18
HETATM   18  C4  UNL     1      60.805  43.447  36.373  1.00  0.00     0.069 C 
BRANCH  18  19
HETATM   19  C3  UNL     1      61.304  44.659  35.644  1.00  0.00     0.160 C 
BRANCH  19  20
HETATM   20  C2  UNL     1      60.338  45.801  35.958  1.00  0.00     0.304 C 
BRANCH  20  21
HETATM   21  C1  UNL     1      61.062  46.986  36.468  1.00  0.00     0.268 C 
HETATM   22  N2  UNL     1      61.131  47.242  37.852  1.00  0.00    -0.275 N 
ATOM     23  H2  UNL     1      60.674  46.598  38.497  1.00  0.00     0.189 HD
HETATM   24  O1  UNL     1      61.625  47.779  35.669  1.00  0.00    -0.269 OA
BRANCH  22  25
HETATM   25  N1  UNL     1      61.804  48.349  38.364  1.00  0.00    -0.343 N 
ATOM     26  H12 UNL     1      62.112  49.067  37.709  1.00  0.00     0.176 HD
ATOM     27  H11 UNL     1      61.991  48.453  39.361  1.00  0.00     0.176 HD
ENDBRANCH  22  25
ENDBRANCH  20  21
BRANCH  20  28
HETATM   28  N3  UNL     1      59.370  45.380  36.952  1.00  0.00    -0.064 N 
ATOM     29  H33 UNL     1      59.029  46.157  37.517  1.00  0.00     0.275 HD
ATOM     30  H32 UNL     1      58.480  45.106  36.536  1.00  0.00     0.275 HD
ATOM     31  H31 UNL     1      59.781  44.637  37.519  1.00  0.00     0.275 HD
ENDBRANCH  20  28
ENDBRANCH  19  20
BRANCH  19  32
HETATM   32  O2  UNL     1      62.570  45.032  36.036  1.00  0.00    -0.393 OA
ATOM     33  H2  UNL     1      62.793  44.561  36.830  1.00  0.00     0.210 HD
ENDBRANCH  19  32
ENDBRANCH  18  19
ENDBRANCH   1  18
TORSDOF 7
ENDMDL
MODEL 5
REMARK VINA RESULT: -7.798179349      2.528      7.068
REMARK  7 active torsions:
REMARK  status: ('A' for Active; 'I' for Inactive)
REMARK    1  A    between atoms: N1_1  and  N2_4 
REMARK       I    between atoms: N2_4  and  C1_6 
REMARK    2  A    between atoms: C1_6  and  C2_8 
REMARK    3  A    between atoms: C2_8  and  N3_9 
REMARK    4  A    between atoms: C2_8  and  C3_13 
REMARK    5  A    between atoms: C3_13  and  O2_14 
REMARK    6  A    between atoms: C3_13  and  C4_16 
REMARK    7  A    between atoms: C4_16  and  C5_17 
ROOT
HETATM    1  C5  UNL     1      61.597  41.781  38.164  1.00  0.00     0.178 A 
HETATM    2  N4  UNL     1      61.120  41.471  39.453  1.00  0.00    -0.361 N 
ATOM      3  H4  UNL     1      60.401  42.064  39.867  1.00  0.00     0.162 HD
HETATM    4  C6  UNL     1      61.555  40.470  40.121  1.00  0.00     0.138 A 
HETATM    5  N5  UNL     1      61.045  40.226  41.367  1.00  0.00    -0.293 N 
ATOM      6  H5  UNL     1      60.328  40.853  41.730  1.00  0.00     0.172 HD
HETATM    7  C7  UNL     1      61.443  39.201  42.136  1.00  0.00     0.328 A 
HETATM    8  O3  UNL     1      60.919  39.042  43.286  1.00  0.00    -0.247 OA
HETATM    9  N6  UNL     1      62.386  38.357  41.680  1.00  0.00    -0.273 N 
ATOM     10  H6  UNL     1      62.682  37.580  42.270  1.00  0.00     0.173 HD
HETATM   11  C8  UNL     1      62.943  38.506  40.485  1.00  0.00     0.280 A 
HETATM   12  O4  UNL     1      63.829  37.748  40.007  1.00  0.00    -0.265 OA
HETATM   13  C9  UNL     1      62.516  39.582  39.695  1.00  0.00     0.148 A 
HETATM   14  N7  UNL     1      63.023  39.768  38.534  1.00  0.00    -0.318 N 
ATOM     15  H7  UNL     1      63.739  39.126  38.193  1.00  0.00     0.169 HD
HETATM   16  C10 UNL     1      62.618  40.836  37.719  1.00  0.00     0.245 A 
HETATM   17  O5  UNL     1      63.193  40.920  36.583  1.00  0.00    -0.271 OA
ENDROOT
BRANCH   1  18
HETATM   18  C4  UNL     1      62.009  43.224  37.989  1.00  0.00     0.069 C 
BRANCH  18  19
HETATM   19  C3  UNL     1      61.012  44.023  37.204  1.00  0.00     0.160 C 
BRANCH  19  20
HETATM   20  C2  UNL     1      61.586  44.204  35.800  1.00  0.00     0.304 C 
BRANCH  20  21
HETATM   21  C1  UNL     1      60.899  43.327  34.827  1.00  0.00     0.268 C 
HETATM   22  N2  UNL     1      61.308  41.990  34.656  1.00  0.00    -0.275 N 
ATOM     23  H2  UNL     1      62.085  41.635  35.214  1.00  0.00     0.189 HD
HETATM   24  O1  UNL     1      59.941  43.768  34.140  1.00  0.00    -0.269 OA
BRANCH  22  25
HETATM   25  N1  UNL     1      60.683  41.138  33.748  1.00  0.00    -0.343 N 
ATOM     26  H12 UNL     1      60.701  40.137  33.941  1.00  0.00     0.176 HD
ATOM     27  H11 UNL     1      60.217  41.489  32.912  1.00  0.00     0.176 HD
ENDBRANCH  22  25
ENDBRANCH  20  21
BRANCH  20  28
HETATM   28  N3  UNL     1      63.002  43.893  35.794  1.00  0.00    -0.064 N 
ATOM     29  H33 UNL     1      63.185  42.911  35.999  1.00  0.00     0.275 HD
ATOM     30  H32 UNL     1      63.402  43.918  34.856  1.00  0.00     0.275 HD
ATOM     31  H31 UNL     1      63.481  44.523  36.439  1.00  0.00     0.275 HD
ENDBRANCH  20  28
ENDBRANCH  19  20
BRANCH  19  32
HETATM   32  O2  UNL     1      59.789  43.398  37.104  1.00  0.00    -0.393 OA
ATOM     33  H2  UNL     1      59.928  42.504  36.815  1.00  0.00     0.210 HD
ENDBRANCH  19  32
ENDBRANCH  18  19
ENDBRANCH   1  18
TORSDOF 7
ENDMDL
