MODEL 1
REMARK VINA RESULT: -6.627260432      0.000      0.000
REMARK  14 active torsions:
REMARK  status: ('A' for Active; 'I' for Inactive)
REMARK    1  A    between atoms: N1_2  and  C2_3 
REMARK    2  A    between atoms: N1_2  and  C5_10 
REMARK    3  A    between atoms: C2_3  and  C3_4 
REMARK    4  A    between atoms: C3_4  and  O1_5 
REMARK    5  A    between atoms: C3_4  and  C4_7 
REMARK    6  A    between atoms: C4_7  and  O2_8 
REMARK    7  A    between atoms: C5_10  and  C6_11 
REMARK    8  A    between atoms: C6_11  and  N2_12 
REMARK    9  A    between atoms: C9_20  and  O5_21 
REMARK   10  A    between atoms: C10_23  and  O6_24 
REMARK   11  A    between atoms: C10_23  and  O7_26 
REMARK   12  A    between atoms: C14_34  and  O10_35 
REMARK   13  A    between atoms: C15_37  and  O11_38 
REMARK   14  A    between atoms: C16_40  and  O12_41 
ROOT
HETATM    1  C6  UNL     1      60.355  46.479  38.249  1.00  0.00     0.211 C 
HETATM    2  O3  UNL     1      61.467  46.352  37.373  1.00  0.00    -0.278 OA
HETATM    3  C8  UNL     1      62.368  45.582  36.740  1.00  0.00     0.309 C 
HETATM    4  O4  UNL     1      63.548  46.050  36.631  1.00  0.00    -0.261 OA
HETATM    5  C9  UNL     1      62.340  44.251  36.099  1.00  0.00     0.276 C 
HETATM    6  C10 UNL     1      60.877  44.010  35.690  1.00  0.00     0.298 C 
HETATM    7  N5  UNL     1      60.702  43.595  36.976  1.00  0.00    -0.266 N 
HETATM    8  C11 UNL     1      59.841  43.979  37.923  1.00  0.00     0.159 C 
HETATM    9  O8  UNL     1      60.166  43.349  39.134  1.00  0.00    -0.311 OA
HETATM   10  C12 UNL     1      60.252  41.943  38.956  1.00  0.00     0.346 C 
HETATM   11  O9  UNL     1      61.561  41.623  39.218  1.00  0.00    -0.364 OA
HETATM   12  C13 UNL     1      62.272  41.037  38.214  1.00  0.00     0.207 C 
HETATM   13  C14 UNL     1      62.271  41.806  36.898  1.00  0.00     0.201 C 
HETATM   14  C15 UNL     1      62.042  43.238  37.210  1.00  0.00     0.217 C 
HETATM   15  C16 UNL     1      59.410  45.372  38.187  1.00  0.00     0.254 C 
ENDROOT
BRANCH   1  16
HETATM   16  C5  UNL     1      60.949  46.808  39.587  1.00  0.00     0.122 C 
BRANCH  16  17
HETATM   17  N1  UNL     1      60.149  47.176  40.669  1.00  0.00    -0.391 N 
HETATM   18  C1  UNL     1      59.183  46.395  41.260  1.00  0.00     0.148 C 
BRANCH  17  19
HETATM   19  C2  UNL     1      60.696  48.301  41.337  1.00  0.00     0.155 C 
BRANCH  19  20
HETATM   20  C3  UNL     1      59.972  49.592  41.280  1.00  0.00     0.159 C 
BRANCH  20  21
HETATM   21  O1  UNL     1      58.999  49.539  40.223  1.00  0.00    -0.392 OA
ATOM     22  H1  UNL     1      58.305  50.162  40.408  1.00  0.00     0.210 HD
ENDBRANCH  20  21
BRANCH  20  23
HETATM   23  C4  UNL     1      60.824  50.782  40.896  1.00  0.00     0.197 C 
BRANCH  23  24
HETATM   24  O2  UNL     1      61.616  50.563  39.785  1.00  0.00    -0.398 OA
ATOM     25  H2  UNL     1      62.259  51.246  39.633  1.00  0.00     0.209 HD
ENDBRANCH  23  24
ENDBRANCH  20  23
ENDBRANCH  19  20
ENDBRANCH  17  19
ENDBRANCH  16  17
ENDBRANCH   1  16
BRANCH   1  26
HETATM   26  N2  UNL     1      59.660  47.687  37.849  1.00  0.00    -0.328 N 
HETATM   27  C7  UNL     1      60.103  48.737  37.323  1.00  0.00     0.199 C 
HETATM   28  N3  UNL     1      59.156  49.800  37.029  1.00  0.00    -0.067 NA
HETATM   29  N4  UNL     1      61.454  48.965  36.994  1.00  0.00    -0.067 NA
ATOM     30  H2  UNL     1      58.654  47.683  38.021  1.00  0.00     0.165 HD
ENDBRANCH   1  26
BRANCH  15  31
HETATM   31  O12 UNL     1      58.380  45.725  37.226  1.00  0.00    -0.382 OA
ATOM     32  H12 UNL     1      58.259  44.981  36.647  1.00  0.00     0.210 HD
ENDBRANCH  15  31
BRANCH   5  33
HETATM   33  O5  UNL     1      63.291  43.922  35.207  1.00  0.00    -0.370 OA
ATOM     34  H5  UNL     1      63.759  43.100  35.300  1.00  0.00     0.211 HD
ENDBRANCH   5  33
BRANCH   6  35
HETATM   35  O6  UNL     1      60.365  45.194  35.211  1.00  0.00    -0.346 OA
ATOM     36  H6  UNL     1      60.125  45.067  34.301  1.00  0.00     0.215 HD
ENDBRANCH   6  35
BRANCH   6  37
HETATM   37  O7  UNL     1      60.778  43.040  34.696  1.00  0.00    -0.346 OA
ATOM     38  H7  UNL     1      59.932  42.608  34.714  1.00  0.00     0.215 HD
ENDBRANCH   6  37
BRANCH  14  39
HETATM   39  O11 UNL     1      62.692  43.689  38.354  1.00  0.00    -0.365 OA
ATOM     40  H11 UNL     1      62.424  43.121  39.066  1.00  0.00     0.212 HD
ENDBRANCH  14  39
BRANCH  13  41
HETATM   41  O10 UNL     1      63.391  41.545  36.135  1.00  0.00    -0.388 OA
ATOM     42  H10 UNL     1      63.763  42.333  35.757  1.00  0.00     0.210 HD
ENDBRANCH  13  41
TORSDOF 14
ENDMDL
MODEL 2
REMARK VINA RESULT: -6.283998291      1.563      2.338
REMARK  14 active torsions:
REMARK  status: ('A' for Active; 'I' for Inactive)
REMARK    1  A    between atoms: N1_2  and  C2_3 
REMARK    2  A    between atoms: N1_2  and  C5_10 
REMARK    3  A    between atoms: C2_3  and  C3_4 
REMARK    4  A    between atoms: C3_4  and  O1_5 
REMARK    5  A    between atoms: C3_4  and  C4_7 
REMARK    6  A    between atoms: C4_7  and  O2_8 
REMARK    7  A    between atoms: C5_10  and  C6_11 
REMARK    8  A    between atoms: C6_11  and  N2_12 
REMARK    9  A    between atoms: C9_20  and  O5_21 
REMARK   10  A    between atoms: C10_23  and  O6_24 
REMARK   11  A    between atoms: C10_23  and  O7_26 
REMARK   12  A    between atoms: C14_34  and  O10_35 
REMARK   13  A    between atoms: C15_37  and  O11_38 
REMARK   14  A    between atoms: C16_40  and  O12_41 
ROOT
HETATM    1  C6  UNL     1      60.345  46.457  38.270  1.00  0.00     0.211 C 
HETATM    2  O3  UNL     1      61.479  46.341  37.423  1.00  0.00    -0.278 OA
HETATM    3  C8  UNL     1      62.393  45.578  36.799  1.00  0.00     0.309 C 
HETATM    4  O4  UNL     1      63.578  46.041  36.732  1.00  0.00    -0.261 OA
HETATM    5  C9  UNL     1      62.375  44.260  36.131  1.00  0.00     0.276 C 
HETATM    6  C10 UNL     1      60.923  44.037  35.677  1.00  0.00     0.298 C 
HETATM    7  N5  UNL     1      60.709  43.597  36.950  1.00  0.00    -0.266 N 
HETATM    8  C11 UNL     1      59.825  43.967  37.880  1.00  0.00     0.159 C 
HETATM    9  O8  UNL     1      60.113  43.312  39.087  1.00  0.00    -0.311 OA
HETATM   10  C12 UNL     1      60.196  41.909  38.883  1.00  0.00     0.346 C 
HETATM   11  O9  UNL     1      61.495  41.576  39.174  1.00  0.00    -0.364 OA
HETATM   12  C13 UNL     1      62.231  41.005  38.179  1.00  0.00     0.207 C 
HETATM   13  C14 UNL     1      62.270  41.800  36.879  1.00  0.00     0.201 C 
HETATM   14  C15 UNL     1      62.041  43.227  37.213  1.00  0.00     0.217 C 
HETATM   15  C16 UNL     1      59.395  45.358  38.160  1.00  0.00     0.254 C 
ENDROOT
BRANCH   1  16
HETATM   16  C5  UNL     1      60.903  46.756  39.631  1.00  0.00     0.122 C 
BRANCH  16  17
HETATM   17  N1  UNL     1      60.130  46.616  40.783  1.00  0.00    -0.391 N 
HETATM   18  C1  UNL     1      58.781  46.869  40.884  1.00  0.00     0.148 C 
BRANCH  17  19
HETATM   19  C2  UNL     1      60.805  45.826  41.748  1.00  0.00     0.155 C 
BRANCH  19  20
HETATM   20  C3  UNL     1      60.140  44.613  42.275  1.00  0.00     0.159 C 
BRANCH  20  21
HETATM   21  O1  UNL     1      59.694  44.867  43.618  1.00  0.00    -0.392 OA
ATOM     22  H1  UNL     1      60.393  45.292  44.102  1.00  0.00     0.210 HD
ENDBRANCH  20  21
BRANCH  20  23
HETATM   23  C4  UNL     1      61.046  43.412  42.440  1.00  0.00     0.197 C 
BRANCH  23  24
HETATM   24  O2  UNL     1      61.904  43.211  41.376  1.00  0.00    -0.398 OA
ATOM     25  H2  UNL     1      62.574  42.559  41.543  1.00  0.00     0.209 HD
ENDBRANCH  23  24
ENDBRANCH  20  23
ENDBRANCH  19  20
ENDBRANCH  17  19
ENDBRANCH  16  17
ENDBRANCH   1  16
BRANCH   1  26
HETATM   26  N2  UNL     1      59.667  47.677  37.876  1.00  0.00    -0.328 N 
HETATM   27  C7  UNL     1      60.114  48.698  37.299  1.00  0.00     0.199 C 
HETATM   28  N3  UNL     1      59.187  49.785  37.027  1.00  0.00    -0.067 NA
HETATM   29  N4  UNL     1      61.452  48.872  36.891  1.00  0.00    -0.067 NA
ATOM     30  H2  UNL     1      58.673  47.711  38.102  1.00  0.00     0.165 HD
ENDBRANCH   1  26
BRANCH  15  31
HETATM   31  O12 UNL     1      58.394  45.736  37.179  1.00  0.00    -0.382 OA
ATOM     32  H12 UNL     1      58.810  46.318  36.553  1.00  0.00     0.210 HD
ENDBRANCH  15  31
BRANCH   5  33
HETATM   33  O5  UNL     1      63.348  43.943  35.259  1.00  0.00    -0.370 OA
ATOM     34  H5  UNL     1      64.046  44.565  35.087  1.00  0.00     0.211 HD
ENDBRANCH   5  33
BRANCH   6  35
HETATM   35  O6  UNL     1      60.430  45.233  35.209  1.00  0.00    -0.346 OA
ATOM     36  H6  UNL     1      60.501  45.232  34.262  1.00  0.00     0.215 HD
ENDBRANCH   6  35
BRANCH   6  37
HETATM   37  O7  UNL     1      60.845  43.087  34.661  1.00  0.00    -0.346 OA
ATOM     38  H7  UNL     1      60.234  43.352  33.984  1.00  0.00     0.215 HD
ENDBRANCH   6  37
BRANCH  14  39
HETATM   39  O11 UNL     1      62.662  43.652  38.383  1.00  0.00    -0.365 OA
ATOM     40  H11 UNL     1      63.593  43.691  38.201  1.00  0.00     0.212 HD
ENDBRANCH  14  39
BRANCH  13  41
HETATM   41  O10 UNL     1      63.409  41.548  36.141  1.00  0.00    -0.388 OA
ATOM     42  H10 UNL     1      63.344  41.874  35.252  1.00  0.00     0.210 HD
ENDBRANCH  13  41
TORSDOF 14
ENDMDL
MODEL 3
REMARK VINA RESULT: -5.968797985      2.477      6.405
REMARK  14 active torsions:
REMARK  status: ('A' for Active; 'I' for Inactive)
REMARK    1  A    between atoms: N1_2  and  C2_3 
REMARK    2  A    between atoms: N1_2  and  C5_10 
REMARK    3  A    between atoms: C2_3  and  C3_4 
REMARK    4  A    between atoms: C3_4  and  O1_5 
REMARK    5  A    between atoms: C3_4  and  C4_7 
REMARK    6  A    between atoms: C4_7  and  O2_8 
REMARK    7  A    between atoms: C5_10  and  C6_11 
REMARK    8  A    between atoms: C6_11  and  N2_12 
REMARK    9  A    between atoms: C9_20  and  O5_21 
REMARK   10  A    between atoms: C10_23  and  O6_24 
REMARK   11  A    between atoms: C10_23  and  O7_26 
REMARK   12  A    between atoms: C14_34  and  O10_35 
REMARK   13  A    between atoms: C15_37  and  O11_38 
REMARK   14  A    between atoms: C16_40  and  O12_41 
ROOT
HETATM    1  C6  UNL     1      60.150  45.883  38.508  1.00  0.00     0.211 C 
HETATM    2  O3  UNL     1      59.060  46.541  37.878  1.00  0.00    -0.278 OA
HETATM    3  C8  UNL     1      57.772  46.926  37.883  1.00  0.00     0.309 C 
HETATM    4  O4  UNL     1      57.156  46.887  36.769  1.00  0.00    -0.261 OA
HETATM    5  C9  UNL     1      56.830  47.413  38.913  1.00  0.00     0.276 C 
HETATM    6  C10 UNL     1      57.699  48.032  40.021  1.00  0.00     0.298 C 
HETATM    7  N5  UNL     1      57.826  46.756  40.482  1.00  0.00    -0.266 N 
HETATM    8  C11 UNL     1      58.904  46.015  40.755  1.00  0.00     0.159 C 
HETATM    9  O8  UNL     1      58.505  44.705  41.060  1.00  0.00    -0.311 OA
HETATM   10  C12 UNL     1      57.523  44.710  42.086  1.00  0.00     0.346 C 
HETATM   11  O9  UNL     1      56.389  44.199  41.505  1.00  0.00    -0.364 OA
HETATM   12  C13 UNL     1      55.286  44.999  41.482  1.00  0.00     0.207 C 
HETATM   13  C14 UNL     1      55.507  46.373  40.860  1.00  0.00     0.201 C 
HETATM   14  C15 UNL     1      56.640  46.263  39.909  1.00  0.00     0.217 C 
HETATM   15  C16 UNL     1      60.155  45.981  39.961  1.00  0.00     0.254 C 
ENDROOT
BRANCH   1  16
HETATM   16  C5  UNL     1      60.177  44.509  37.906  1.00  0.00     0.122 C 
BRANCH  16  17
HETATM   17  N1  UNL     1      61.202  43.608  38.191  1.00  0.00    -0.391 N 
HETATM   18  C1  UNL     1      61.244  42.749  39.265  1.00  0.00     0.148 C 
BRANCH  17  19
HETATM   19  C2  UNL     1      62.020  43.402  37.051  1.00  0.00     0.155 C 
BRANCH  19  20
HETATM   20  C3  UNL     1      61.488  42.611  35.919  1.00  0.00     0.159 C 
BRANCH  20  21
HETATM   21  O1  UNL     1      62.413  41.554  35.607  1.00  0.00    -0.392 OA
ATOM     22  H1  UNL     1      63.047  41.873  34.975  1.00  0.00     0.210 HD
ENDBRANCH  20  21
BRANCH  20  23
HETATM   23  C4  UNL     1      61.383  43.364  34.611  1.00  0.00     0.197 C 
BRANCH  23  24
HETATM   24  O2  UNL     1      60.180  44.021  34.442  1.00  0.00    -0.398 OA
ATOM     25  H2  UNL     1      60.172  44.904  34.791  1.00  0.00     0.209 HD
ENDBRANCH  23  24
ENDBRANCH  20  23
ENDBRANCH  19  20
ENDBRANCH  17  19
ENDBRANCH  16  17
ENDBRANCH   1  16
BRANCH   1  26
HETATM   26  N2  UNL     1      61.353  46.525  38.010  1.00  0.00    -0.328 N 
HETATM   27  C7  UNL     1      61.637  46.920  36.854  1.00  0.00     0.199 C 
HETATM   28  N3  UNL     1      62.938  47.535  36.647  1.00  0.00    -0.067 NA
HETATM   29  N4  UNL     1      60.786  46.815  35.734  1.00  0.00    -0.067 NA
ATOM     30  H2  UNL     1      62.080  46.678  38.709  1.00  0.00     0.165 HD
ENDBRANCH   1  26
BRANCH  15  31
HETATM   31  O12 UNL     1      60.960  47.133  40.323  1.00  0.00    -0.382 OA
ATOM     32  H12 UNL     1      61.444  47.402  39.551  1.00  0.00     0.210 HD
ENDBRANCH  15  31
BRANCH   5  33
HETATM   33  O5  UNL     1      55.731  48.091  38.542  1.00  0.00    -0.370 OA
ATOM     34  H5  UNL     1      55.144  47.718  37.894  1.00  0.00     0.211 HD
ENDBRANCH   5  33
BRANCH   6  35
HETATM   35  O6  UNL     1      58.732  48.717  39.424  1.00  0.00    -0.346 OA
ATOM     36  H6  UNL     1      58.818  49.559  39.854  1.00  0.00     0.215 HD
ENDBRANCH   6  35
BRANCH   6  37
HETATM   37  O7  UNL     1      56.967  48.916  40.810  1.00  0.00    -0.346 OA
ATOM     38  H7  UNL     1      57.005  48.677  41.728  1.00  0.00     0.215 HD
ENDBRANCH   6  37
BRANCH  14  39
HETATM   39  O11 UNL     1      56.662  45.083  39.172  1.00  0.00    -0.365 OA
ATOM     40  H11 UNL     1      55.760  44.875  38.959  1.00  0.00     0.212 HD
ENDBRANCH  14  39
BRANCH  13  41
HETATM   41  O10 UNL     1      54.349  46.904  40.331  1.00  0.00    -0.388 OA
ATOM     42  H10 UNL     1      54.432  47.830  40.133  1.00  0.00     0.210 HD
ENDBRANCH  13  41
TORSDOF 14
ENDMDL
MODEL 4
REMARK VINA RESULT: -5.788390229      2.463      6.739
REMARK  14 active torsions:
REMARK  status: ('A' for Active; 'I' for Inactive)
REMARK    1  A    between atoms: N1_2  and  C2_3 
REMARK    2  A    between atoms: N1_2  and  C5_10 
REMARK    3  A    between atoms: C2_3  and  C3_4 
REMARK    4  A    between atoms: C3_4  and  O1_5 
REMARK    5  A    between atoms: C3_4  and  C4_7 
REMARK    6  A    between atoms: C4_7  and  O2_8 
REMARK    7  A    between atoms: C5_10  and  C6_11 
REMARK    8  A    between atoms: C6_11  and  N2_12 
REMARK    9  A    between atoms: C9_20  and  O5_21 
REMARK   10  A    between atoms: C10_23  and  O6_24 
REMARK   11  A    between atoms: C10_23  and  O7_26 
REMARK   12  A    between atoms: C14_34  and  O10_35 
REMARK   13  A    between atoms: C15_37  and  O11_38 
REMARK   14  A    between atoms: C16_40  and  O12_41 
ROOT
HETATM    1  C6  UNL     1      60.300  46.718  38.123  1.00  0.00     0.211 C 
HETATM    2  O3  UNL     1      59.661  47.724  37.352  1.00  0.00    -0.278 OA
HETATM    3  C8  UNL     1      58.628  48.563  37.158  1.00  0.00     0.309 C 
HETATM    4  O4  UNL     1      58.247  48.737  35.956  1.00  0.00    -0.261 OA
HETATM    5  C9  UNL     1      57.770  49.385  38.037  1.00  0.00     0.276 C 
HETATM    6  C10 UNL     1      58.598  49.654  39.305  1.00  0.00     0.298 C 
HETATM    7  N5  UNL     1      58.159  48.431  39.717  1.00  0.00    -0.266 N 
HETATM    8  C11 UNL     1      58.819  47.346  40.132  1.00  0.00     0.159 C 
HETATM    9  O8  UNL     1      57.915  46.286  40.300  1.00  0.00    -0.311 OA
HETATM   10  C12 UNL     1      56.842  46.677  41.144  1.00  0.00     0.346 C 
HETATM   11  O9  UNL     1      55.720  46.616  40.355  1.00  0.00    -0.364 OA
HETATM   12  C13 UNL     1      55.015  47.770  40.185  1.00  0.00     0.207 C 
HETATM   13  C14 UNL     1      55.836  48.950  39.679  1.00  0.00     0.201 C 
HETATM   14  C15 UNL     1      56.995  48.408  38.928  1.00  0.00     0.217 C 
HETATM   15  C16 UNL     1      60.087  46.832  39.560  1.00  0.00     0.254 C 
ENDROOT
BRANCH   1  16
HETATM   16  C5  UNL     1      59.919  45.423  37.468  1.00  0.00     0.122 C 
BRANCH  16  17
HETATM   17  N1  UNL     1      60.604  44.239  37.739  1.00  0.00    -0.391 N 
HETATM   18  C1  UNL     1      60.430  43.443  38.848  1.00  0.00     0.148 C 
BRANCH  17  19
HETATM   19  C2  UNL     1      61.232  43.742  36.569  1.00  0.00     0.155 C 
BRANCH  19  20
HETATM   20  C3  UNL     1      62.701  43.553  36.567  1.00  0.00     0.159 C 
BRANCH  20  21
HETATM   21  O1  UNL     1      63.217  43.892  35.268  1.00  0.00    -0.392 OA
ATOM     22  H1  UNL     1      64.060  43.470  35.149  1.00  0.00     0.210 HD
ENDBRANCH  20  21
BRANCH  20  23
HETATM   23  C4  UNL     1      63.156  42.121  36.748  1.00  0.00     0.197 C 
BRANCH  23  24
HETATM   24  O2  UNL     1      62.937  41.323  35.643  1.00  0.00    -0.398 OA
ATOM     25  H2  UNL     1      62.120  41.507  35.193  1.00  0.00     0.209 HD
ENDBRANCH  23  24
ENDBRANCH  20  23
ENDBRANCH  19  20
ENDBRANCH  17  19
ENDBRANCH  16  17
ENDBRANCH   1  16
BRANCH   1  26
HETATM   26  N2  UNL     1      61.722  46.854  37.869  1.00  0.00    -0.328 N 
HETATM   27  C7  UNL     1      62.324  47.239  36.837  1.00  0.00     0.199 C 
HETATM   28  N3  UNL     1      63.777  47.272  36.872  1.00  0.00    -0.067 NA
HETATM   29  N4  UNL     1      61.695  47.646  35.643  1.00  0.00    -0.067 NA
ATOM     30  H2  UNL     1      62.326  46.596  38.649  1.00  0.00     0.165 HD
ENDBRANCH   1  26
BRANCH  15  31
HETATM   31  O12 UNL     1      61.185  47.606  40.109  1.00  0.00    -0.382 OA
ATOM     32  H12 UNL     1      61.995  47.176  39.858  1.00  0.00     0.210 HD
ENDBRANCH  15  31
BRANCH   5  33
HETATM   33  O5  UNL     1      57.084  50.419  37.519  1.00  0.00    -0.370 OA
ATOM     34  H5  UNL     1      57.270  51.303  37.816  1.00  0.00     0.211 HD
ENDBRANCH   5  33
BRANCH   6  35
HETATM   35  O6  UNL     1      59.899  49.892  38.925  1.00  0.00    -0.346 OA
ATOM     36  H6  UNL     1      59.992  50.821  38.753  1.00  0.00     0.215 HD
ENDBRANCH   6  35
BRANCH   6  37
HETATM   37  O7  UNL     1      58.121  50.762  40.001  1.00  0.00    -0.346 OA
ATOM     38  H7  UNL     1      57.725  50.510  40.826  1.00  0.00     0.215 HD
ENDBRANCH   6  37
BRANCH  14  39
HETATM   39  O11 UNL     1      56.706  47.293  38.149  1.00  0.00    -0.365 OA
ATOM     40  H11 UNL     1      56.847  47.545  37.244  1.00  0.00     0.212 HD
ENDBRANCH  14  39
BRANCH  13  41
HETATM   41  O10 UNL     1      55.070  49.867  38.988  1.00  0.00    -0.388 OA
ATOM     42  H10 UNL     1      55.192  49.807  38.048  1.00  0.00     0.210 HD
ENDBRANCH  13  41
TORSDOF 14
ENDMDL
MODEL 5
REMARK VINA RESULT: -5.737332076      2.561      6.421
REMARK  14 active torsions:
REMARK  status: ('A' for Active; 'I' for Inactive)
REMARK    1  A    between atoms: N1_2  and  C2_3 
REMARK    2  A    between atoms: N1_2  and  C5_10 
REMARK    3  A    between atoms: C2_3  and  C3_4 
REMARK    4  A    between atoms: C3_4  and  O1_5 
REMARK    5  A    between atoms: C3_4  and  C4_7 
REMARK    6  A    between atoms: C4_7  and  O2_8 
REMARK    7  A    between atoms: C5_10  and  C6_11 
REMARK    8  A    between atoms: C6_11  and  N2_12 
REMARK    9  A    between atoms: C9_20  and  O5_21 
REMARK   10  A    between atoms: C10_23  and  O6_24 
REMARK   11  A    between atoms: C10_23  and  O7_26 
REMARK   12  A    between atoms: C14_34  and  O10_35 
REMARK   13  A    between atoms: C15_37  and  O11_38 
REMARK   14  A    between atoms: C16_40  and  O12_41 
ROOT
HETATM    1  C6  UNL     1      60.106  45.870  38.814  1.00  0.00     0.211 C 
HETATM    2  O3  UNL     1      59.076  46.450  38.026  1.00  0.00    -0.278 OA
HETATM    3  C8  UNL     1      57.829  46.938  37.916  1.00  0.00     0.309 C 
HETATM    4  O4  UNL     1      57.205  46.684  36.835  1.00  0.00    -0.261 OA
HETATM    5  C9  UNL     1      56.941  47.743  38.781  1.00  0.00     0.276 C 
HETATM    6  C10 UNL     1      57.869  48.533  39.720  1.00  0.00     0.298 C 
HETATM    7  N5  UNL     1      57.882  47.401  40.479  1.00  0.00    -0.266 N 
HETATM    8  C11 UNL     1      58.890  46.656  40.942  1.00  0.00     0.159 C 
HETATM    9  O8  UNL     1      58.376  45.500  41.549  1.00  0.00    -0.311 OA
HETATM   10  C12 UNL     1      57.404  45.843  42.526  1.00  0.00     0.346 C 
HETATM   11  O9  UNL     1      56.225  45.309  42.068  1.00  0.00    -0.364 OA
HETATM   12  C13 UNL     1      55.199  46.174  41.833  1.00  0.00     0.207 C 
HETATM   13  C14 UNL     1      55.540  47.330  40.900  1.00  0.00     0.201 C 
HETATM   14  C15 UNL     1      56.653  46.891  40.024  1.00  0.00     0.217 C 
HETATM   15  C16 UNL     1      60.128  46.318  40.200  1.00  0.00     0.254 C 
ENDROOT
BRANCH   1  16
HETATM   16  C5  UNL     1      60.004  44.395  38.565  1.00  0.00     0.122 C 
BRANCH  16  17
HETATM   17  N1  UNL     1      60.973  43.507  39.033  1.00  0.00    -0.391 N 
HETATM   18  C1  UNL     1      61.303  43.297  40.353  1.00  0.00     0.148 C 
BRANCH  17  19
HETATM   19  C2  UNL     1      61.321  42.568  38.029  1.00  0.00     0.155 C 
BRANCH  19  20
HETATM   20  C3  UNL     1      62.583  42.754  37.279  1.00  0.00     0.159 C 
BRANCH  20  21
HETATM   21  O1  UNL     1      63.314  43.853  37.851  1.00  0.00    -0.392 OA
ATOM     22  H1  UNL     1      62.807  44.224  38.565  1.00  0.00     0.210 HD
ENDBRANCH  20  21
BRANCH  20  23
HETATM   23  C4  UNL     1      62.409  43.180  35.837  1.00  0.00     0.197 C 
BRANCH  23  24
HETATM   24  O2  UNL     1      63.430  43.981  35.365  1.00  0.00    -0.398 OA
ATOM     25  H2  UNL     1      63.216  44.907  35.352  1.00  0.00     0.209 HD
ENDBRANCH  23  24
ENDBRANCH  20  23
ENDBRANCH  19  20
ENDBRANCH  17  19
ENDBRANCH  16  17
ENDBRANCH   1  16
BRANCH   1  26
HETATM   26  N2  UNL     1      61.359  46.261  38.196  1.00  0.00    -0.328 N 
HETATM   27  C7  UNL     1      61.626  46.497  36.992  1.00  0.00     0.199 C 
HETATM   28  N3  UNL     1      62.990  46.873  36.661  1.00  0.00    -0.067 NA
HETATM   29  N4  UNL     1      60.699  46.426  35.932  1.00  0.00    -0.067 NA
ATOM     30  H2  UNL     1      62.145  46.360  38.838  1.00  0.00     0.165 HD
ENDBRANCH   1  26
BRANCH  15  31
HETATM   31  O12 UNL     1      61.037  47.447  40.285  1.00  0.00    -0.382 OA
ATOM     32  H12 UNL     1      60.743  48.101  39.661  1.00  0.00     0.210 HD
ENDBRANCH  15  31
BRANCH   5  33
HETATM   33  O5  UNL     1      55.905  48.406  38.238  1.00  0.00    -0.370 OA
ATOM     34  H5  UNL     1      55.389  48.995  38.777  1.00  0.00     0.211 HD
ENDBRANCH   5  33
BRANCH   6  35
HETATM   35  O6  UNL     1      58.956  48.957  38.991  1.00  0.00    -0.346 OA
ATOM     36  H6  UNL     1      58.704  48.993  38.077  1.00  0.00     0.215 HD
ENDBRANCH   6  35
BRANCH   6  37
HETATM   37  O7  UNL     1      57.225  49.644  40.258  1.00  0.00    -0.346 OA
ATOM     38  H7  UNL     1      56.297  49.641  40.055  1.00  0.00     0.215 HD
ENDBRANCH   6  37
BRANCH  14  39
HETATM   39  O11 UNL     1      56.563  45.571  39.596  1.00  0.00    -0.365 OA
ATOM     40  H11 UNL     1      56.888  45.029  40.305  1.00  0.00     0.212 HD
ENDBRANCH  14  39
BRANCH  13  41
HETATM   41  O10 UNL     1      54.432  47.818  40.239  1.00  0.00    -0.388 OA
ATOM     42  H10 UNL     1      53.619  47.571  40.663  1.00  0.00     0.210 HD
ENDBRANCH  13  41
TORSDOF 14
ENDMDL
