MODEL 1
REMARK VINA RESULT: -7.759053268      0.000      0.000
REMARK  15 active torsions:
REMARK  status: ('A' for Active; 'I' for Inactive)
REMARK    1  A    between atoms: C2_5  and  N3_6 
REMARK    2  A    between atoms: N3_6  and  C3_8 
REMARK    3  A    between atoms: C3_8  and  C4_9 
REMARK    4  A    between atoms: C4_9  and  O1_10 
REMARK    5  A    between atoms: O1_10  and  S1_11 
REMARK    6  A    between atoms: S1_11  and  N4_12 
REMARK    7  A    between atoms: C5_19  and  N6_20 
REMARK       I    between atoms: N6_20  and  C6_22 
REMARK       I    between atoms: C6_22  and  N7_23 
REMARK       I    between atoms: C6_22  and  N8_27 
REMARK    8  A    between atoms: C7_31  and  N9_32 
REMARK    9  A    between atoms: N9_32  and  O4_33 
REMARK   10  A    between atoms: N9_32  and  N10_35 
REMARK   11  A    between atoms: C9_37  and  O5_38 
REMARK   12  A    between atoms: C10_40  and  O6_41 
REMARK   13  A    between atoms: C11_43  and  O7_44 
REMARK   14  A    between atoms: C12_46  and  C13_47 
REMARK   15  A    between atoms: C13_47  and  O8_48 
ROOT
HETATM    1  N1  UNL     1      61.494  43.174  34.866  1.00  0.00    -0.080 NA
HETATM    2  C1  UNL     1      61.563  42.916  36.251  1.00  0.00     0.160 A 
HETATM    3  N2  UNL     1      61.668  41.664  36.689  1.00  0.00    -0.177 N 
ATOM      4  H2  UNL     1      61.700  40.905  36.008  1.00  0.00     0.185 HD
HETATM    5  C2  UNL     1      61.734  41.363  38.013  1.00  0.00     0.681 A 
HETATM    6  N5  UNL     1      61.687  42.401  38.879  1.00  0.00    -0.175 N 
ATOM      7  H5  UNL     1      61.736  42.190  39.875  1.00  0.00     0.186 HD
HETATM    8  C5  UNL     1      61.583  43.679  38.521  1.00  0.00     0.148 A 
HETATM    9  C7  UNL     1      61.519  43.937  37.145  1.00  0.00     0.140 A 
ENDROOT
BRANCH   9  10
HETATM   10  N9  UNL     1      61.407  45.290  36.700  1.00  0.00    -0.084 NA
BRANCH  10  11
HETATM   11  O4  UNL     1      62.674  45.722  36.564  1.00  0.00    -0.293 OA
ATOM     12  H4  UNL     1      62.833  45.735  35.627  1.00  0.00     0.239 HD
ENDBRANCH  10  11
BRANCH  10  13
HETATM   13  N10 UNL     1      60.593  46.053  37.464  1.00  0.00    -0.210 NA
HETATM   14  C8  UNL     1      59.227  45.614  37.304  1.00  0.00     0.145 C 
HETATM   15  C9  UNL     1      58.215  46.626  37.714  1.00  0.00     0.164 C 
HETATM   16  C10 UNL     1      58.628  47.530  38.819  1.00  0.00     0.178 C 
HETATM   17  C11 UNL     1      60.085  47.913  38.796  1.00  0.00     0.170 C 
HETATM   18  C12 UNL     1      60.725  47.458  37.488  1.00  0.00     0.132 C 
BRANCH  15  19
HETATM   19  O5  UNL     1      57.698  47.337  36.605  1.00  0.00    -0.392 OA
ATOM     20  H5  UNL     1      58.296  48.012  36.306  1.00  0.00     0.210 HD
ENDBRANCH  15  19
BRANCH  16  21
HETATM   21  O6  UNL     1      57.844  48.691  38.760  1.00  0.00    -0.390 OA
ATOM     22  H6  UNL     1      57.625  48.953  39.647  1.00  0.00     0.210 HD
ENDBRANCH  16  21
BRANCH  17  23
HETATM   23  O7  UNL     1      60.167  49.271  38.987  1.00  0.00    -0.391 OA
ATOM     24  H7  UNL     1      61.088  49.509  39.005  1.00  0.00     0.210 HD
ENDBRANCH  17  23
BRANCH  18  25
HETATM   25  C13 UNL     1      62.085  48.015  37.285  1.00  0.00     0.188 C 
BRANCH  25  26
HETATM   26  O8  UNL     1      62.355  48.311  35.926  1.00  0.00    -0.399 OA
ATOM     27  H8  UNL     1      63.185  48.757  35.808  1.00  0.00     0.209 HD
ENDBRANCH  25  26
ENDBRANCH  18  25
ENDBRANCH  10  13
ENDBRANCH   9  10
BRANCH   8  28
HETATM   28  N6  UNL     1      61.540  44.639  39.376  1.00  0.00    -0.325 N 
HETATM   29  C6  UNL     1      60.793  44.452  40.597  1.00  0.00     0.481 C 
HETATM   30  N7  UNL     1      61.115  45.482  41.576  1.00  0.00    -0.033 N 
HETATM   31  N8  UNL     1      59.355  44.530  40.388  1.00  0.00    -0.033 N 
ATOM     32  H73 UNL     1      62.118  45.529  41.754  1.00  0.00     0.278 HD
ATOM     33  H72 UNL     1      60.979  46.418  41.194  1.00  0.00     0.278 HD
ATOM     34  H71 UNL     1      60.587  45.349  42.439  1.00  0.00     0.278 HD
ATOM     35  H83 UNL     1      59.098  45.405  39.930  1.00  0.00     0.278 HD
ATOM     36  H82 UNL     1      59.053  43.873  39.668  1.00  0.00     0.278 HD
ATOM     37  H81 UNL     1      58.828  44.398  41.251  1.00  0.00     0.278 HD
ATOM     38  H6  UNL     1      62.025  45.517  39.194  1.00  0.00     0.165 HD
ENDBRANCH   8  28
BRANCH   5  39
HETATM   39  N3  UNL     1      61.832  40.136  38.331  1.00  0.00    -0.224 N 
ATOM     40  H3  UNL     1      61.072  39.522  38.039  1.00  0.00     0.177 HD
BRANCH  39  41
HETATM   41  C3  UNL     1      62.905  39.534  39.058  1.00  0.00     0.165 C 
BRANCH  41  42
HETATM   42  C4  UNL     1      64.108  39.206  38.196  1.00  0.00     0.212 C 
BRANCH  42  43
HETATM   43  O1  UNL     1      65.266  39.121  38.972  1.00  0.00    -0.258 OA
BRANCH  43  44
HETATM   44  S1  UNL     1      65.948  37.609  38.909  1.00  0.00     0.355 S 
HETATM   45  O2  UNL     1      65.620  36.869  40.176  1.00  0.00    -0.176 OA
HETATM   46  O3  UNL     1      67.439  37.760  38.742  1.00  0.00    -0.176 OA
BRANCH  44  47
HETATM   47  N4  UNL     1      65.310  36.666  37.588  1.00  0.00    -0.306 N 
ATOM     48  H42 UNL     1      64.320  36.437  37.490  1.00  0.00     0.171 HD
ATOM     49  H41 UNL     1      66.043  36.379  36.940  1.00  0.00     0.171 HD
ENDBRANCH  44  47
ENDBRANCH  43  44
ENDBRANCH  42  43
ENDBRANCH  41  42
ENDBRANCH  39  41
ENDBRANCH   5  39
TORSDOF 15
ENDMDL
MODEL 2
REMARK VINA RESULT: -7.492226006      1.454      3.044
REMARK  15 active torsions:
REMARK  status: ('A' for Active; 'I' for Inactive)
REMARK    1  A    between atoms: C2_5  and  N3_6 
REMARK    2  A    between atoms: N3_6  and  C3_8 
REMARK    3  A    between atoms: C3_8  and  C4_9 
REMARK    4  A    between atoms: C4_9  and  O1_10 
REMARK    5  A    between atoms: O1_10  and  S1_11 
REMARK    6  A    between atoms: S1_11  and  N4_12 
REMARK    7  A    between atoms: C5_19  and  N6_20 
REMARK       I    between atoms: N6_20  and  C6_22 
REMARK       I    between atoms: C6_22  and  N7_23 
REMARK       I    between atoms: C6_22  and  N8_27 
REMARK    8  A    between atoms: C7_31  and  N9_32 
REMARK    9  A    between atoms: N9_32  and  O4_33 
REMARK   10  A    between atoms: N9_32  and  N10_35 
REMARK   11  A    between atoms: C9_37  and  O5_38 
REMARK   12  A    between atoms: C10_40  and  O6_41 
REMARK   13  A    between atoms: C11_43  and  O7_44 
REMARK   14  A    between atoms: C12_46  and  C13_47 
REMARK   15  A    between atoms: C13_47  and  O8_48 
ROOT
HETATM    1  N1  UNL     1      61.179  45.166  40.425  1.00  0.00    -0.080 NA
HETATM    2  C1  UNL     1      61.067  43.934  39.748  1.00  0.00     0.160 A 
HETATM    3  N2  UNL     1      61.026  42.797  40.439  1.00  0.00    -0.177 N 
ATOM      4  H2  UNL     1      61.075  42.838  41.457  1.00  0.00     0.185 HD
HETATM    5  C2  UNL     1      60.922  41.585  39.834  1.00  0.00     0.681 A 
HETATM    6  N5  UNL     1      60.862  41.580  38.482  1.00  0.00    -0.175 N 
ATOM      7  H5  UNL     1      60.784  40.677  38.015  1.00  0.00     0.186 HD
HETATM    8  C5  UNL     1      60.896  42.671  37.720  1.00  0.00     0.148 A 
HETATM    9  C7  UNL     1      61.003  43.897  38.392  1.00  0.00     0.140 A 
ENDROOT
BRANCH   9  10
HETATM   10  N9  UNL     1      61.045  45.102  37.627  1.00  0.00    -0.084 NA
BRANCH  10  11
HETATM   11  O4  UNL     1      62.349  45.430  37.558  1.00  0.00    -0.293 OA
ATOM     12  H4  UNL     1      62.689  44.942  36.818  1.00  0.00     0.239 HD
ENDBRANCH  10  11
BRANCH  10  13
HETATM   13  N10 UNL     1      60.209  46.065  38.074  1.00  0.00    -0.210 NA
HETATM   14  C8  UNL     1      58.850  45.581  38.038  1.00  0.00     0.145 C 
HETATM   15  C9  UNL     1      57.823  46.659  38.063  1.00  0.00     0.164 C 
HETATM   16  C10 UNL     1      58.202  47.884  38.813  1.00  0.00     0.178 C 
HETATM   17  C11 UNL     1      59.658  48.256  38.697  1.00  0.00     0.170 C 
HETATM   18  C12 UNL     1      60.334  47.400  37.630  1.00  0.00     0.132 C 
BRANCH  15  19
HETATM   19  O5  UNL     1      57.332  46.952  36.769  1.00  0.00    -0.392 OA
ATOM     20  H5  UNL     1      57.172  46.165  36.263  1.00  0.00     0.210 HD
ENDBRANCH  15  19
BRANCH  16  21
HETATM   21  O6  UNL     1      57.416  48.949  38.352  1.00  0.00    -0.390 OA
ATOM     22  H6  UNL     1      57.814  49.764  38.636  1.00  0.00     0.210 HD
ENDBRANCH  16  21
BRANCH  17  23
HETATM   23  O7  UNL     1      59.730  49.601  38.426  1.00  0.00    -0.391 OA
ATOM     24  H7  UNL     1      60.585  49.910  38.703  1.00  0.00     0.210 HD
ENDBRANCH  17  23
BRANCH  18  25
HETATM   25  C13 UNL     1      61.696  47.875  37.285  1.00  0.00     0.188 C 
BRANCH  25  26
HETATM   26  O8  UNL     1      61.982  47.750  35.904  1.00  0.00    -0.399 OA
ATOM     27  H8  UNL     1      62.435  46.941  35.697  1.00  0.00     0.209 HD
ENDBRANCH  25  26
ENDBRANCH  18  25
ENDBRANCH  10  13
ENDBRANCH   9  10
BRANCH   8  28
HETATM   28  N6  UNL     1      60.839  42.624  36.437  1.00  0.00    -0.325 N 
HETATM   29  C6  UNL     1      61.975  42.116  35.705  1.00  0.00     0.481 C 
HETATM   30  N7  UNL     1      61.626  41.827  34.320  1.00  0.00    -0.033 N 
HETATM   31  N8  UNL     1      63.075  43.067  35.653  1.00  0.00    -0.033 N 
ATOM     32  H73 UNL     1      60.827  41.195  34.259  1.00  0.00     0.278 HD
ATOM     33  H72 UNL     1      61.218  42.641  33.860  1.00  0.00     0.278 HD
ATOM     34  H71 UNL     1      62.429  41.467  33.804  1.00  0.00     0.278 HD
ATOM     35  H83 UNL     1      62.767  43.964  35.277  1.00  0.00     0.278 HD
ATOM     36  H82 UNL     1      63.345  43.366  36.591  1.00  0.00     0.278 HD
ATOM     37  H81 UNL     1      63.878  42.707  35.137  1.00  0.00     0.278 HD
ATOM     38  H6  UNL     1      60.004  42.942  35.944  1.00  0.00     0.165 HD
ENDBRANCH   8  28
BRANCH   5  39
HETATM   39  N3  UNL     1      60.892  40.557  40.581  1.00  0.00    -0.224 N 
ATOM     40  H3  UNL     1      60.026  40.018  40.588  1.00  0.00     0.177 HD
BRANCH  39  41
HETATM   41  C3  UNL     1      61.953  40.085  41.413  1.00  0.00     0.165 C 
BRANCH  41  42
HETATM   42  C4  UNL     1      62.921  39.168  40.693  1.00  0.00     0.212 C 
BRANCH  42  43
HETATM   43  O1  UNL     1      62.589  39.060  39.341  1.00  0.00    -0.258 OA
BRANCH  43  44
HETATM   44  S1  UNL     1      63.913  39.248  38.356  1.00  0.00     0.355 S 
HETATM   45  O2  UNL     1      65.156  39.257  39.200  1.00  0.00    -0.176 OA
HETATM   46  O3  UNL     1      63.766  40.541  37.595  1.00  0.00    -0.176 OA
BRANCH  44  47
HETATM   47  N4  UNL     1      64.071  37.927  37.228  1.00  0.00    -0.306 N 
ATOM     48  H42 UNL     1      64.044  36.946  37.507  1.00  0.00     0.171 HD
ATOM     49  H41 UNL     1      64.193  38.259  36.271  1.00  0.00     0.171 HD
ENDBRANCH  44  47
ENDBRANCH  43  44
ENDBRANCH  42  43
ENDBRANCH  41  42
ENDBRANCH  39  41
ENDBRANCH   5  39
TORSDOF 15
ENDMDL
MODEL 3
REMARK VINA RESULT: -7.412304751      2.980      5.108
REMARK  15 active torsions:
REMARK  status: ('A' for Active; 'I' for Inactive)
REMARK    1  A    between atoms: C2_5  and  N3_6 
REMARK    2  A    between atoms: N3_6  and  C3_8 
REMARK    3  A    between atoms: C3_8  and  C4_9 
REMARK    4  A    between atoms: C4_9  and  O1_10 
REMARK    5  A    between atoms: O1_10  and  S1_11 
REMARK    6  A    between atoms: S1_11  and  N4_12 
REMARK    7  A    between atoms: C5_19  and  N6_20 
REMARK       I    between atoms: N6_20  and  C6_22 
REMARK       I    between atoms: C6_22  and  N7_23 
REMARK       I    between atoms: C6_22  and  N8_27 
REMARK    8  A    between atoms: C7_31  and  N9_32 
REMARK    9  A    between atoms: N9_32  and  O4_33 
REMARK   10  A    between atoms: N9_32  and  N10_35 
REMARK   11  A    between atoms: C9_37  and  O5_38 
REMARK   12  A    between atoms: C10_40  and  O6_41 
REMARK   13  A    between atoms: C11_43  and  O7_44 
REMARK   14  A    between atoms: C12_46  and  C13_47 
REMARK   15  A    between atoms: C13_47  and  O8_48 
ROOT
HETATM    1  N1  UNL     1      58.575  42.174  40.259  1.00  0.00    -0.080 NA
HETATM    2  C1  UNL     1      59.771  41.455  40.461  1.00  0.00     0.160 A 
HETATM    3  N2  UNL     1      60.011  40.881  41.638  1.00  0.00    -0.177 N 
ATOM      4  H2  UNL     1      59.316  40.970  42.380  1.00  0.00     0.185 HD
HETATM    5  C2  UNL     1      61.150  40.181  41.884  1.00  0.00     0.681 A 
HETATM    6  N5  UNL     1      62.043  40.091  40.872  1.00  0.00    -0.175 N 
ATOM      7  H5  UNL     1      62.902  39.569  41.042  1.00  0.00     0.186 HD
HETATM    8  C5  UNL     1      61.878  40.636  39.668  1.00  0.00     0.148 A 
HETATM    9  C7  UNL     1      60.687  41.347  39.464  1.00  0.00     0.140 A 
ENDROOT
BRANCH   9  10
HETATM   10  N9  UNL     1      60.454  41.954  38.193  1.00  0.00    -0.084 NA
BRANCH  10  11
HETATM   11  O4  UNL     1      60.366  40.930  37.324  1.00  0.00    -0.293 OA
ATOM     12  H4  UNL     1      61.264  40.680  37.142  1.00  0.00     0.239 HD
ENDBRANCH  10  11
BRANCH  10  13
HETATM   13  N10 UNL     1      61.336  42.929  37.880  1.00  0.00    -0.210 NA
HETATM   14  C8  UNL     1      60.997  44.137  38.594  1.00  0.00     0.145 C 
HETATM   15  C9  UNL     1      61.587  45.372  38.008  1.00  0.00     0.164 C 
HETATM   16  C10 UNL     1      62.903  45.195  37.342  1.00  0.00     0.178 C 
HETATM   17  C11 UNL     1      63.058  43.887  36.610  1.00  0.00     0.170 C 
HETATM   18  C12 UNL     1      61.716  43.164  36.540  1.00  0.00     0.132 C 
BRANCH  15  19
HETATM   19  O5  UNL     1      60.663  46.066  37.194  1.00  0.00    -0.392 OA
ATOM     20  H5  UNL     1      59.902  46.353  37.685  1.00  0.00     0.210 HD
ENDBRANCH  15  19
BRANCH  16  21
HETATM   21  O6  UNL     1      63.091  46.252  36.440  1.00  0.00    -0.390 OA
ATOM     22  H6  UNL     1      62.496  46.134  35.708  1.00  0.00     0.210 HD
ENDBRANCH  16  21
BRANCH  17  23
HETATM   23  O7  UNL     1      63.584  44.156  35.370  1.00  0.00    -0.391 OA
ATOM     24  H7  UNL     1      63.460  43.386  34.826  1.00  0.00     0.210 HD
ENDBRANCH  17  23
BRANCH  18  25
HETATM   25  C13 UNL     1      61.734  41.997  35.626  1.00  0.00     0.188 C 
BRANCH  25  26
HETATM   26  O8  UNL     1      62.958  41.286  35.676  1.00  0.00    -0.399 OA
ATOM     27  H8  UNL     1      63.014  40.609  35.013  1.00  0.00     0.209 HD
ENDBRANCH  25  26
ENDBRANCH  18  25
ENDBRANCH  10  13
ENDBRANCH   9  10
BRANCH   8  28
HETATM   28  N6  UNL     1      62.752  40.530  38.731  1.00  0.00    -0.325 N 
HETATM   29  C6  UNL     1      63.368  39.246  38.494  1.00  0.00     0.481 C 
HETATM   30  N7  UNL     1      64.067  39.222  37.217  1.00  0.00    -0.033 N 
HETATM   31  N8  UNL     1      64.361  38.909  39.503  1.00  0.00    -0.033 N 
ATOM     32  H73 UNL     1      63.452  39.491  36.448  1.00  0.00     0.278 HD
ATOM     33  H72 UNL     1      64.745  39.981  37.147  1.00  0.00     0.278 HD
ATOM     34  H71 UNL     1      64.502  38.314  37.049  1.00  0.00     0.278 HD
ATOM     35  H83 UNL     1      65.064  39.644  39.585  1.00  0.00     0.278 HD
ATOM     36  H82 UNL     1      63.962  38.958  40.441  1.00  0.00     0.278 HD
ATOM     37  H81 UNL     1      64.795  38.002  39.336  1.00  0.00     0.278 HD
ATOM     38  H6  UNL     1      63.006  41.339  38.165  1.00  0.00     0.165 HD
ENDBRANCH   8  28
BRANCH   5  39
HETATM   39  N3  UNL     1      61.286  39.671  43.040  1.00  0.00    -0.224 N 
ATOM     40  H3  UNL     1      60.433  39.497  43.570  1.00  0.00     0.177 HD
BRANCH  39  41
HETATM   41  C3  UNL     1      62.520  39.318  43.669  1.00  0.00     0.165 C 
BRANCH  41  42
HETATM   42  C4  UNL     1      62.908  37.868  43.460  1.00  0.00     0.212 C 
BRANCH  42  43
HETATM   43  O1  UNL     1      63.624  37.711  42.272  1.00  0.00    -0.258 OA
BRANCH  43  44
HETATM   44  S1  UNL     1      64.999  36.806  42.486  1.00  0.00     0.355 S 
HETATM   45  O2  UNL     1      65.752  36.740  41.187  1.00  0.00    -0.176 OA
HETATM   46  O3  UNL     1      64.601  35.428  42.952  1.00  0.00    -0.176 OA
BRANCH  44  47
HETATM   47  N4  UNL     1      66.070  37.527  43.660  1.00  0.00    -0.306 N 
ATOM     48  H42 UNL     1      66.729  38.272  43.433  1.00  0.00     0.171 HD
ATOM     49  H41 UNL     1      65.952  37.112  44.584  1.00  0.00     0.171 HD
ENDBRANCH  44  47
ENDBRANCH  43  44
ENDBRANCH  42  43
ENDBRANCH  41  42
ENDBRANCH  39  41
ENDBRANCH   5  39
TORSDOF 15
ENDMDL
MODEL 4
REMARK VINA RESULT: -7.301145278      1.522      2.528
REMARK  15 active torsions:
REMARK  status: ('A' for Active; 'I' for Inactive)
REMARK    1  A    between atoms: C2_5  and  N3_6 
REMARK    2  A    between atoms: N3_6  and  C3_8 
REMARK    3  A    between atoms: C3_8  and  C4_9 
REMARK    4  A    between atoms: C4_9  and  O1_10 
REMARK    5  A    between atoms: O1_10  and  S1_11 
REMARK    6  A    between atoms: S1_11  and  N4_12 
REMARK    7  A    between atoms: C5_19  and  N6_20 
REMARK       I    between atoms: N6_20  and  C6_22 
REMARK       I    between atoms: C6_22  and  N7_23 
REMARK       I    between atoms: C6_22  and  N8_27 
REMARK    8  A    between atoms: C7_31  and  N9_32 
REMARK    9  A    between atoms: N9_32  and  O4_33 
REMARK   10  A    between atoms: N9_32  and  N10_35 
REMARK   11  A    between atoms: C9_37  and  O5_38 
REMARK   12  A    between atoms: C10_40  and  O6_41 
REMARK   13  A    between atoms: C11_43  and  O7_44 
REMARK   14  A    between atoms: C12_46  and  C13_47 
REMARK   15  A    between atoms: C13_47  and  O8_48 
ROOT
HETATM    1  N1  UNL     1      61.178  42.735  34.078  1.00  0.00    -0.080 NA
HETATM    2  C1  UNL     1      61.504  42.525  35.433  1.00  0.00     0.160 A 
HETATM    3  N2  UNL     1      62.443  41.641  35.762  1.00  0.00    -0.177 N 
ATOM      4  H2  UNL     1      62.918  41.128  35.019  1.00  0.00     0.185 HD
HETATM    5  C2  UNL     1      62.791  41.399  37.053  1.00  0.00     0.681 A 
HETATM    6  N5  UNL     1      62.134  42.102  38.005  1.00  0.00    -0.175 N 
ATOM      7  H5  UNL     1      62.385  41.931  38.978  1.00  0.00     0.186 HD
HETATM    8  C5  UNL     1      61.184  43.002  37.759  1.00  0.00     0.148 A 
HETATM    9  C7  UNL     1      60.862  43.215  36.411  1.00  0.00     0.140 A 
ENDROOT
BRANCH   9  10
HETATM   10  N9  UNL     1      59.850  44.168  36.086  1.00  0.00    -0.084 NA
BRANCH  10  11
HETATM   11  O4  UNL     1      59.314  43.733  34.931  1.00  0.00    -0.293 OA
ATOM     12  H4  UNL     1      58.641  43.113  35.187  1.00  0.00     0.239 HD
ENDBRANCH  10  11
BRANCH  10  13
HETATM   13  N10 UNL     1      60.278  45.451  36.100  1.00  0.00    -0.210 NA
HETATM   14  C8  UNL     1      61.715  45.483  35.971  1.00  0.00     0.145 C 
HETATM   15  C9  UNL     1      62.334  46.760  36.422  1.00  0.00     0.164 C 
HETATM   16  C10 UNL     1      61.500  47.974  36.235  1.00  0.00     0.178 C 
HETATM   17  C11 UNL     1      60.025  47.754  36.453  1.00  0.00     0.170 C 
HETATM   18  C12 UNL     1      59.786  46.371  37.052  1.00  0.00     0.132 C 
BRANCH  15  19
HETATM   19  O5  UNL     1      62.852  46.663  37.734  1.00  0.00    -0.392 OA
ATOM     20  H5  UNL     1      62.405  47.245  38.337  1.00  0.00     0.210 HD
ENDBRANCH  15  19
BRANCH  16  21
HETATM   21  O6  UNL     1      61.953  48.966  37.116  1.00  0.00    -0.390 OA
ATOM     22  H6  UNL     1      61.524  49.785  36.896  1.00  0.00     0.210 HD
ENDBRANCH  16  21
BRANCH  17  23
HETATM   23  O7  UNL     1      59.560  48.769  37.253  1.00  0.00    -0.391 OA
ATOM     24  H7  UNL     1      60.209  48.931  37.928  1.00  0.00     0.210 HD
ENDBRANCH  17  23
BRANCH  18  25
HETATM   25  C13 UNL     1      58.393  46.178  37.524  1.00  0.00     0.188 C 
BRANCH  25  26
HETATM   26  O8  UNL     1      58.325  45.438  38.730  1.00  0.00    -0.399 OA
ATOM     27  H8  UNL     1      57.432  45.254  38.995  1.00  0.00     0.209 HD
ENDBRANCH  25  26
ENDBRANCH  18  25
ENDBRANCH  10  13
ENDBRANCH   9  10
BRANCH   8  28
HETATM   28  N6  UNL     1      60.581  43.649  38.692  1.00  0.00    -0.325 N 
HETATM   29  C6  UNL     1      61.337  44.076  39.845  1.00  0.00     0.481 C 
HETATM   30  N7  UNL     1      60.598  45.058  40.628  1.00  0.00    -0.033 N 
HETATM   31  N8  UNL     1      61.635  42.979  40.754  1.00  0.00    -0.033 N 
ATOM     32  H73 UNL     1      60.307  45.851  40.056  1.00  0.00     0.278 HD
ATOM     33  H72 UNL     1      59.676  44.709  40.892  1.00  0.00     0.278 HD
ATOM     34  H71 UNL     1      61.132  45.360  41.443  1.00  0.00     0.278 HD
ATOM     35  H83 UNL     1      60.782  42.492  41.033  1.00  0.00     0.278 HD
ATOM     36  H82 UNL     1      62.107  42.217  40.267  1.00  0.00     0.278 HD
ATOM     37  H81 UNL     1      62.169  43.281  41.569  1.00  0.00     0.278 HD
ATOM     38  H6  UNL     1      59.585  43.856  38.619  1.00  0.00     0.165 HD
ENDBRANCH   8  28
BRANCH   5  39
HETATM   39  N3  UNL     1      63.700  40.536  37.264  1.00  0.00    -0.224 N 
ATOM     40  H3  UNL     1      64.632  40.754  36.913  1.00  0.00     0.177 HD
BRANCH  39  41
HETATM   41  C3  UNL     1      63.541  39.290  37.945  1.00  0.00     0.165 C 
BRANCH  41  42
HETATM   42  C4  UNL     1      64.348  39.194  39.223  1.00  0.00     0.212 C 
BRANCH  42  43
HETATM   43  O1  UNL     1      65.708  39.048  38.942  1.00  0.00    -0.258 OA
BRANCH  43  44
HETATM   44  S1  UNL     1      66.183  37.457  38.972  1.00  0.00     0.355 S 
HETATM   45  O2  UNL     1      65.656  36.810  40.222  1.00  0.00    -0.176 OA
HETATM   46  O3  UNL     1      67.689  37.403  38.928  1.00  0.00    -0.176 OA
BRANCH  44  47
HETATM   47  N4  UNL     1      65.533  36.563  37.622  1.00  0.00    -0.306 N 
ATOM     48  H42 UNL     1      65.675  35.562  37.493  1.00  0.00     0.171 HD
ATOM     49  H41 UNL     1      65.002  37.164  36.991  1.00  0.00     0.171 HD
ENDBRANCH  44  47
ENDBRANCH  43  44
ENDBRANCH  42  43
ENDBRANCH  41  42
ENDBRANCH  39  41
ENDBRANCH   5  39
TORSDOF 15
ENDMDL
MODEL 5
REMARK VINA RESULT: -7.256192321      1.768      2.313
REMARK  15 active torsions:
REMARK  status: ('A' for Active; 'I' for Inactive)
REMARK    1  A    between atoms: C2_5  and  N3_6 
REMARK    2  A    between atoms: N3_6  and  C3_8 
REMARK    3  A    between atoms: C3_8  and  C4_9 
REMARK    4  A    between atoms: C4_9  and  O1_10 
REMARK    5  A    between atoms: O1_10  and  S1_11 
REMARK    6  A    between atoms: S1_11  and  N4_12 
REMARK    7  A    between atoms: C5_19  and  N6_20 
REMARK       I    between atoms: N6_20  and  C6_22 
REMARK       I    between atoms: C6_22  and  N7_23 
REMARK       I    between atoms: C6_22  and  N8_27 
REMARK    8  A    between atoms: C7_31  and  N9_32 
REMARK    9  A    between atoms: N9_32  and  O4_33 
REMARK   10  A    between atoms: N9_32  and  N10_35 
REMARK   11  A    between atoms: C9_37  and  O5_38 
REMARK   12  A    between atoms: C10_40  and  O6_41 
REMARK   13  A    between atoms: C11_43  and  O7_44 
REMARK   14  A    between atoms: C12_46  and  C13_47 
REMARK   15  A    between atoms: C13_47  and  O8_48 
ROOT
HETATM    1  N1  UNL     1      61.835  43.582  34.540  1.00  0.00    -0.080 NA
HETATM    2  C1  UNL     1      61.939  43.174  35.886  1.00  0.00     0.160 A 
HETATM    3  N2  UNL     1      62.234  41.909  36.176  1.00  0.00    -0.177 N 
ATOM      4  H2  UNL     1      62.384  41.250  35.411  1.00  0.00     0.185 HD
HETATM    5  C2  UNL     1      62.342  41.465  37.456  1.00  0.00     0.681 A 
HETATM    6  N5  UNL     1      62.134  42.373  38.437  1.00  0.00    -0.175 N 
ATOM      7  H5  UNL     1      62.211  42.055  39.402  1.00  0.00     0.186 HD
HETATM    8  C5  UNL     1      61.835  43.654  38.230  1.00  0.00     0.148 A 
HETATM    9  C7  UNL     1      61.736  44.062  36.892  1.00  0.00     0.140 A 
ENDROOT
BRANCH   9  10
HETATM   10  N9  UNL     1      61.418  45.425  36.608  1.00  0.00    -0.084 NA
BRANCH  10  11
HETATM   11  O4  UNL     1      62.605  46.050  36.504  1.00  0.00    -0.293 OA
ATOM     12  H4  UNL     1      63.254  45.382  36.691  1.00  0.00     0.239 HD
ENDBRANCH  10  11
BRANCH  10  13
HETATM   13  N10 UNL     1      60.527  45.971  37.466  1.00  0.00    -0.210 NA
HETATM   14  C8  UNL     1      59.207  45.459  37.185  1.00  0.00     0.145 C 
HETATM   15  C9  UNL     1      58.104  46.296  37.732  1.00  0.00     0.164 C 
HETATM   16  C10 UNL     1      58.416  47.019  38.991  1.00  0.00     0.178 C 
HETATM   17  C11 UNL     1      59.835  47.518  39.085  1.00  0.00     0.170 C 
HETATM   18  C12 UNL     1      60.537  47.356  37.740  1.00  0.00     0.132 C 
BRANCH  15  19
HETATM   19  O5  UNL     1      57.549  47.148  36.748  1.00  0.00    -0.392 OA
ATOM     20  H5  UNL     1      57.740  46.846  35.868  1.00  0.00     0.210 HD
ENDBRANCH  15  19
BRANCH  16  21
HETATM   21  O6  UNL     1      57.537  48.105  39.111  1.00  0.00    -0.390 OA
ATOM     22  H6  UNL     1      57.693  48.701  38.387  1.00  0.00     0.210 HD
ENDBRANCH  16  21
BRANCH  17  23
HETATM   23  O7  UNL     1      59.797  48.822  39.514  1.00  0.00    -0.391 OA
ATOM     24  H7  UNL     1      58.908  49.141  39.403  1.00  0.00     0.210 HD
ENDBRANCH  17  23
BRANCH  18  25
HETATM   25  C13 UNL     1      61.847  48.049  37.685  1.00  0.00     0.188 C 
BRANCH  25  26
HETATM   26  O8  UNL     1      62.051  48.730  36.460  1.00  0.00    -0.399 OA
ATOM     27  H8  UNL     1      62.465  49.577  36.577  1.00  0.00     0.209 HD
ENDBRANCH  25  26
ENDBRANCH  18  25
ENDBRANCH  10  13
ENDBRANCH   9  10
BRANCH   8  28
HETATM   28  N6  UNL     1      61.642  44.487  39.190  1.00  0.00    -0.325 N 
HETATM   29  C6  UNL     1      60.994  44.025  40.395  1.00  0.00     0.481 C 
HETATM   30  N7  UNL     1      61.150  44.983  41.481  1.00  0.00    -0.033 N 
HETATM   31  N8  UNL     1      59.560  43.843  40.221  1.00  0.00    -0.033 N 
ATOM     32  H73 UNL     1      62.132  45.206  41.646  1.00  0.00     0.278 HD
ATOM     33  H72 UNL     1      60.822  45.911  41.211  1.00  0.00     0.278 HD
ATOM     34  H71 UNL     1      60.692  44.656  42.332  1.00  0.00     0.278 HD
ATOM     35  H83 UNL     1      59.122  44.696  39.871  1.00  0.00     0.278 HD
ATOM     36  H82 UNL     1      59.361  43.223  39.435  1.00  0.00     0.278 HD
ATOM     37  H81 UNL     1      59.102  43.516  41.072  1.00  0.00     0.278 HD
ATOM     38  H6  UNL     1      61.942  45.458  39.103  1.00  0.00     0.165 HD
ENDBRANCH   8  28
BRANCH   5  39
HETATM   39  N3  UNL     1      62.627  40.239  37.629  1.00  0.00    -0.224 N 
ATOM     40  H3  UNL     1      62.004  39.555  37.201  1.00  0.00     0.177 HD
BRANCH  39  41
HETATM   41  C3  UNL     1      63.738  39.725  38.368  1.00  0.00     0.165 C 
BRANCH  41  42
HETATM   42  C4  UNL     1      63.332  38.835  39.525  1.00  0.00     0.212 C 
BRANCH  42  43
HETATM   43  O1  UNL     1      63.590  39.460  40.746  1.00  0.00    -0.258 OA
BRANCH  43  44
HETATM   44  S1  UNL     1      62.199  39.981  41.487  1.00  0.00     0.355 S 
HETATM   45  O2  UNL     1      61.776  38.965  42.510  1.00  0.00    -0.176 OA
HETATM   46  O3  UNL     1      61.134  40.165  40.435  1.00  0.00    -0.176 OA
BRANCH  44  47
HETATM   47  N4  UNL     1      62.442  41.487  42.333  1.00  0.00    -0.306 N 
ATOM     48  H42 UNL     1      62.984  41.564  43.194  1.00  0.00     0.171 HD
ATOM     49  H41 UNL     1      61.980  42.265  41.862  1.00  0.00     0.171 HD
ENDBRANCH  44  47
ENDBRANCH  43  44
ENDBRANCH  42  43
ENDBRANCH  41  42
ENDBRANCH  39  41
ENDBRANCH   5  39
TORSDOF 15
ENDMDL
