MODEL 1
REMARK VINA RESULT: -6.635966733      0.000      0.000
REMARK  9 active torsions:
REMARK  status: ('A' for Active; 'I' for Inactive)
REMARK    1  A    between atoms: O1_2  and  C2_3 
REMARK    2  A    between atoms: C2_3  and  O2_4 
REMARK    3  A    between atoms: C2_3  and  C3_6 
REMARK    4  A    between atoms: C5_8  and  O3_9 
REMARK    5  A    between atoms: C7_12  and  N1_13 
REMARK       I    between atoms: N1_13  and  C8_15 
REMARK    6  A    between atoms: C8_15  and  C9_17 
REMARK       I    between atoms: C9_17  and  N2_19 
REMARK    7  A    between atoms: N2_19  and  N3_21 
REMARK    8  A    between atoms: C10_24  and  C11_25 
REMARK    9  A    between atoms: C11_25  and  O7_27 
ROOT
HETATM    1  C3  UNL     1      34.172  -8.995  11.099  1.00  0.00     0.043 A 
HETATM    2  C4  UNL     1      35.097  -9.653  10.220  1.00  0.00     0.054 A 
HETATM    3  C5  UNL     1      36.026  -8.931   9.545  1.00  0.00     0.068 A 
HETATM    4  C6  UNL     1      36.108  -7.566   9.679  1.00  0.00     0.067 A 
HETATM    5  C7  UNL     1      35.228  -6.922  10.517  1.00  0.00     0.055 A 
HETATM    6  C10 UNL     1      34.257  -7.641  11.236  1.00  0.00     0.081 A 
ENDROOT
BRANCH   5   7
HETATM    7  N1  UNL     1      35.202  -5.511  10.504  1.00  0.00    -0.318 N 
HETATM    8  C8  UNL     1      35.986  -4.679  11.334  1.00  0.00     0.315 C 
HETATM    9  O4  UNL     1      36.800  -5.111  12.198  1.00  0.00    -0.262 OA
ATOM     10  H1  UNL     1      34.569  -5.057   9.845  1.00  0.00     0.169 HD
BRANCH   8  11
HETATM   11  C9  UNL     1      35.847  -3.210  11.183  1.00  0.00     0.327 C 
HETATM   12  O5  UNL     1      34.706  -2.755  10.977  1.00  0.00    -0.261 OA
HETATM   13  N2  UNL     1      36.943  -2.334  11.264  1.00  0.00    -0.268 N 
ATOM     14  H2  UNL     1      37.868  -2.731  11.435  1.00  0.00     0.190 HD
BRANCH  13  15
HETATM   15  N3  UNL     1      36.833  -0.964  11.125  1.00  0.00    -0.342 N 
ATOM     16  H32 UNL     1      35.921  -0.594  10.858  1.00  0.00     0.176 HD
ATOM     17  H31 UNL     1      37.610  -0.321  11.276  1.00  0.00     0.176 HD
ENDBRANCH  13  15
ENDBRANCH   8  11
ENDBRANCH   5   7
BRANCH   6  18
HETATM   18  C11 UNL     1      33.519  -6.920  12.232  1.00  0.00     0.296 C 
HETATM   19  O6  UNL     1      32.654  -6.048  12.039  1.00  0.00    -0.259 OA
BRANCH  18  20
HETATM   20  O7  UNL     1      33.702  -7.147  13.614  1.00  0.00    -0.322 OA
HETATM   21  C12 UNL     1      34.961  -7.295  14.219  1.00  0.00     0.213 C 
ENDBRANCH  18  20
ENDBRANCH   6  18
BRANCH   3  22
HETATM   22  O3  UNL     1      36.918  -9.609   8.695  1.00  0.00    -0.361 OA
ATOM     23  H3  UNL     1      37.104  -9.237   7.841  1.00  0.00     0.217 HD
ENDBRANCH   3  22
BRANCH   1  24
HETATM   24  C2  UNL     1      33.183  -9.829  11.709  1.00  0.00     0.189 C 
BRANCH  24  25
HETATM   25  O1  UNL     1      33.063 -10.399  12.937  1.00  0.00    -0.335 OA
HETATM   26  C1  UNL     1      34.195 -10.910  13.669  1.00  0.00     0.212 C 
ENDBRANCH  24  25
BRANCH  24  27
HETATM   27  O2  UNL     1      32.163 -10.111  10.936  1.00  0.00    -0.340 OA
ATOM     28  H2  UNL     1      32.401 -10.098  10.016  1.00  0.00     0.220 HD
ENDBRANCH  24  27
ENDBRANCH   1  24
TORSDOF 9
ENDMDL
MODEL 2
REMARK VINA RESULT: -5.990079300      4.491      6.468
REMARK  9 active torsions:
REMARK  status: ('A' for Active; 'I' for Inactive)
REMARK    1  A    between atoms: O1_2  and  C2_3 
REMARK    2  A    between atoms: C2_3  and  O2_4 
REMARK    3  A    between atoms: C2_3  and  C3_6 
REMARK    4  A    between atoms: C5_8  and  O3_9 
REMARK    5  A    between atoms: C7_12  and  N1_13 
REMARK       I    between atoms: N1_13  and  C8_15 
REMARK    6  A    between atoms: C8_15  and  C9_17 
REMARK       I    between atoms: C9_17  and  N2_19 
REMARK    7  A    between atoms: N2_19  and  N3_21 
REMARK    8  A    between atoms: C10_24  and  C11_25 
REMARK    9  A    between atoms: C11_25  and  O7_27 
ROOT
HETATM    1  C3  UNL     1      37.110  -4.071  13.185  1.00  0.00     0.043 A 
HETATM    2  C4  UNL     1      36.510  -4.456  11.939  1.00  0.00     0.054 A 
HETATM    3  C5  UNL     1      35.990  -3.513  11.113  1.00  0.00     0.068 A 
HETATM    4  C6  UNL     1      36.020  -2.179  11.442  1.00  0.00     0.067 A 
HETATM    5  C7  UNL     1      36.591  -1.795  12.632  1.00  0.00     0.055 A 
HETATM    6  C10 UNL     1      37.144  -2.746  13.508  1.00  0.00     0.081 A 
ENDROOT
BRANCH   5   7
HETATM    7  N1  UNL     1      36.450  -0.451  13.040  1.00  0.00    -0.318 N 
HETATM    8  C8  UNL     1      37.354   0.589  12.727  1.00  0.00     0.315 C 
HETATM    9  O4  UNL     1      38.407   0.427  12.047  1.00  0.00    -0.262 OA
ATOM     10  H1  UNL     1      35.634  -0.212  13.603  1.00  0.00     0.169 HD
BRANCH   8  11
HETATM   11  C9  UNL     1      37.049   1.952  13.225  1.00  0.00     0.327 C 
HETATM   12  O5  UNL     1      35.920   2.153  13.710  1.00  0.00    -0.261 OA
HETATM   13  N2  UNL     1      37.981   3.004  13.166  1.00  0.00    -0.268 N 
ATOM     14  H2  UNL     1      38.899   2.815  12.765  1.00  0.00     0.190 HD
BRANCH  13  15
HETATM   15  N3  UNL     1      37.715   4.280  13.624  1.00  0.00    -0.342 N 
ATOM     16  H32 UNL     1      37.907   5.054  12.988  1.00  0.00     0.176 HD
ATOM     17  H31 UNL     1      37.341   4.476  14.553  1.00  0.00     0.176 HD
ENDBRANCH  13  15
ENDBRANCH   8  11
ENDBRANCH   5   7
BRANCH   6  18
HETATM   18  C11 UNL     1      37.893  -2.245  14.624  1.00  0.00     0.296 C 
HETATM   19  O6  UNL     1      37.511  -2.156  15.804  1.00  0.00    -0.259 OA
BRANCH  18  20
HETATM   20  O7  UNL     1      39.221  -1.783  14.491  1.00  0.00    -0.322 OA
HETATM   21  C12 UNL     1      39.765  -0.744  15.264  1.00  0.00     0.213 C 
ENDBRANCH  18  20
ENDBRANCH   6  18
BRANCH   3  22
HETATM   22  O3  UNL     1      35.413  -3.926   9.899  1.00  0.00    -0.361 OA
ATOM     23  H3  UNL     1      34.467  -3.894   9.811  1.00  0.00     0.217 HD
ENDBRANCH   3  22
BRANCH   1  24
HETATM   24  C2  UNL     1      37.564  -5.139  14.021  1.00  0.00     0.189 C 
BRANCH  24  25
HETATM   25  O1  UNL     1      38.781  -5.693  14.258  1.00  0.00    -0.335 OA
HETATM   26  C1  UNL     1      39.993  -5.191  13.657  1.00  0.00     0.212 C 
ENDBRANCH  24  25
BRANCH  24  27
HETATM   27  O2  UNL     1      36.618  -5.716  14.720  1.00  0.00    -0.340 OA
ATOM     28  H2  UNL     1      35.762  -5.602  14.322  1.00  0.00     0.220 HD
ENDBRANCH  24  27
ENDBRANCH   1  24
TORSDOF 9
ENDMDL
MODEL 3
REMARK VINA RESULT: -5.905388518      2.972      6.504
REMARK  9 active torsions:
REMARK  status: ('A' for Active; 'I' for Inactive)
REMARK    1  A    between atoms: O1_2  and  C2_3 
REMARK    2  A    between atoms: C2_3  and  O2_4 
REMARK    3  A    between atoms: C2_3  and  C3_6 
REMARK    4  A    between atoms: C5_8  and  O3_9 
REMARK    5  A    between atoms: C7_12  and  N1_13 
REMARK       I    between atoms: N1_13  and  C8_15 
REMARK    6  A    between atoms: C8_15  and  C9_17 
REMARK       I    between atoms: C9_17  and  N2_19 
REMARK    7  A    between atoms: N2_19  and  N3_21 
REMARK    8  A    between atoms: C10_24  and  C11_25 
REMARK    9  A    between atoms: C11_25  and  O7_27 
ROOT
HETATM    1  C3  UNL     1      37.075  -3.306  13.468  1.00  0.00     0.043 A 
HETATM    2  C4  UNL     1      36.841  -2.222  12.558  1.00  0.00     0.054 A 
HETATM    3  C5  UNL     1      36.204  -2.445  11.381  1.00  0.00     0.068 A 
HETATM    4  C6  UNL     1      35.772  -3.701  11.029  1.00  0.00     0.067 A 
HETATM    5  C7  UNL     1      35.989  -4.750  11.890  1.00  0.00     0.055 A 
HETATM    6  C10 UNL     1      36.640  -4.551  13.121  1.00  0.00     0.081 A 
ENDROOT
BRANCH   5   7
HETATM    7  N1  UNL     1      35.708  -6.058  11.438  1.00  0.00    -0.318 N 
HETATM    8  C8  UNL     1      34.445  -6.686  11.515  1.00  0.00     0.315 C 
HETATM    9  O4  UNL     1      33.417  -6.145  12.013  1.00  0.00    -0.262 OA
ATOM     10  H1  UNL     1      36.474  -6.589  11.025  1.00  0.00     0.169 HD
BRANCH   8  11
HETATM   11  C9  UNL     1      34.317  -8.064  10.980  1.00  0.00     0.327 C 
HETATM   12  O5  UNL     1      35.199  -8.466  10.199  1.00  0.00    -0.261 OA
HETATM   13  N2  UNL     1      33.249  -8.911  11.323  1.00  0.00    -0.268 N 
ATOM     14  H2  UNL     1      32.539  -8.560  11.966  1.00  0.00     0.190 HD
BRANCH  13  15
HETATM   15  N3  UNL     1      33.113 -10.196  10.834  1.00  0.00    -0.342 N 
ATOM     16  H32 UNL     1      33.807 -10.515  10.159  1.00  0.00     0.176 HD
ATOM     17  H31 UNL     1      32.361 -10.827  11.116  1.00  0.00     0.176 HD
ENDBRANCH  13  15
ENDBRANCH   8  11
ENDBRANCH   5   7
BRANCH   6  18
HETATM   18  C11 UNL     1      36.646  -5.653  14.039  1.00  0.00     0.296 C 
HETATM   19  O6  UNL     1      35.669  -6.133  14.641  1.00  0.00    -0.259 OA
BRANCH  18  20
HETATM   20  O7  UNL     1      37.828  -6.354  14.365  1.00  0.00    -0.322 OA
HETATM   21  C12 UNL     1      38.879  -6.571  13.460  1.00  0.00     0.213 C 
ENDBRANCH  18  20
ENDBRANCH   6  18
BRANCH   3  22
HETATM   22  O3  UNL     1      35.989  -1.359  10.514  1.00  0.00    -0.361 OA
ATOM     23  H3  UNL     1      35.333  -1.443   9.833  1.00  0.00     0.217 HD
ENDBRANCH   3  22
BRANCH   1  24
HETATM   24  C2  UNL     1      37.818  -2.988  14.648  1.00  0.00     0.189 C 
BRANCH  24  25
HETATM   25  O1  UNL     1      39.074  -3.281  15.074  1.00  0.00    -0.335 OA
HETATM   26  C1  UNL     1      39.337  -3.888  16.356  1.00  0.00     0.212 C 
ENDBRANCH  24  25
BRANCH  24  27
HETATM   27  O2  UNL     1      37.166  -2.252  15.514  1.00  0.00    -0.340 OA
ATOM     28  H2  UNL     1      36.883  -2.756  16.268  1.00  0.00     0.220 HD
ENDBRANCH  24  27
ENDBRANCH   1  24
TORSDOF 9
ENDMDL
MODEL 4
REMARK VINA RESULT: -5.883996371      1.664      3.550
REMARK  9 active torsions:
REMARK  status: ('A' for Active; 'I' for Inactive)
REMARK    1  A    between atoms: O1_2  and  C2_3 
REMARK    2  A    between atoms: C2_3  and  O2_4 
REMARK    3  A    between atoms: C2_3  and  C3_6 
REMARK    4  A    between atoms: C5_8  and  O3_9 
REMARK    5  A    between atoms: C7_12  and  N1_13 
REMARK       I    between atoms: N1_13  and  C8_15 
REMARK    6  A    between atoms: C8_15  and  C9_17 
REMARK       I    between atoms: C9_17  and  N2_19 
REMARK    7  A    between atoms: N2_19  and  N3_21 
REMARK    8  A    between atoms: C10_24  and  C11_25 
REMARK    9  A    between atoms: C11_25  and  O7_27 
ROOT
HETATM    1  C3  UNL     1      35.299  -8.595  11.362  1.00  0.00     0.043 A 
HETATM    2  C4  UNL     1      34.692  -8.922  12.621  1.00  0.00     0.054 A 
HETATM    3  C5  UNL     1      34.113  -7.951  13.372  1.00  0.00     0.068 A 
HETATM    4  C6  UNL     1      34.093  -6.641  12.955  1.00  0.00     0.067 A 
HETATM    5  C7  UNL     1      34.671  -6.312  11.751  1.00  0.00     0.055 A 
HETATM    6  C10 UNL     1      35.273  -7.296  10.947  1.00  0.00     0.081 A 
ENDROOT
BRANCH   5   7
HETATM    7  N1  UNL     1      34.806  -4.946  11.424  1.00  0.00    -0.318 N 
HETATM    8  C8  UNL     1      35.877  -4.119  11.832  1.00  0.00     0.315 C 
HETATM    9  O4  UNL     1      36.838  -4.513  12.552  1.00  0.00    -0.262 OA
ATOM     10  H1  UNL     1      34.077  -4.524  10.850  1.00  0.00     0.169 HD
BRANCH   8  11
HETATM   11  C9  UNL     1      35.874  -2.703  11.388  1.00  0.00     0.327 C 
HETATM   12  O5  UNL     1      34.796  -2.223  10.991  1.00  0.00    -0.261 OA
HETATM   13  N2  UNL     1      37.030  -1.904  11.404  1.00  0.00    -0.268 N 
ATOM     14  H2  UNL     1      37.901  -2.319  11.735  1.00  0.00     0.190 HD
BRANCH  13  15
HETATM   15  N3  UNL     1      37.047  -0.585  10.994  1.00  0.00    -0.342 N 
ATOM     16  H32 UNL     1      36.147  -0.117  10.890  1.00  0.00     0.176 HD
ATOM     17  H31 UNL     1      37.905  -0.070  10.796  1.00  0.00     0.176 HD
ENDBRANCH  13  15
ENDBRANCH   8  11
ENDBRANCH   5   7
BRANCH   6  18
HETATM   18  C11 UNL     1      35.670  -6.902   9.626  1.00  0.00     0.296 C 
HETATM   19  O6  UNL     1      35.190  -5.981   8.943  1.00  0.00    -0.259 OA
BRANCH  18  20
HETATM   20  O7  UNL     1      36.713  -7.551   8.929  1.00  0.00    -0.322 OA
HETATM   21  C12 UNL     1      36.683  -7.812   7.550  1.00  0.00     0.213 C 
ENDBRANCH  18  20
ENDBRANCH   6  18
BRANCH   3  22
HETATM   22  O3  UNL     1      33.525  -8.308  14.598  1.00  0.00    -0.361 OA
ATOM     23  H3  UNL     1      32.641  -8.013  14.781  1.00  0.00     0.217 HD
ENDBRANCH   3  22
BRANCH   1  24
HETATM   24  C2  UNL     1      35.948  -9.670  10.679  1.00  0.00     0.189 C 
BRANCH  24  25
HETATM   25  O1  UNL     1      35.503 -10.694   9.903  1.00  0.00    -0.335 OA
HETATM   26  C1  UNL     1      34.495 -10.515   8.887  1.00  0.00     0.212 C 
ENDBRANCH  24  25
BRANCH  24  27
HETATM   27  O2  UNL     1      37.251  -9.688  10.814  1.00  0.00    -0.340 OA
ATOM     28  H2  UNL     1      37.628 -10.507  10.514  1.00  0.00     0.220 HD
ENDBRANCH  24  27
ENDBRANCH   1  24
TORSDOF 9
ENDMDL
MODEL 5
REMARK VINA RESULT: -5.776203629      5.999      8.191
REMARK  9 active torsions:
REMARK  status: ('A' for Active; 'I' for Inactive)
REMARK    1  A    between atoms: O1_2  and  C2_3 
REMARK    2  A    between atoms: C2_3  and  O2_4 
REMARK    3  A    between atoms: C2_3  and  C3_6 
REMARK    4  A    between atoms: C5_8  and  O3_9 
REMARK    5  A    between atoms: C7_12  and  N1_13 
REMARK       I    between atoms: N1_13  and  C8_15 
REMARK    6  A    between atoms: C8_15  and  C9_17 
REMARK       I    between atoms: C9_17  and  N2_19 
REMARK    7  A    between atoms: N2_19  and  N3_21 
REMARK    8  A    between atoms: C10_24  and  C11_25 
REMARK    9  A    between atoms: C11_25  and  O7_27 
ROOT
HETATM    1  C3  UNL     1      37.546  -2.238  13.534  1.00  0.00     0.043 A 
HETATM    2  C4  UNL     1      36.485  -2.666  12.667  1.00  0.00     0.054 A 
HETATM    3  C5  UNL     1      35.935  -1.797  11.782  1.00  0.00     0.068 A 
HETATM    4  C6  UNL     1      36.371  -0.497  11.691  1.00  0.00     0.067 A 
HETATM    5  C7  UNL     1      37.386  -0.071  12.515  1.00  0.00     0.055 A 
HETATM    6  C10 UNL     1      37.981  -0.949  13.439  1.00  0.00     0.081 A 
ENDROOT
BRANCH   5   7
HETATM    7  N1  UNL     1      37.696   1.305  12.542  1.00  0.00    -0.318 N 
HETATM    8  C8  UNL     1      36.936   2.293  13.210  1.00  0.00     0.315 C 
HETATM    9  O4  UNL     1      35.878   2.051  13.856  1.00  0.00    -0.262 OA
ATOM     10  H1  UNL     1      38.531   1.611  12.042  1.00  0.00     0.169 HD
BRANCH   8  11
HETATM   11  C9  UNL     1      37.410   3.697  13.149  1.00  0.00     0.327 C 
HETATM   12  O5  UNL     1      38.261   3.984  12.287  1.00  0.00    -0.261 OA
HETATM   13  N2  UNL     1      36.934   4.693  14.019  1.00  0.00    -0.268 N 
ATOM     14  H2  UNL     1      36.236   4.433  14.716  1.00  0.00     0.190 HD
BRANCH  13  15
HETATM   15  N3  UNL     1      37.364   6.006  13.978  1.00  0.00    -0.342 N 
ATOM     16  H32 UNL     1      37.719   6.353  13.088  1.00  0.00     0.176 HD
ATOM     17  H31 UNL     1      37.340   6.628  14.786  1.00  0.00     0.176 HD
ENDBRANCH  13  15
ENDBRANCH   8  11
ENDBRANCH   5   7
BRANCH   6  18
HETATM   18  C11 UNL     1      39.159  -0.483  14.113  1.00  0.00     0.296 C 
HETATM   19  O6  UNL     1      39.374  -0.486  15.337  1.00  0.00    -0.259 OA
BRANCH  18  20
HETATM   20  O7  UNL     1      40.264   0.049  13.412  1.00  0.00    -0.322 OA
HETATM   21  C12 UNL     1      41.054  -0.697  12.522  1.00  0.00     0.213 C 
ENDBRANCH  18  20
ENDBRANCH   6  18
BRANCH   3  22
HETATM   22  O3  UNL     1      34.900  -2.251  10.946  1.00  0.00    -0.361 OA
ATOM     23  H3  UNL     1      34.953  -3.133  10.595  1.00  0.00     0.217 HD
ENDBRANCH   3  22
BRANCH   1  24
HETATM   24  C2  UNL     1      38.010  -3.202  14.483  1.00  0.00     0.189 C 
BRANCH  24  25
HETATM   25  O1  UNL     1      38.871  -4.251  14.411  1.00  0.00    -0.335 OA
HETATM   26  C1  UNL     1      40.095  -4.200  13.650  1.00  0.00     0.212 C 
ENDBRANCH  24  25
BRANCH  24  27
HETATM   27  O2  UNL     1      37.515  -3.055  15.687  1.00  0.00    -0.340 OA
ATOM     28  H2  UNL     1      36.863  -3.717  15.886  1.00  0.00     0.220 HD
ENDBRANCH  24  27
ENDBRANCH   1  24
TORSDOF 9
ENDMDL
