MODEL 1
REMARK VINA RESULT: -6.841202524      0.000      0.000
REMARK  5 active torsions:
REMARK  status: ('A' for Active; 'I' for Inactive)
REMARK    1  A    between atoms: N1_1  and  C1_4 
REMARK    2  A    between atoms: C4_11  and  C5_12 
REMARK    3  A    between atoms: C5_12  and  N4_13 
REMARK       I    between atoms: N4_13  and  C6_15 
REMARK    4  A    between atoms: C6_15  and  C7_17 
REMARK    5  A    between atoms: C9_26  and  C10_27 
ROOT
HETATM    1  C1  UNL     1      37.699  -2.972  14.638  1.00  0.00     0.130 A 
HETATM    2  N2  UNL     1      38.592  -2.708  15.651  1.00  0.00    -0.337 N 
ATOM      3  H2  UNL     1      38.774  -3.421  16.358  1.00  0.00     0.168 HD
HETATM    4  C2  UNL     1      39.223  -1.537  15.721  1.00  0.00     0.182 A 
HETATM    5  N3  UNL     1      39.026  -0.568  14.827  1.00  0.00    -0.349 N 
ATOM      6  H3  UNL     1      39.526   0.317  14.912  1.00  0.00     0.167 HD
HETATM    7  C3  UNL     1      38.173  -0.761  13.822  1.00  0.00     0.090 A 
HETATM    8  C4  UNL     1      37.964   0.234  12.890  1.00  0.00     0.073 A 
HETATM    9  N5  UNL     1      37.108  -0.013  11.915  1.00  0.00    -0.190 N 
ATOM     10  H5  UNL     1      36.943   0.714  11.219  1.00  0.00     0.184 HD
HETATM   11  C8  UNL     1      36.448  -1.168  11.795  1.00  0.00     0.706 A 
HETATM   12  N6  UNL     1      35.554  -1.607  10.896  1.00  0.00    -0.130 N 
ATOM     13  H6  UNL     1      35.209  -1.081  10.093  1.00  0.00     0.205 HD
HETATM   14  N7  UNL     1      35.206  -2.798  11.216  1.00  0.00    -0.266 N 
ATOM     15  H7  UNL     1      34.537  -3.368  10.699  1.00  0.00     0.189 HD
HETATM   16  C9  UNL     1      35.889  -3.211  12.394  1.00  0.00     0.210 A 
HETATM   17  N9  UNL     1      36.631  -2.174  12.698  1.00  0.00    -0.118 N 
HETATM   18  C11 UNL     1      37.497  -1.993  13.732  1.00  0.00     0.131 A 
ENDROOT
BRANCH   8  19
HETATM   19  C5  UNL     1      38.683   1.509  13.033  1.00  0.00     0.182 C 
BRANCH  19  20
HETATM   20  N4  UNL     1      37.955   2.497  13.767  1.00  0.00    -0.353 N 
HETATM   21  C6  UNL     1      36.936   3.322  13.247  1.00  0.00     0.246 C 
HETATM   22  O1  UNL     1      36.611   3.214  12.042  1.00  0.00    -0.271 OA
ATOM     23  H4  UNL     1      38.193   2.616  14.751  1.00  0.00     0.162 HD
BRANCH  21  24
HETATM   24  C7  UNL     1      36.239   4.310  14.096  1.00  0.00     0.324 C 
HETATM   25  F1  UNL     1      34.996   4.633  13.600  1.00  0.00    -0.246 F 
ENDBRANCH  21  24
ENDBRANCH  19  20
ENDBRANCH   8  19
BRANCH   1  26
HETATM   26  N1  UNL     1      37.225  -4.102  14.746  1.00  0.00    -0.384 N 
ATOM     27  H12 UNL     1      37.536  -4.925  15.262  1.00  0.00     0.157 HD
ATOM     28  H11 UNL     1      36.364  -4.194  14.207  1.00  0.00     0.157 HD
ENDBRANCH   1  26
BRANCH  16  29
HETATM   29  C10 UNL     1      35.515  -4.527  12.764  1.00  0.00     0.301 C 
HETATM   30  N8  UNL     1      36.090  -5.771  12.370  1.00  0.00    -0.054 NA
HETATM   31  O2  UNL     1      34.508  -4.662  13.556  1.00  0.00    -0.268 OA
ENDBRANCH  16  29
TORSDOF 5
ENDMDL
MODEL 2
REMARK VINA RESULT: -6.508876771      1.286      1.375
REMARK  5 active torsions:
REMARK  status: ('A' for Active; 'I' for Inactive)
REMARK    1  A    between atoms: N1_1  and  C1_4 
REMARK    2  A    between atoms: C4_11  and  C5_12 
REMARK    3  A    between atoms: C5_12  and  N4_13 
REMARK       I    between atoms: N4_13  and  C6_15 
REMARK    4  A    between atoms: C6_15  and  C7_17 
REMARK    5  A    between atoms: C9_26  and  C10_27 
ROOT
HETATM    1  C1  UNL     1      38.195  -3.636  14.292  1.00  0.00     0.130 A 
HETATM    2  N2  UNL     1      39.242  -3.126  15.024  1.00  0.00    -0.337 N 
ATOM      3  H2  UNL     1      39.755  -3.737  15.661  1.00  0.00     0.168 HD
HETATM    4  C2  UNL     1      39.597  -1.847  14.914  1.00  0.00     0.182 A 
HETATM    5  N3  UNL     1      38.966  -1.001  14.099  1.00  0.00    -0.349 N 
ATOM      6  H3  UNL     1      39.264  -0.027  14.040  1.00  0.00     0.167 HD
HETATM    7  C3  UNL     1      37.942  -1.434  13.363  1.00  0.00     0.090 A 
HETATM    8  C4  UNL     1      37.283  -0.567  12.516  1.00  0.00     0.073 A 
HETATM    9  N5  UNL     1      36.277  -1.051  11.811  1.00  0.00    -0.190 N 
ATOM     10  H5  UNL     1      35.780  -0.422  11.180  1.00  0.00     0.184 HD
HETATM   11  C8  UNL     1      35.879  -2.324  11.881  1.00  0.00     0.706 A 
HETATM   12  N6  UNL     1      34.899  -2.999  11.260  1.00  0.00    -0.130 N 
ATOM     13  H6  UNL     1      34.248  -2.610  10.577  1.00  0.00     0.205 HD
HETATM   14  N7  UNL     1      34.917  -4.212  11.670  1.00  0.00    -0.266 N 
ATOM     15  H7  UNL     1      34.276  -4.943  11.358  1.00  0.00     0.189 HD
HETATM   16  C9  UNL     1      35.958  -4.395  12.623  1.00  0.00     0.210 A 
HETATM   17  N9  UNL     1      36.507  -3.209  12.708  1.00  0.00    -0.118 N 
HETATM   18  C11 UNL     1      37.553  -2.782  13.468  1.00  0.00     0.131 A 
ENDROOT
BRANCH   8  19
HETATM   19  C5  UNL     1      37.717   0.836  12.451  1.00  0.00     0.182 C 
BRANCH  19  20
HETATM   20  N4  UNL     1      36.863   1.733  13.165  1.00  0.00    -0.353 N 
HETATM   21  C6  UNL     1      36.880   3.140  13.065  1.00  0.00     0.246 C 
HETATM   22  O1  UNL     1      37.702   3.692  12.298  1.00  0.00    -0.271 OA
ATOM     23  H4  UNL     1      36.182   1.320  13.803  1.00  0.00     0.162 HD
BRANCH  21  24
HETATM   24  C7  UNL     1      35.946   3.977  13.846  1.00  0.00     0.324 C 
HETATM   25  F1  UNL     1      36.599   4.731  14.796  1.00  0.00    -0.246 F 
ENDBRANCH  21  24
ENDBRANCH  19  20
ENDBRANCH   8  19
BRANCH   1  26
HETATM   26  N1  UNL     1      38.026  -4.831  14.532  1.00  0.00    -0.384 N 
ATOM     27  H12 UNL     1      37.262  -5.470  14.311  1.00  0.00     0.157 HD
ATOM     28  H11 UNL     1      38.816  -5.218  15.047  1.00  0.00     0.157 HD
ENDBRANCH   1  26
BRANCH  16  29
HETATM   29  C10 UNL     1      35.992  -5.733  13.089  1.00  0.00     0.301 C 
HETATM   30  N8  UNL     1      35.426  -6.290  14.274  1.00  0.00    -0.054 NA
HETATM   31  O2  UNL     1      36.629  -6.598  12.377  1.00  0.00    -0.268 OA
ENDBRANCH  16  29
TORSDOF 5
ENDMDL
MODEL 3
REMARK VINA RESULT: -6.454991845      3.685      6.758
REMARK  5 active torsions:
REMARK  status: ('A' for Active; 'I' for Inactive)
REMARK    1  A    between atoms: N1_1  and  C1_4 
REMARK    2  A    between atoms: C4_11  and  C5_12 
REMARK    3  A    between atoms: C5_12  and  N4_13 
REMARK       I    between atoms: N4_13  and  C6_15 
REMARK    4  A    between atoms: C6_15  and  C7_17 
REMARK    5  A    between atoms: C9_26  and  C10_27 
ROOT
HETATM    1  C1  UNL     1      38.300  -3.523  13.716  1.00  0.00     0.130 A 
HETATM    2  N2  UNL     1      38.513  -4.686  14.420  1.00  0.00    -0.337 N 
ATOM      3  H2  UNL     1      39.351  -4.778  14.996  1.00  0.00     0.168 HD
HETATM    4  C2  UNL     1      37.643  -5.692  14.361  1.00  0.00     0.182 A 
HETATM    5  N3  UNL     1      36.532  -5.630  13.626  1.00  0.00    -0.349 N 
ATOM      6  H3  UNL     1      35.887  -6.420  13.603  1.00  0.00     0.167 HD
HETATM    7  C3  UNL     1      36.268  -4.530  12.921  1.00  0.00     0.090 A 
HETATM    8  C4  UNL     1      35.121  -4.455  12.159  1.00  0.00     0.073 A 
HETATM    9  N5  UNL     1      34.910  -3.341  11.482  1.00  0.00    -0.190 N 
ATOM     10  H5  UNL     1      34.066  -3.271  10.913  1.00  0.00     0.184 HD
HETATM   11  C8  UNL     1      35.748  -2.301  11.505  1.00  0.00     0.706 A 
HETATM   12  N6  UNL     1      35.717  -1.103  10.899  1.00  0.00    -0.130 N 
ATOM     13  H6  UNL     1      34.983  -0.771  10.273  1.00  0.00     0.205 HD
HETATM   14  N7  UNL     1      36.763  -0.447  11.240  1.00  0.00    -0.266 N 
ATOM     15  H7  UNL     1      36.989   0.496  10.923  1.00  0.00     0.189 HD
HETATM   16  C9  UNL     1      37.564  -1.223  12.125  1.00  0.00     0.210 A 
HETATM   17  N9  UNL     1      36.892  -2.340  12.247  1.00  0.00    -0.118 N 
HETATM   18  C11 UNL     1      37.177  -3.457  12.972  1.00  0.00     0.131 A 
ENDROOT
BRANCH   8  19
HETATM   19  C5  UNL     1      34.208  -5.607  12.127  1.00  0.00     0.182 C 
BRANCH  19  20
HETATM   20  N4  UNL     1      34.361  -6.426  10.965  1.00  0.00    -0.353 N 
HETATM   21  C6  UNL     1      35.111  -7.619  10.894  1.00  0.00     0.246 C 
HETATM   22  O1  UNL     1      35.713  -8.030  11.913  1.00  0.00    -0.271 OA
ATOM     23  H4  UNL     1      33.888  -6.122  10.115  1.00  0.00     0.162 HD
BRANCH  21  24
HETATM   24  C7  UNL     1      35.199  -8.397   9.640  1.00  0.00     0.324 C 
HETATM   25  F1  UNL     1      35.502  -7.600   8.558  1.00  0.00    -0.246 F 
ENDBRANCH  21  24
ENDBRANCH  19  20
ENDBRANCH   8  19
BRANCH   1  26
HETATM   26  N1  UNL     1      39.211  -2.718  13.903  1.00  0.00    -0.384 N 
ATOM     27  H12 UNL     1      40.053  -2.503  13.367  1.00  0.00     0.157 HD
ATOM     28  H11 UNL     1      39.062  -2.185  14.760  1.00  0.00     0.157 HD
ENDBRANCH   1  26
BRANCH  16  29
HETATM   29  C10 UNL     1      38.728  -0.512  12.512  1.00  0.00     0.301 C 
HETATM   30  N8  UNL     1      40.011  -0.477  11.891  1.00  0.00    -0.054 NA
HETATM   31  O2  UNL     1      38.663   0.203  13.582  1.00  0.00    -0.268 OA
ENDBRANCH  16  29
TORSDOF 5
ENDMDL
MODEL 4
REMARK VINA RESULT: -6.325483322      3.358      5.509
REMARK  5 active torsions:
REMARK  status: ('A' for Active; 'I' for Inactive)
REMARK    1  A    between atoms: N1_1  and  C1_4 
REMARK    2  A    between atoms: C4_11  and  C5_12 
REMARK    3  A    between atoms: C5_12  and  N4_13 
REMARK       I    between atoms: N4_13  and  C6_15 
REMARK    4  A    between atoms: C6_15  and  C7_17 
REMARK    5  A    between atoms: C9_26  and  C10_27 
ROOT
HETATM    1  C1  UNL     1      36.878  -7.920  11.909  1.00  0.00     0.130 A 
HETATM    2  N2  UNL     1      38.210  -7.699  12.178  1.00  0.00    -0.337 N 
ATOM      3  H2  UNL     1      38.896  -8.414  11.936  1.00  0.00     0.168 HD
HETATM    4  C2  UNL     1      38.615  -6.565  12.748  1.00  0.00     0.182 A 
HETATM    5  N3  UNL     1      37.765  -5.595  13.087  1.00  0.00    -0.349 N 
ATOM      6  H3  UNL     1      38.110  -4.740  13.523  1.00  0.00     0.167 HD
HETATM    7  C3  UNL     1      36.462  -5.749  12.853  1.00  0.00     0.090 A 
HETATM    8  C4  UNL     1      35.574  -4.751  13.198  1.00  0.00     0.073 A 
HETATM    9  N5  UNL     1      34.295  -4.956  12.941  1.00  0.00    -0.190 N 
ATOM     10  H5  UNL     1      33.627  -4.227  13.191  1.00  0.00     0.184 HD
HETATM   11  C8  UNL     1      33.833  -6.072  12.371  1.00  0.00     0.706 A 
HETATM   12  N6  UNL     1      32.596  -6.468  12.034  1.00  0.00    -0.130 N 
ATOM     13  H6  UNL     1      31.739  -5.930  12.173  1.00  0.00     0.205 HD
HETATM   14  N7  UNL     1      32.670  -7.634  11.510  1.00  0.00    -0.266 N 
ATOM     15  H7  UNL     1      31.873  -8.169  11.164  1.00  0.00     0.189 HD
HETATM   16  C9  UNL     1      34.023  -8.076  11.479  1.00  0.00     0.210 A 
HETATM   17  N9  UNL     1      34.682  -7.080  12.017  1.00  0.00    -0.118 N 
HETATM   18  C11 UNL     1      36.016  -6.940  12.251  1.00  0.00     0.131 A 
ENDROOT
BRANCH   8  19
HETATM   19  C5  UNL     1      36.086  -3.529  13.836  1.00  0.00     0.182 C 
BRANCH  19  20
HETATM   20  N4  UNL     1      35.910  -2.353  13.042  1.00  0.00    -0.353 N 
HETATM   21  C6  UNL     1      36.946  -1.544  12.529  1.00  0.00     0.246 C 
HETATM   22  O1  UNL     1      38.138  -1.846  12.769  1.00  0.00    -0.271 OA
ATOM     23  H4  UNL     1      34.953  -2.073  12.828  1.00  0.00     0.162 HD
BRANCH  21  24
HETATM   24  C7  UNL     1      36.654  -0.349  11.711  1.00  0.00     0.324 C 
HETATM   25  F1  UNL     1      36.314   0.737  12.487  1.00  0.00    -0.246 F 
ENDBRANCH  21  24
ENDBRANCH  19  20
ENDBRANCH   8  19
BRANCH   1  26
HETATM   26  N1  UNL     1      36.708  -9.018  11.382  1.00  0.00    -0.384 N 
ATOM     27  H12 UNL     1      35.863  -9.545  11.161  1.00  0.00     0.157 HD
ATOM     28  H11 UNL     1      37.598  -9.449  11.134  1.00  0.00     0.157 HD
ENDBRANCH   1  26
BRANCH  16  29
HETATM   29  C10 UNL     1      34.124  -9.367  10.903  1.00  0.00     0.301 C 
HETATM   30  N8  UNL     1      33.950 -10.643  11.515  1.00  0.00    -0.054 NA
HETATM   31  O2  UNL     1      34.429  -9.441   9.653  1.00  0.00    -0.268 OA
ENDBRANCH  16  29
TORSDOF 5
ENDMDL
MODEL 5
REMARK VINA RESULT: -6.153709730      3.155      6.320
REMARK  5 active torsions:
REMARK  status: ('A' for Active; 'I' for Inactive)
REMARK    1  A    between atoms: N1_1  and  C1_4 
REMARK    2  A    between atoms: C4_11  and  C5_12 
REMARK    3  A    between atoms: C5_12  and  N4_13 
REMARK       I    between atoms: N4_13  and  C6_15 
REMARK    4  A    between atoms: C6_15  and  C7_17 
REMARK    5  A    between atoms: C9_26  and  C10_27 
ROOT
HETATM    1  C1  UNL     1      38.663  -1.785  14.603  1.00  0.00     0.130 A 
HETATM    2  N2  UNL     1      39.086  -2.490  15.706  1.00  0.00    -0.337 N 
ATOM      3  H2  UNL     1      39.815  -2.099  16.302  1.00  0.00     0.168 HD
HETATM    4  C2  UNL     1      38.557  -3.675  16.006  1.00  0.00     0.182 A 
HETATM    5  N3  UNL     1      37.602  -4.237  15.264  1.00  0.00    -0.349 N 
ATOM      6  H3  UNL     1      37.219  -5.146  15.523  1.00  0.00     0.167 HD
HETATM    7  C3  UNL     1      37.149  -3.603  14.182  1.00  0.00     0.090 A 
HETATM    8  C4  UNL     1      36.159  -4.175  13.409  1.00  0.00     0.073 A 
HETATM    9  N5  UNL     1      35.748  -3.502  12.350  1.00  0.00    -0.190 N 
ATOM     10  H5  UNL     1      35.017  -3.912  11.768  1.00  0.00     0.184 HD
HETATM   11  C8  UNL     1      36.243  -2.311  12.002  1.00  0.00     0.706 A 
HETATM   12  N6  UNL     1      35.967  -1.482  10.983  1.00  0.00    -0.130 N 
ATOM     13  H6  UNL     1      35.275  -1.646  10.251  1.00  0.00     0.205 HD
HETATM   14  N7  UNL     1      36.717  -0.449  11.083  1.00  0.00    -0.266 N 
ATOM     15  H7  UNL     1      36.713   0.341  10.437  1.00  0.00     0.189 HD
HETATM   16  C9  UNL     1      37.559  -0.561  12.226  1.00  0.00     0.210 A 
HETATM   17  N9  UNL     1      37.222  -1.716  12.743  1.00  0.00    -0.118 N 
HETATM   18  C11 UNL     1      37.696  -2.350  13.850  1.00  0.00     0.131 A 
ENDROOT
BRANCH   8  19
HETATM   19  C5  UNL     1      35.627  -5.491  13.789  1.00  0.00     0.182 C 
BRANCH  19  20
HETATM   20  N4  UNL     1      35.727  -6.470  12.751  1.00  0.00    -0.353 N 
HETATM   21  C6  UNL     1      34.776  -6.689  11.733  1.00  0.00     0.246 C 
HETATM   22  O1  UNL     1      33.737  -5.990  11.701  1.00  0.00    -0.271 OA
ATOM     23  H4  UNL     1      36.559  -7.061  12.746  1.00  0.00     0.162 HD
BRANCH  21  24
HETATM   24  C7  UNL     1      34.981  -7.726  10.700  1.00  0.00     0.324 C 
HETATM   25  F1  UNL     1      34.969  -7.198   9.428  1.00  0.00    -0.246 F 
ENDBRANCH  21  24
ENDBRANCH  19  20
ENDBRANCH   8  19
BRANCH   1  26
HETATM   26  N1  UNL     1      39.268  -0.719  14.499  1.00  0.00    -0.384 N 
ATOM     27  H12 UNL     1      39.652  -0.082  15.197  1.00  0.00     0.157 HD
ATOM     28  H11 UNL     1      39.388  -0.457  13.520  1.00  0.00     0.157 HD
ENDBRANCH   1  26
BRANCH  16  29
HETATM   29  C10 UNL     1      38.399   0.574  12.352  1.00  0.00     0.301 C 
HETATM   30  N8  UNL     1      38.083   1.881  12.828  1.00  0.00    -0.054 NA
HETATM   31  O2  UNL     1      39.627   0.453  11.981  1.00  0.00    -0.268 OA
ENDBRANCH  16  29
TORSDOF 5
ENDMDL
