MODEL 1
REMARK VINA RESULT: -2.124633587      0.000      0.000
REMARK  2 active torsions:
REMARK  status: ('A' for Active; 'I' for Inactive)
REMARK    1  A    between atoms: C4_5  and  C5_6 
REMARK    2  A    between atoms: C5_6  and  N2_7 
ROOT
HETATM    1  C1  UNL     1      27.745 -14.469   8.077  1.00  0.00     0.311 C 
HETATM    2  N1  UNL     1      26.393 -13.988   8.261  1.00  0.00     0.042 N 
HETATM    3  C2  UNL     1      26.386 -12.760   9.063  1.00  0.00     0.311 C 
HETATM    4  C3  UNL     1      25.442 -14.977   8.699  1.00  0.00     0.308 C 
HETATM    5  C4  UNL     1      24.594 -14.260   7.708  1.00  0.00     0.213 C 
HETATM    6  O1  UNL     1      25.746 -13.737   7.096  1.00  0.00    -0.194 OA
ENDROOT
BRANCH   5   7
HETATM    7  C5  UNL     1      23.840 -15.108   6.718  1.00  0.00     0.265 C 
BRANCH   7   8
HETATM    8  N2  UNL     1      24.496 -16.362   6.460  1.00  0.00    -0.077 N 
ATOM      9  H23 UNL     1      24.928 -16.367   5.536  1.00  0.00     0.274 HD
ATOM     10  H22 UNL     1      25.334 -16.463   7.033  1.00  0.00     0.274 HD
ATOM     11  H21 UNL     1      23.871 -17.159   6.579  1.00  0.00     0.274 HD
ENDBRANCH   7   8
ENDBRANCH   5   7
TORSDOF 2
ENDMDL
MODEL 2
REMARK VINA RESULT: -1.957550492      1.563      3.288
REMARK  2 active torsions:
REMARK  status: ('A' for Active; 'I' for Inactive)
REMARK    1  A    between atoms: C4_5  and  C5_6 
REMARK    2  A    between atoms: C5_6  and  N2_7 
ROOT
HETATM    1  C1  UNL     1      24.683 -14.471   9.372  1.00  0.00     0.311 C 
HETATM    2  N1  UNL     1      25.370 -14.840   8.154  1.00  0.00     0.042 N 
HETATM    3  C2  UNL     1      24.509 -14.616   6.988  1.00  0.00     0.311 C 
HETATM    4  C3  UNL     1      26.005 -16.132   8.172  1.00  0.00     0.308 C 
HETATM    5  C4  UNL     1      27.062 -15.362   7.460  1.00  0.00     0.213 C 
HETATM    6  O1  UNL     1      26.529 -14.162   7.961  1.00  0.00    -0.194 OA
ENDROOT
BRANCH   5   7
HETATM    7  C5  UNL     1      28.474 -15.529   7.955  1.00  0.00     0.265 C 
BRANCH   7   8
HETATM    8  N2  UNL     1      29.303 -14.397   7.637  1.00  0.00    -0.077 N 
ATOM      9  H23 UNL     1      30.152 -14.688   7.151  1.00  0.00     0.274 HD
ATOM     10  H22 UNL     1      28.882 -13.827   6.904  1.00  0.00     0.274 HD
ATOM     11  H21 UNL     1      29.524 -13.835   8.459  1.00  0.00     0.274 HD
ENDBRANCH   7   8
ENDBRANCH   5   7
TORSDOF 2
ENDMDL
MODEL 3
REMARK VINA RESULT: -1.796658669      1.773      2.251
REMARK  2 active torsions:
REMARK  status: ('A' for Active; 'I' for Inactive)
REMARK    1  A    between atoms: C4_5  and  C5_6 
REMARK    2  A    between atoms: C5_6  and  N2_7 
ROOT
HETATM    1  C1  UNL     1      26.191 -12.661   8.983  1.00  0.00     0.311 C 
HETATM    2  N1  UNL     1      25.707 -13.636   8.030  1.00  0.00     0.042 N 
HETATM    3  C2  UNL     1      25.164 -12.970   6.841  1.00  0.00     0.311 C 
HETATM    4  C3  UNL     1      24.846 -14.654   8.574  1.00  0.00     0.308 C 
HETATM    5  C4  UNL     1      25.655 -15.499   7.653  1.00  0.00     0.213 C 
HETATM    6  O1  UNL     1      26.658 -14.514   7.627  1.00  0.00    -0.194 OA
ENDROOT
BRANCH   5   7
HETATM    7  C5  UNL     1      26.219 -16.774   8.221  1.00  0.00     0.265 C 
BRANCH   7   8
HETATM    8  N2  UNL     1      27.539 -17.058   7.725  1.00  0.00    -0.077 N 
ATOM      9  H23 UNL     1      28.175 -17.296   8.486  1.00  0.00     0.274 HD
ATOM     10  H22 UNL     1      27.558 -17.940   7.214  1.00  0.00     0.274 HD
ATOM     11  H21 UNL     1      27.913 -16.297   7.158  1.00  0.00     0.274 HD
ENDBRANCH   7   8
ENDBRANCH   5   7
TORSDOF 2
ENDMDL
MODEL 4
REMARK VINA RESULT: -1.705499796      1.682      3.353
REMARK  2 active torsions:
REMARK  status: ('A' for Active; 'I' for Inactive)
REMARK    1  A    between atoms: C4_5  and  C5_6 
REMARK    2  A    between atoms: C5_6  and  N2_7 
ROOT
HETATM    1  C1  UNL     1      25.857 -17.052   8.232  1.00  0.00     0.311 C 
HETATM    2  N1  UNL     1      25.493 -15.731   7.771  1.00  0.00     0.042 N 
HETATM    3  C2  UNL     1      24.551 -15.817   6.649  1.00  0.00     0.311 C 
HETATM    4  C3  UNL     1      26.595 -14.833   7.541  1.00  0.00     0.308 C 
HETATM    5  C4  UNL     1      25.646 -13.880   8.182  1.00  0.00     0.213 C 
HETATM    6  O1  UNL     1      24.933 -14.958   8.735  1.00  0.00    -0.194 OA
ENDROOT
BRANCH   5   7
HETATM    7  C5  UNL     1      26.192 -13.019   9.289  1.00  0.00     0.265 C 
BRANCH   7   8
HETATM    8  N2  UNL     1      26.533 -11.696   8.837  1.00  0.00    -0.077 N 
ATOM      9  H23 UNL     1      26.161 -11.519   7.905  1.00  0.00     0.274 HD
ATOM     10  H22 UNL     1      26.018 -10.986   9.357  1.00  0.00     0.274 HD
ATOM     11  H21 UNL     1      27.537 -11.521   8.872  1.00  0.00     0.274 HD
ENDBRANCH   7   8
ENDBRANCH   5   7
TORSDOF 2
ENDMDL
MODEL 5
REMARK VINA RESULT: -1.593212419      1.790      3.015
REMARK  2 active torsions:
REMARK  status: ('A' for Active; 'I' for Inactive)
REMARK    1  A    between atoms: C4_5  and  C5_6 
REMARK    2  A    between atoms: C5_6  and  N2_7 
ROOT
HETATM    1  C1  UNL     1      24.204 -14.556   6.711  1.00  0.00     0.311 C 
HETATM    2  N1  UNL     1      25.074 -14.600   7.865  1.00  0.00     0.042 N 
HETATM    3  C2  UNL     1      24.296 -14.472   9.102  1.00  0.00     0.311 C 
HETATM    4  C3  UNL     1      26.222 -13.734   7.804  1.00  0.00     0.308 C 
HETATM    5  C4  UNL     1      26.866 -14.934   8.408  1.00  0.00     0.213 C 
HETATM    6  O1  UNL     1      25.809 -15.737   7.943  1.00  0.00    -0.194 OA
ENDROOT
BRANCH   5   7
HETATM    7  C5  UNL     1      28.157 -15.396   7.788  1.00  0.00     0.265 C 
BRANCH   7   8
HETATM    8  N2  UNL     1      28.188 -16.820   7.583  1.00  0.00    -0.077 N 
ATOM      9  H23 UNL     1      27.347 -17.263   7.953  1.00  0.00     0.274 HD
ATOM     10  H22 UNL     1      28.075 -17.052   6.597  1.00  0.00     0.274 HD
ATOM     11  H21 UNL     1      29.029 -17.250   7.968  1.00  0.00     0.274 HD
ENDBRANCH   7   8
ENDBRANCH   5   7
TORSDOF 2
ENDMDL
