MODEL 1
REMARK VINA RESULT: -10.563678931      0.000      0.000
REMARK  6 active torsions:
REMARK  status: ('A' for Active; 'I' for Inactive)
REMARK    1  A    between atoms: C4_4  and  N1_5 
REMARK    2  A    between atoms: N1_5  and  C5_7 
REMARK    3  A    between atoms: C6_10  and  N3_11 
REMARK    4  A    between atoms: N3_11  and  C7_13 
REMARK    5  A    between atoms: C21_35  and  C22_36 
REMARK    6  A    between atoms: N9_40  and  S1_41 
ROOT
HETATM    1  C5  UNL     1      13.949  29.013 115.036  1.00  0.00     0.684 A 
HETATM    2  N2  UNL     1      14.672  27.910 115.205  1.00  0.00    -0.174 N 
ATOM      3  H2  UNL     1      14.707  27.500 116.138  1.00  0.00     0.186 HD
HETATM    4  C6  UNL     1      15.373  27.290 114.203  1.00  0.00     0.150 A 
HETATM    5  C15 UNL     1      15.308  27.867 112.951  1.00  0.00     0.104 A 
HETATM    6  N6  UNL     1      15.965  27.332 111.895  1.00  0.00    -0.361 N 
ATOM      7  H6  UNL     1      16.522  26.486 112.015  1.00  0.00     0.165 HD
HETATM    8  C16 UNL     1      15.883  27.912 110.697  1.00  0.00     0.088 A 
HETATM    9  C17 UNL     1      15.153  29.052 110.457  1.00  0.00     0.019 A 
HETATM   10  C18 UNL     1      14.477  29.621 111.502  1.00  0.00     0.034 A 
HETATM   11  C19 UNL     1      14.567  29.011 112.747  1.00  0.00     0.079 A 
HETATM   12  N7  UNL     1      13.914  29.540 113.808  1.00  0.00    -0.189 N 
ATOM     13  H7  UNL     1      13.364  30.387 113.662  1.00  0.00     0.184 HD
ENDROOT
BRANCH   1  14
HETATM   14  N1  UNL     1      13.294  29.572 116.023  1.00  0.00    -0.192 N 
ATOM     15  H1  UNL     1      13.263  30.589 116.100  1.00  0.00     0.184 HD
BRANCH  14  16
HETATM   16  C4  UNL     1      12.630  28.774 116.982  1.00  0.00     0.050 A 
HETATM   17  C3  UNL     1      11.370  29.172 117.424  1.00  0.00     0.036 A 
HETATM   18  C2  UNL     1      10.700  28.413 118.360  1.00  0.00    -0.059 A 
HETATM   19  C1  UNL     1       9.355  28.825 118.841  1.00  0.00     0.048 C 
HETATM   20  C26 UNL     1      11.289  27.254 118.853  1.00  0.00     0.019 A 
HETATM   21  C21 UNL     1      12.542  26.833 118.431  1.00  0.00    -0.020 A 
HETATM   22  C20 UNL     1      13.179  27.612 117.502  1.00  0.00     0.042 A 
BRANCH  21  23
HETATM   23  C22 UNL     1      13.127  25.611 118.972  1.00  0.00     0.009 A 
HETATM   24  C23 UNL     1      13.849  25.483 120.138  1.00  0.00     0.122 A 
HETATM   25  N8  UNL     1      14.207  24.202 120.275  1.00  0.00    -0.295 N 
HETATM   26  N9  UNL     1      13.753  23.504 119.261  1.00  0.00    -0.192 N 
ATOM     27  H8  UNL     1      14.751  23.824 121.050  1.00  0.00     0.187 HD
HETATM   28  C25 UNL     1      13.090  24.344 118.451  1.00  0.00     0.142 A 
BRANCH  26  29
HETATM   29  S1  UNL     1      13.983  21.789 119.025  1.00  0.00     0.245 S 
HETATM   30  C24 UNL     1      14.417  21.033 120.567  1.00  0.00     0.188 C 
HETATM   31  O1  UNL     1      15.000  21.580 117.965  1.00  0.00    -0.204 OA
HETATM   32  O2  UNL     1      12.677  21.237 118.526  1.00  0.00    -0.204 OA
ENDBRANCH  26  29
ENDBRANCH  21  23
ENDBRANCH  14  16
ENDBRANCH   1  14
BRANCH   4  33
HETATM   33  N3  UNL     1      16.032  26.252 114.441  1.00  0.00    -0.340 N 
ATOM     34  H3  UNL     1      16.964  26.420 114.822  1.00  0.00     0.167 HD
BRANCH  33  35
HETATM   35  C7  UNL     1      15.710  24.908 114.275  1.00  0.00     0.035 A 
HETATM   36  C8  UNL     1      16.390  24.081 113.372  1.00  0.00     0.032 A 
HETATM   37  C9  UNL     1      16.012  22.772 113.239  1.00  0.00     0.034 A 
HETATM   38  C10 UNL     1      14.979  22.224 113.964  1.00  0.00     0.060 A 
HETATM   39  N4  UNL     1      14.411  21.000 114.032  1.00  0.00    -0.344 N 
HETATM   40  C13 UNL     1      14.303  23.027 114.855  1.00  0.00     0.062 A 
HETATM   41  C11 UNL     1      13.411  21.014 114.930  1.00  0.00     0.078 A 
ATOM     42  H4  UNL     1      14.698  20.189 113.484  1.00  0.00     0.167 HD
HETATM   43  C12 UNL     1      12.572  19.812 115.246  1.00  0.00     0.089 C 
HETATM   44  N5  UNL     1      13.338  22.251 115.439  1.00  0.00    -0.344 N 
ATOM     45  H5  UNL     1      12.671  22.564 116.145  1.00  0.00     0.167 HD
HETATM   46  C14 UNL     1      14.665  24.339 115.003  1.00  0.00     0.061 A 
ENDBRANCH  33  35
ENDBRANCH   4  33
TORSDOF 6
ENDMDL
MODEL 2
REMARK VINA RESULT: -10.164402133      1.584      2.055
REMARK  6 active torsions:
REMARK  status: ('A' for Active; 'I' for Inactive)
REMARK    1  A    between atoms: C4_4  and  N1_5 
REMARK    2  A    between atoms: N1_5  and  C5_7 
REMARK    3  A    between atoms: C6_10  and  N3_11 
REMARK    4  A    between atoms: N3_11  and  C7_13 
REMARK    5  A    between atoms: C21_35  and  C22_36 
REMARK    6  A    between atoms: N9_40  and  S1_41 
ROOT
HETATM    1  C5  UNL     1      13.936  28.774 115.582  1.00  0.00     0.684 A 
HETATM    2  N2  UNL     1      14.739  27.714 115.593  1.00  0.00    -0.174 N 
ATOM      3  H2  UNL     1      14.853  27.210 116.472  1.00  0.00     0.186 HD
HETATM    4  C6  UNL     1      15.424  27.258 114.497  1.00  0.00     0.150 A 
HETATM    5  C15 UNL     1      15.252  27.960 113.321  1.00  0.00     0.104 A 
HETATM    6  N6  UNL     1      15.884  27.590 112.181  1.00  0.00    -0.361 N 
ATOM      7  H6  UNL     1      16.502  26.778 112.181  1.00  0.00     0.165 HD
HETATM    8  C16 UNL     1      15.698  28.288 111.061  1.00  0.00     0.088 A 
HETATM    9  C17 UNL     1      14.881  29.392 110.984  1.00  0.00     0.019 A 
HETATM   10  C18 UNL     1      14.228  29.794 112.116  1.00  0.00     0.034 A 
HETATM   11  C19 UNL     1      14.426  29.062 113.280  1.00  0.00     0.079 A 
HETATM   12  N7  UNL     1      13.799  29.425 114.423  1.00  0.00    -0.189 N 
ATOM     13  H7  UNL     1      13.186  30.241 114.398  1.00  0.00     0.184 HD
ENDROOT
BRANCH   1  14
HETATM   14  N1  UNL     1      13.301  29.175 116.655  1.00  0.00    -0.192 N 
ATOM     15  H1  UNL     1      13.560  30.056 117.099  1.00  0.00     0.184 HD
BRANCH  14  16
HETATM   16  C4  UNL     1      12.257  28.393 117.200  1.00  0.00     0.050 A 
HETATM   17  C3  UNL     1      11.115  29.041 117.669  1.00  0.00     0.036 A 
HETATM   18  C2  UNL     1      10.082  28.303 118.208  1.00  0.00    -0.059 A 
HETATM   19  C1  UNL     1       8.858  28.979 118.712  1.00  0.00     0.048 C 
HETATM   20  C26 UNL     1      10.190  26.919 118.276  1.00  0.00     0.019 A 
HETATM   21  C21 UNL     1      11.315  26.248 117.817  1.00  0.00    -0.020 A 
HETATM   22  C20 UNL     1      12.321  27.012 117.289  1.00  0.00     0.042 A 
BRANCH  21  23
HETATM   23  C22 UNL     1      11.390  24.794 117.906  1.00  0.00     0.009 A 
HETATM   24  C23 UNL     1      12.315  24.052 118.607  1.00  0.00     0.122 A 
HETATM   25  N8  UNL     1      12.039  22.756 118.431  1.00  0.00    -0.295 N 
HETATM   26  N9  UNL     1      10.987  22.628 117.657  1.00  0.00    -0.192 N 
ATOM     27  H8  UNL     1      12.566  21.983 118.837  1.00  0.00     0.187 HD
HETATM   28  C25 UNL     1      10.573  23.860 117.323  1.00  0.00     0.142 A 
BRANCH  26  29
HETATM   29  S1  UNL     1      10.271  21.114 117.161  1.00  0.00     0.245 S 
HETATM   30  C24 UNL     1       9.541  21.303 115.559  1.00  0.00     0.188 C 
HETATM   31  O1  UNL     1       9.302  20.678 118.197  1.00  0.00    -0.204 OA
HETATM   32  O2  UNL     1      11.379  20.100 117.111  1.00  0.00    -0.204 OA
ENDBRANCH  26  29
ENDBRANCH  21  23
ENDBRANCH  14  16
ENDBRANCH   1  14
BRANCH   4  33
HETATM   33  N3  UNL     1      16.163  26.250 114.586  1.00  0.00    -0.340 N 
ATOM     34  H3  UNL     1      17.074  26.430 115.009  1.00  0.00     0.167 HD
BRANCH  33  35
HETATM   35  C7  UNL     1      15.953  24.928 114.207  1.00  0.00     0.035 A 
HETATM   36  C8  UNL     1      16.663  24.327 113.160  1.00  0.00     0.032 A 
HETATM   37  C9  UNL     1      16.397  23.028 112.820  1.00  0.00     0.034 A 
HETATM   38  C10 UNL     1      15.447  22.274 113.472  1.00  0.00     0.060 A 
HETATM   39  N4  UNL     1      14.992  21.009 113.349  1.00  0.00    -0.344 N 
HETATM   40  C13 UNL     1      14.743  22.854 114.502  1.00  0.00     0.062 A 
HETATM   41  C11 UNL     1      14.034  20.781 114.264  1.00  0.00     0.078 A 
ATOM     42  H4  UNL     1      15.326  20.328 112.666  1.00  0.00     0.167 HD
HETATM   43  C12 UNL     1      13.318  19.471 114.398  1.00  0.00     0.089 C 
HETATM   44  N5  UNL     1      13.874  21.906 114.975  1.00  0.00    -0.344 N 
ATOM     45  H5  UNL     1      13.214  22.035 115.741  1.00  0.00     0.167 HD
HETATM   46  C14 UNL     1      14.994  24.152 114.857  1.00  0.00     0.061 A 
ENDBRANCH  33  35
ENDBRANCH   4  33
TORSDOF 6
ENDMDL
MODEL 3
REMARK VINA RESULT: -10.090410402      1.659      2.284
REMARK  6 active torsions:
REMARK  status: ('A' for Active; 'I' for Inactive)
REMARK    1  A    between atoms: C4_4  and  N1_5 
REMARK    2  A    between atoms: N1_5  and  C5_7 
REMARK    3  A    between atoms: C6_10  and  N3_11 
REMARK    4  A    between atoms: N3_11  and  C7_13 
REMARK    5  A    between atoms: C21_35  and  C22_36 
REMARK    6  A    between atoms: N9_40  and  S1_41 
ROOT
HETATM    1  C5  UNL     1      14.315  28.434 115.393  1.00  0.00     0.684 A 
HETATM    2  N2  UNL     1      14.876  27.233 115.499  1.00  0.00    -0.174 N 
ATOM      3  H2  UNL     1      14.780  26.737 116.385  1.00  0.00     0.186 HD
HETATM    4  C6  UNL     1      15.575  26.621 114.492  1.00  0.00     0.150 A 
HETATM    5  C15 UNL     1      15.691  27.315 113.305  1.00  0.00     0.104 A 
HETATM    6  N6  UNL     1      16.362  26.797 112.248  1.00  0.00    -0.361 N 
ATOM      7  H6  UNL     1      16.795  25.876 112.321  1.00  0.00     0.165 HD
HETATM    8  C16 UNL     1      16.456  27.491 111.114  1.00  0.00     0.088 A 
HETATM    9  C17 UNL     1      15.899  28.736 110.941  1.00  0.00     0.019 A 
HETATM   10  C18 UNL     1      15.214  29.291 111.987  1.00  0.00     0.034 A 
HETATM   11  C19 UNL     1      15.120  28.562 113.167  1.00  0.00     0.079 A 
HETATM   12  N7  UNL     1      14.451  29.072 114.226  1.00  0.00    -0.189 N 
ATOM     13  H7  UNL     1      14.027  29.995 114.130  1.00  0.00     0.184 HD
ENDROOT
BRANCH   1  14
HETATM   14  N1  UNL     1      13.655  28.982 116.383  1.00  0.00    -0.192 N 
ATOM     15  H1  UNL     1      13.900  29.921 116.699  1.00  0.00     0.184 HD
BRANCH  14  16
HETATM   16  C4  UNL     1      12.604  28.280 117.015  1.00  0.00     0.050 A 
HETATM   17  C3  UNL     1      11.516  29.004 117.500  1.00  0.00     0.036 A 
HETATM   18  C2  UNL     1      10.476  28.345 118.122  1.00  0.00    -0.059 A 
HETATM   19  C1  UNL     1       9.309  29.102 118.644  1.00  0.00     0.048 C 
HETATM   20  C26 UNL     1      10.524  26.962 118.258  1.00  0.00     0.019 A 
HETATM   21  C21 UNL     1      11.595  26.216 117.785  1.00  0.00    -0.020 A 
HETATM   22  C20 UNL     1      12.609  26.903 117.173  1.00  0.00     0.042 A 
BRANCH  21  23
HETATM   23  C22 UNL     1      11.608  24.766 117.947  1.00  0.00     0.009 A 
HETATM   24  C23 UNL     1      12.415  24.033 118.789  1.00  0.00     0.122 A 
HETATM   25  N8  UNL     1      12.118  22.738 118.638  1.00  0.00    -0.295 N 
HETATM   26  N9  UNL     1      11.164  22.603 117.747  1.00  0.00    -0.192 N 
ATOM     27  H8  UNL     1      12.565  21.971 119.140  1.00  0.00     0.187 HD
HETATM   28  C25 UNL     1      10.837  23.829 117.310  1.00  0.00     0.142 A 
BRANCH  26  29
HETATM   29  S1  UNL     1      10.461  21.089 117.234  1.00  0.00     0.245 S 
HETATM   30  C24 UNL     1       9.374  21.375 115.866  1.00  0.00     0.188 C 
HETATM   31  O1  UNL     1       9.787  20.454 118.394  1.00  0.00    -0.204 OA
HETATM   32  O2  UNL     1      11.597  20.197 116.817  1.00  0.00    -0.204 OA
ENDBRANCH  26  29
ENDBRANCH  21  23
ENDBRANCH  14  16
ENDBRANCH   1  14
BRANCH   4  33
HETATM   33  N3  UNL     1      16.076  25.486 114.668  1.00  0.00    -0.340 N 
ATOM     34  H3  UNL     1      17.093  25.479 114.747  1.00  0.00     0.167 HD
BRANCH  33  35
HETATM   35  C7  UNL     1      15.480  24.232 114.775  1.00  0.00     0.035 A 
HETATM   36  C8  UNL     1      14.743  23.847 115.902  1.00  0.00     0.032 A 
HETATM   37  C9  UNL     1      14.198  22.592 115.957  1.00  0.00     0.034 A 
HETATM   38  C10 UNL     1      14.345  21.679 114.939  1.00  0.00     0.060 A 
HETATM   39  N4  UNL     1      13.928  20.410 114.734  1.00  0.00    -0.344 N 
HETATM   40  C13 UNL     1      15.067  22.046 113.826  1.00  0.00     0.062 A 
HETATM   41  C11 UNL     1      14.363  19.978 113.538  1.00  0.00     0.078 A 
ATOM     42  H4  UNL     1      13.368  19.864 115.388  1.00  0.00     0.167 HD
HETATM   43  C12 UNL     1      14.074  18.608 113.003  1.00  0.00     0.089 C 
HETATM   44  N5  UNL     1      15.061  20.973 112.974  1.00  0.00    -0.344 N 
ATOM     45  H5  UNL     1      15.515  20.937 112.061  1.00  0.00     0.167 HD
HETATM   46  C14 UNL     1      15.620  23.296 113.752  1.00  0.00     0.061 A 
ENDBRANCH  33  35
ENDBRANCH   4  33
TORSDOF 6
ENDMDL
MODEL 4
REMARK VINA RESULT: -9.895424958      3.112      6.855
REMARK  6 active torsions:
REMARK  status: ('A' for Active; 'I' for Inactive)
REMARK    1  A    between atoms: C4_4  and  N1_5 
REMARK    2  A    between atoms: N1_5  and  C5_7 
REMARK    3  A    between atoms: C6_10  and  N3_11 
REMARK    4  A    between atoms: N3_11  and  C7_13 
REMARK    5  A    between atoms: C21_35  and  C22_36 
REMARK    6  A    between atoms: N9_40  and  S1_41 
ROOT
HETATM    1  C5  UNL     1      13.163  21.770 117.155  1.00  0.00     0.684 A 
HETATM    2  N2  UNL     1      14.229  22.380 116.645  1.00  0.00    -0.174 N 
ATOM      3  H2  UNL     1      14.632  23.156 117.170  1.00  0.00     0.186 HD
HETATM    4  C6  UNL     1      14.819  22.031 115.458  1.00  0.00     0.150 A 
HETATM    5  C15 UNL     1      14.251  20.979 114.768  1.00  0.00     0.104 A 
HETATM    6  N6  UNL     1      14.759  20.557 113.586  1.00  0.00    -0.361 N 
ATOM      7  H6  UNL     1      15.577  21.020 113.187  1.00  0.00     0.165 HD
HETATM    8  C16 UNL     1      14.190  19.538 112.943  1.00  0.00     0.088 A 
HETATM    9  C17 UNL     1      13.087  18.866 113.416  1.00  0.00     0.019 A 
HETATM   10  C18 UNL     1      12.547  19.266 114.607  1.00  0.00     0.034 A 
HETATM   11  C19 UNL     1      13.146  20.329 115.273  1.00  0.00     0.079 A 
HETATM   12  N7  UNL     1      12.645  20.756 116.454  1.00  0.00    -0.189 N 
ATOM     13  H7  UNL     1      11.826  20.279 116.832  1.00  0.00     0.184 HD
ENDROOT
BRANCH   1  14
HETATM   14  N1  UNL     1      12.631  22.137 118.294  1.00  0.00    -0.192 N 
ATOM     15  H1  UNL     1      12.018  21.497 118.798  1.00  0.00     0.184 HD
BRANCH  14  16
HETATM   16  C4  UNL     1      12.904  23.417 118.830  1.00  0.00     0.050 A 
HETATM   17  C3  UNL     1      13.887  23.532 119.812  1.00  0.00     0.036 A 
HETATM   18  C2  UNL     1      14.173  24.768 120.353  1.00  0.00    -0.059 A 
HETATM   19  C1  UNL     1      15.218  24.907 121.400  1.00  0.00     0.048 C 
HETATM   20  C26 UNL     1      13.479  25.888 119.910  1.00  0.00     0.019 A 
HETATM   21  C21 UNL     1      12.496  25.803 118.934  1.00  0.00    -0.020 A 
HETATM   22  C20 UNL     1      12.237  24.560 118.420  1.00  0.00     0.042 A 
BRANCH  21  23
HETATM   23  C22 UNL     1      11.789  27.002 118.497  1.00  0.00     0.009 A 
HETATM   24  C23 UNL     1      12.303  28.044 117.757  1.00  0.00     0.122 A 
HETATM   25  N8  UNL     1      11.334  28.946 117.569  1.00  0.00    -0.295 N 
HETATM   26  N9  UNL     1      10.229  28.538 118.147  1.00  0.00    -0.192 N 
ATOM     27  H8  UNL     1      11.438  29.820 117.053  1.00  0.00     0.187 HD
HETATM   28  C25 UNL     1      10.483  27.351 118.721  1.00  0.00     0.142 A 
BRANCH  26  29
HETATM   29  S1  UNL     1       8.710  29.399 118.156  1.00  0.00     0.245 S 
HETATM   30  C24 UNL     1       9.018  31.140 118.262  1.00  0.00     0.188 C 
HETATM   31  O1  UNL     1       7.871  28.885 119.267  1.00  0.00    -0.204 OA
HETATM   32  O2  UNL     1       8.014  29.073 116.864  1.00  0.00    -0.204 OA
ENDBRANCH  26  29
ENDBRANCH  21  23
ENDBRANCH  14  16
ENDBRANCH   1  14
BRANCH   4  33
HETATM   33  N3  UNL     1      15.823  22.655 115.043  1.00  0.00    -0.340 N 
ATOM     34  H3  UNL     1      16.707  22.355 115.454  1.00  0.00     0.167 HD
BRANCH  33  35
HETATM   35  C7  UNL     1      15.937  23.689 114.118  1.00  0.00     0.035 A 
HETATM   36  C8  UNL     1      16.200  23.455 112.762  1.00  0.00     0.032 A 
HETATM   37  C9  UNL     1      16.322  24.514 111.905  1.00  0.00     0.034 A 
HETATM   38  C10 UNL     1      16.195  25.820 112.321  1.00  0.00     0.060 A 
HETATM   39  N4  UNL     1      16.265  27.022 111.710  1.00  0.00    -0.344 N 
HETATM   40  C13 UNL     1      15.936  26.063 113.651  1.00  0.00     0.062 A 
HETATM   41  C11 UNL     1      16.058  28.000 112.609  1.00  0.00     0.078 A 
ATOM     42  H4  UNL     1      16.447  27.166 110.717  1.00  0.00     0.167 HD
HETATM   43  C12 UNL     1      16.071  29.457 112.258  1.00  0.00     0.089 C 
HETATM   44  N5  UNL     1      15.856  27.422 113.800  1.00  0.00    -0.344 N 
ATOM     45  H5  UNL     1      15.673  27.913 114.676  1.00  0.00     0.167 HD
HETATM   46  C14 UNL     1      15.811  25.017 114.525  1.00  0.00     0.061 A 
ENDBRANCH  33  35
ENDBRANCH   4  33
TORSDOF 6
ENDMDL
MODEL 5
REMARK VINA RESULT: -9.876053695      2.701      7.185
REMARK  6 active torsions:
REMARK  status: ('A' for Active; 'I' for Inactive)
REMARK    1  A    between atoms: C4_4  and  N1_5 
REMARK    2  A    between atoms: N1_5  and  C5_7 
REMARK    3  A    between atoms: C6_10  and  N3_11 
REMARK    4  A    between atoms: N3_11  and  C7_13 
REMARK    5  A    between atoms: C21_35  and  C22_36 
REMARK    6  A    between atoms: N9_40  and  S1_41 
ROOT
HETATM    1  C5  UNL     1      15.504  23.199 114.534  1.00  0.00     0.684 A 
HETATM    2  N2  UNL     1      14.842  23.256 115.685  1.00  0.00    -0.174 N 
ATOM      3  H2  UNL     1      15.012  24.056 116.295  1.00  0.00     0.186 HD
HETATM    4  C6  UNL     1      13.946  22.308 116.104  1.00  0.00     0.150 A 
HETATM    5  C15 UNL     1      13.736  21.236 115.260  1.00  0.00     0.104 A 
HETATM    6  N6  UNL     1      12.870  20.245 115.582  1.00  0.00    -0.361 N 
ATOM      7  H6  UNL     1      12.358  20.282 116.463  1.00  0.00     0.165 HD
HETATM    8  C16 UNL     1      12.689  19.223 114.746  1.00  0.00     0.088 A 
HETATM    9  C17 UNL     1      13.342  19.105 113.542  1.00  0.00     0.019 A 
HETATM   10  C18 UNL     1      14.224  20.087 113.185  1.00  0.00     0.034 A 
HETATM   11  C19 UNL     1      14.409  21.150 114.060  1.00  0.00     0.079 A 
HETATM   12  N7  UNL     1      15.272  22.144 113.746  1.00  0.00    -0.189 N 
ATOM     13  H7  UNL     1      15.773  22.085 112.860  1.00  0.00     0.184 HD
ENDROOT
BRANCH   1  14
HETATM   14  N1  UNL     1      16.353  24.129 114.173  1.00  0.00    -0.192 N 
ATOM     15  H1  UNL     1      17.333  23.892 114.021  1.00  0.00     0.184 HD
BRANCH  14  16
HETATM   16  C4  UNL     1      15.916  25.462 113.994  1.00  0.00     0.050 A 
HETATM   17  C3  UNL     1      16.386  26.174 112.892  1.00  0.00     0.036 A 
HETATM   18  C2  UNL     1      15.978  27.476 112.692  1.00  0.00    -0.059 A 
HETATM   19  C1  UNL     1      16.470  28.249 111.522  1.00  0.00     0.048 C 
HETATM   20  C26 UNL     1      15.100  28.066 113.594  1.00  0.00     0.019 A 
HETATM   21  C21 UNL     1      14.616  27.381 114.701  1.00  0.00    -0.020 A 
HETATM   22  C20 UNL     1      15.042  26.091 114.867  1.00  0.00     0.042 A 
BRANCH  21  23
HETATM   23  C22 UNL     1      13.696  28.035 115.624  1.00  0.00     0.009 A 
HETATM   24  C23 UNL     1      13.832  29.285 116.186  1.00  0.00     0.122 A 
HETATM   25  N8  UNL     1      12.777  29.511 116.975  1.00  0.00    -0.295 N 
HETATM   26  N9  UNL     1      11.973  28.475 116.949  1.00  0.00    -0.192 N 
ATOM     27  H8  UNL     1      12.621  30.361 117.517  1.00  0.00     0.187 HD
HETATM   28  C25 UNL     1      12.514  27.559 116.130  1.00  0.00     0.142 A 
BRANCH  26  29
HETATM   29  S1  UNL     1      10.472  28.332 117.830  1.00  0.00     0.245 S 
HETATM   30  C24 UNL     1       9.350  27.305 116.923  1.00  0.00     0.188 C 
HETATM   31  O1  UNL     1       9.937  29.691 118.094  1.00  0.00    -0.204 OA
HETATM   32  O2  UNL     1      10.799  27.700 119.154  1.00  0.00    -0.204 OA
ENDBRANCH  26  29
ENDBRANCH  21  23
ENDBRANCH  14  16
ENDBRANCH   1  14
BRANCH   4  33
HETATM   33  N3  UNL     1      13.360  22.433 117.205  1.00  0.00    -0.340 N 
ATOM     34  H3  UNL     1      12.635  21.736 117.380  1.00  0.00     0.167 HD
BRANCH  33  35
HETATM   35  C7  UNL     1      13.530  23.360 118.229  1.00  0.00     0.035 A 
HETATM   36  C8  UNL     1      13.014  24.660 118.156  1.00  0.00     0.032 A 
HETATM   37  C9  UNL     1      13.232  25.533 119.187  1.00  0.00     0.034 A 
HETATM   38  C10 UNL     1      13.946  25.184 120.311  1.00  0.00     0.060 A 
HETATM   39  N4  UNL     1      14.303  25.824 121.445  1.00  0.00    -0.344 N 
HETATM   40  C13 UNL     1      14.458  23.909 120.395  1.00  0.00     0.062 A 
HETATM   41  C11 UNL     1      15.015  24.995 122.229  1.00  0.00     0.078 A 
ATOM     42  H4  UNL     1      14.068  26.791 121.673  1.00  0.00     0.167 HD
HETATM   43  C12 UNL     1      15.566  25.395 123.564  1.00  0.00     0.089 C 
HETATM   44  N5  UNL     1      15.115  23.820 121.593  1.00  0.00    -0.344 N 
ATOM     45  H5  UNL     1      15.600  22.994 121.944  1.00  0.00     0.167 HD
HETATM   46  C14 UNL     1      14.251  23.021 119.374  1.00  0.00     0.061 A 
ENDBRANCH  33  35
ENDBRANCH   4  33
TORSDOF 6
ENDMDL
