MODEL 1
REMARK VINA RESULT: -7.841669661      0.000      0.000
REMARK  4 active torsions:
REMARK  status: ('A' for Active; 'I' for Inactive)
REMARK       I    between atoms: N1_2  and  C2_4 
REMARK    1  A    between atoms: C2_4  and  C3_6 
REMARK    2  A    between atoms: C11_17  and  C12_18 
REMARK    3  A    between atoms: C15_25  and  N4_26 
REMARK       I    between atoms: N4_26  and  C16_28 
REMARK    4  A    between atoms: C16_28  and  C17_30 
ROOT
HETATM    1  C12 UNL     1      10.923  26.703 114.966  1.00  0.00     0.063 A 
HETATM    2  N2  UNL     1      11.136  27.081 116.248  1.00  0.00    -0.350 N 
ATOM      3  H2  UNL     1      12.040  27.417 116.582  1.00  0.00     0.166 HD
HETATM    4  C13 UNL     1      10.055  26.979 117.046  1.00  0.00     0.181 A 
HETATM    5  N3  UNL     1       8.855  26.549 116.662  1.00  0.00    -0.349 N 
ATOM      6  H3  UNL     1       8.099  26.509 117.345  1.00  0.00     0.166 HD
HETATM    7  C14 UNL     1       8.609  26.158 115.363  1.00  0.00     0.080 A 
HETATM    8  C15 UNL     1       7.428  25.702 114.846  1.00  0.00     0.070 A 
HETATM    9  C22 UNL     1       7.441  25.378 113.518  1.00  0.00     0.082 A 
HETATM   10  S2  UNL     1       9.058  25.708 113.041  1.00  0.00    -0.095 SA
HETATM   11  C23 UNL     1       9.668  26.244 114.529  1.00  0.00     0.061 A 
ENDROOT
BRANCH   1  12
HETATM   12  C11 UNL     1      11.969  26.751 113.959  1.00  0.00    -0.006 A 
HETATM   13  C10 UNL     1      12.603  25.612 113.521  1.00  0.00     0.038 A 
HETATM   14  C9  UNL     1      13.594  25.688 112.556  1.00  0.00     0.076 A 
HETATM   15  S1  UNL     1      14.535  24.395 111.842  1.00  0.00     0.208 S 
HETATM   16  C26 UNL     1      14.022  26.848 111.969  1.00  0.00    -0.003 A 
HETATM   17  C7  UNL     1      15.487  25.415 110.782  1.00  0.00     0.076 A 
HETATM   18  O2  UNL     1      15.350  23.770 112.917  1.00  0.00    -0.217 OA
HETATM   19  O3  UNL     1      13.696  23.439 111.082  1.00  0.00    -0.217 OA
HETATM   20  C6  UNL     1      15.060  26.693 110.996  1.00  0.00    -0.003 A 
HETATM   21  C8  UNL     1      16.478  25.066 109.888  1.00  0.00     0.041 A 
HETATM   22  C5  UNL     1      15.718  27.659 110.222  1.00  0.00     0.015 A 
HETATM   23  C4  UNL     1      16.703  27.324 109.332  1.00  0.00     0.018 A 
HETATM   24  C3  UNL     1      17.112  26.025 109.138  1.00  0.00     0.033 A 
HETATM   25  C25 UNL     1      13.368  28.007 112.423  1.00  0.00     0.015 A 
HETATM   26  C24 UNL     1      12.384  27.934 113.380  1.00  0.00     0.014 A 
BRANCH  24  27
HETATM   27  C2  UNL     1      18.167  25.659 108.186  1.00  0.00     0.251 C 
HETATM   28  N1  UNL     1      18.421  26.341 106.978  1.00  0.00    -0.361 N 
HETATM   29  C1  UNL     1      19.486  25.900 106.110  1.00  0.00     0.149 C 
ATOM     30  H1  UNL     1      17.853  27.146 106.718  1.00  0.00     0.162 HD
HETATM   31  O1  UNL     1      18.892  24.658 108.486  1.00  0.00    -0.268 OA
ENDBRANCH  24  27
ENDBRANCH   1  12
BRANCH   8  32
HETATM   32  N4  UNL     1       6.232  25.565 115.629  1.00  0.00    -0.320 N 
HETATM   33  C16 UNL     1       5.794  24.407 116.260  1.00  0.00     0.256 C 
HETATM   34  O4  UNL     1       6.388  23.311 116.229  1.00  0.00    -0.267 OA
ATOM     35  H4  UNL     1       5.649  26.397 115.733  1.00  0.00     0.169 HD
BRANCH  33  36
HETATM   36  C17 UNL     1       4.527  24.401 117.048  1.00  0.00     0.035 A 
HETATM   37  C18 UNL     1       4.393  23.622 118.164  1.00  0.00     0.034 A 
HETATM   38  C19 UNL     1       3.179  23.675 118.861  1.00  0.00     0.088 A 
HETATM   39  N5  UNL     1       2.165  24.443 118.488  1.00  0.00    -0.375 N 
HETATM   40  C20 UNL     1       2.331  25.192 117.391  1.00  0.00     0.088 A 
ATOM     41  H5  UNL     1       1.293  24.462 119.015  1.00  0.00     0.164 HD
HETATM   42  C21 UNL     1       3.484  25.197 116.656  1.00  0.00     0.034 A 
ENDBRANCH  33  36
ENDBRANCH   8  32
TORSDOF 4
ENDMDL
MODEL 2
REMARK VINA RESULT: -7.830910731      6.487     10.456
REMARK  4 active torsions:
REMARK  status: ('A' for Active; 'I' for Inactive)
REMARK       I    between atoms: N1_2  and  C2_4 
REMARK    1  A    between atoms: C2_4  and  C3_6 
REMARK    2  A    between atoms: C11_17  and  C12_18 
REMARK    3  A    between atoms: C15_25  and  N4_26 
REMARK       I    between atoms: N4_26  and  C16_28 
REMARK    4  A    between atoms: C16_28  and  C17_30 
ROOT
HETATM    1  C12 UNL     1      13.671  27.961 111.204  1.00  0.00     0.063 A 
HETATM    2  N2  UNL     1      13.494  28.852 112.207  1.00  0.00    -0.350 N 
ATOM      3  H2  UNL     1      13.289  28.571 113.166  1.00  0.00     0.166 HD
HETATM    4  C13 UNL     1      13.611  30.142 111.833  1.00  0.00     0.181 A 
HETATM    5  N3  UNL     1      13.876  30.562 110.599  1.00  0.00    -0.349 N 
ATOM      6  H3  UNL     1      13.944  31.564 110.418  1.00  0.00     0.166 HD
HETATM    7  C14 UNL     1      14.060  29.678 109.558  1.00  0.00     0.080 A 
HETATM    8  C15 UNL     1      14.338  29.981 108.254  1.00  0.00     0.070 A 
HETATM    9  C22 UNL     1      14.480  28.915 107.408  1.00  0.00     0.082 A 
HETATM   10  S2  UNL     1      14.228  27.557 108.429  1.00  0.00    -0.095 SA
HETATM   11  C23 UNL     1      13.951  28.372 109.889  1.00  0.00     0.061 A 
ENDROOT
BRANCH   1  12
HETATM   12  C11 UNL     1      13.589  26.526 111.418  1.00  0.00    -0.006 A 
HETATM   13  C10 UNL     1      14.523  25.853 112.170  1.00  0.00     0.038 A 
HETATM   14  C9  UNL     1      14.416  24.485 112.361  1.00  0.00     0.076 A 
HETATM   15  S1  UNL     1      15.465  23.416 113.268  1.00  0.00     0.208 S 
HETATM   16  C26 UNL     1      13.418  23.703 111.846  1.00  0.00    -0.003 A 
HETATM   17  C7  UNL     1      14.567  21.946 112.943  1.00  0.00     0.076 A 
HETATM   18  O2  UNL     1      16.803  23.424 112.620  1.00  0.00    -0.217 OA
HETATM   19  O3  UNL     1      15.488  23.741 114.714  1.00  0.00    -0.217 OA
HETATM   20  C6  UNL     1      13.505  22.311 112.168  1.00  0.00    -0.003 A 
HETATM   21  C8  UNL     1      14.822  20.655 113.355  1.00  0.00     0.041 A 
HETATM   22  C5  UNL     1      12.663  21.250 111.807  1.00  0.00     0.015 A 
HETATM   23  C4  UNL     1      12.907  19.965 112.209  1.00  0.00     0.018 A 
HETATM   24  C3  UNL     1      13.987  19.628 112.991  1.00  0.00     0.033 A 
HETATM   25  C25 UNL     1      12.467  24.399 111.079  1.00  0.00     0.015 A 
HETATM   26  C24 UNL     1      12.571  25.757 110.889  1.00  0.00     0.014 A 
BRANCH  24  27
HETATM   27  C2  UNL     1      14.254  18.253 113.426  1.00  0.00     0.251 C 
HETATM   28  N1  UNL     1      15.352  17.480 112.994  1.00  0.00    -0.361 N 
HETATM   29  C1  UNL     1      15.526  16.134 113.483  1.00  0.00     0.149 C 
ATOM     30  H1  UNL     1      16.025  17.873 112.335  1.00  0.00     0.162 HD
HETATM   31  O1  UNL     1      13.432  17.737 114.248  1.00  0.00    -0.268 OA
ENDBRANCH  24  27
ENDBRANCH   1  12
BRANCH   8  32
HETATM   32  N4  UNL     1      14.479  31.328 107.776  1.00  0.00    -0.320 N 
HETATM   33  C16 UNL     1      13.483  32.297 107.753  1.00  0.00     0.256 C 
HETATM   34  O4  UNL     1      12.313  32.125 108.149  1.00  0.00    -0.267 OA
ATOM     35  H4  UNL     1      15.396  31.599 107.421  1.00  0.00     0.169 HD
BRANCH  33  36
HETATM   36  C17 UNL     1      13.764  33.665 107.229  1.00  0.00     0.035 A 
HETATM   37  C18 UNL     1      12.831  34.661 107.319  1.00  0.00     0.034 A 
HETATM   38  C19 UNL     1      13.166  35.924 106.816  1.00  0.00     0.088 A 
HETATM   39  N5  UNL     1      14.341  36.193 106.264  1.00  0.00    -0.375 N 
HETATM   40  C20 UNL     1      15.231  35.195 106.193  1.00  0.00     0.088 A 
ATOM     41  H5  UNL     1      14.559  37.122 105.906  1.00  0.00     0.164 HD
HETATM   42  C21 UNL     1      14.980  33.935 106.661  1.00  0.00     0.034 A 
ENDBRANCH  33  36
ENDBRANCH   8  32
TORSDOF 4
ENDMDL
MODEL 3
REMARK VINA RESULT: -7.458670649      6.864      7.777
REMARK  4 active torsions:
REMARK  status: ('A' for Active; 'I' for Inactive)
REMARK       I    between atoms: N1_2  and  C2_4 
REMARK    1  A    between atoms: C2_4  and  C3_6 
REMARK    2  A    between atoms: C11_17  and  C12_18 
REMARK    3  A    between atoms: C15_25  and  N4_26 
REMARK       I    between atoms: N4_26  and  C16_28 
REMARK    4  A    between atoms: C16_28  and  C17_30 
ROOT
HETATM    1  C12 UNL     1      10.804  32.388 110.092  1.00  0.00     0.063 A 
HETATM    2  N2  UNL     1      11.085  33.593 110.639  1.00  0.00    -0.350 N 
ATOM      3  H2  UNL     1      12.038  33.944 110.742  1.00  0.00     0.166 HD
HETATM    4  C13 UNL     1      10.003  34.291 111.035  1.00  0.00     0.181 A 
HETATM    5  N3  UNL     1       8.742  33.880 110.924  1.00  0.00    -0.349 N 
ATOM      6  H3  UNL     1       7.991  34.485 111.256  1.00  0.00     0.166 HD
HETATM    7  C14 UNL     1       8.425  32.657 110.371  1.00  0.00     0.080 A 
HETATM    8  C15 UNL     1       7.178  32.125 110.199  1.00  0.00     0.070 A 
HETATM    9  C22 UNL     1       7.130  30.887 109.620  1.00  0.00     0.082 A 
HETATM   10  S2  UNL     1       8.782  30.512 109.338  1.00  0.00    -0.095 SA
HETATM   11  C23 UNL     1       9.484  31.924 109.960  1.00  0.00     0.061 A 
ENDROOT
BRANCH   1  12
HETATM   12  C11 UNL     1      11.843  31.498 109.600  1.00  0.00    -0.006 A 
HETATM   13  C10 UNL     1      12.573  30.702 110.450  1.00  0.00     0.038 A 
HETATM   14  C9  UNL     1      13.554  29.859 109.952  1.00  0.00     0.076 A 
HETATM   15  S1  UNL     1      14.604  28.759 110.821  1.00  0.00     0.208 S 
HETATM   16  C26 UNL     1      13.879  29.739 108.628  1.00  0.00    -0.003 A 
HETATM   17  C7  UNL     1      15.464  28.164 109.415  1.00  0.00     0.076 A 
HETATM   18  O2  UNL     1      15.470  29.564 111.723  1.00  0.00    -0.217 OA
HETATM   19  O3  UNL     1      13.851  27.682 111.506  1.00  0.00    -0.217 OA
HETATM   20  C6  UNL     1      14.927  28.808 108.338  1.00  0.00    -0.003 A 
HETATM   21  C8  UNL     1      16.481  27.236 109.337  1.00  0.00     0.041 A 
HETATM   22  C5  UNL     1      15.498  28.452 107.109  1.00  0.00     0.015 A 
HETATM   23  C4  UNL     1      16.508  27.533 107.020  1.00  0.00     0.018 A 
HETATM   24  C3  UNL     1      17.029  26.900 108.125  1.00  0.00     0.033 A 
HETATM   25  C25 UNL     1      13.127  30.557 107.767  1.00  0.00     0.015 A 
HETATM   26  C24 UNL     1      12.153  31.394 108.259  1.00  0.00     0.014 A 
BRANCH  24  27
HETATM   27  C2  UNL     1      18.111  25.914 108.038  1.00  0.00     0.251 C 
HETATM   28  N1  UNL     1      19.232  26.034 107.190  1.00  0.00    -0.361 N 
HETATM   29  C1  UNL     1      20.245  25.006 107.180  1.00  0.00     0.149 C 
ATOM     30  H1  UNL     1      19.328  26.849 106.584  1.00  0.00     0.162 HD
HETATM   31  O1  UNL     1      18.019  24.887 108.783  1.00  0.00    -0.268 OA
ENDBRANCH  24  27
ENDBRANCH   1  12
BRANCH   8  32
HETATM   32  N4  UNL     1       5.976  32.804 110.594  1.00  0.00    -0.320 N 
HETATM   33  C16 UNL     1       5.489  33.988 110.054  1.00  0.00     0.256 C 
HETATM   34  O4  UNL     1       6.039  34.633 109.139  1.00  0.00    -0.267 OA
ATOM     35  H4  UNL     1       5.428  32.377 111.341  1.00  0.00     0.169 HD
BRANCH  33  36
HETATM   36  C17 UNL     1       4.220  34.590 110.557  1.00  0.00     0.035 A 
HETATM   37  C18 UNL     1       3.416  33.913 111.432  1.00  0.00     0.034 A 
HETATM   38  C19 UNL     1       2.245  34.544 111.871  1.00  0.00     0.088 A 
HETATM   39  N5  UNL     1       1.888  35.758 111.479  1.00  0.00    -0.375 N 
HETATM   40  C20 UNL     1       2.698  36.392 110.622  1.00  0.00     0.088 A 
ATOM     41  H5  UNL     1       1.030  36.193 111.816  1.00  0.00     0.164 HD
HETATM   42  C21 UNL     1       3.858  35.845 110.147  1.00  0.00     0.034 A 
ENDBRANCH  33  36
ENDBRANCH   8  32
TORSDOF 4
ENDMDL
MODEL 4
REMARK VINA RESULT: -7.365755680      6.514      8.392
REMARK  4 active torsions:
REMARK  status: ('A' for Active; 'I' for Inactive)
REMARK       I    between atoms: N1_2  and  C2_4 
REMARK    1  A    between atoms: C2_4  and  C3_6 
REMARK    2  A    between atoms: C11_17  and  C12_18 
REMARK    3  A    between atoms: C15_25  and  N4_26 
REMARK       I    between atoms: N4_26  and  C16_28 
REMARK    4  A    between atoms: C16_28  and  C17_30 
ROOT
HETATM    1  C12 UNL     1      14.729  24.020 113.310  1.00  0.00     0.063 A 
HETATM    2  N2  UNL     1      15.574  24.043 114.367  1.00  0.00    -0.350 N 
ATOM      3  H2  UNL     1      16.031  24.896 114.690  1.00  0.00     0.166 HD
HETATM    4  C13 UNL     1      15.761  22.845 114.957  1.00  0.00     0.181 A 
HETATM    5  N3  UNL     1      15.190  21.705 114.577  1.00  0.00    -0.349 N 
ATOM      6  H3  UNL     1      15.398  20.849 115.092  1.00  0.00     0.166 HD
HETATM    7  C14 UNL     1      14.325  21.651 113.504  1.00  0.00     0.080 A 
HETATM    8  C15 UNL     1      13.677  20.550 113.019  1.00  0.00     0.070 A 
HETATM    9  C22 UNL     1      12.866  20.761 111.938  1.00  0.00     0.082 A 
HETATM   10  S2  UNL     1      13.025  22.444 111.640  1.00  0.00    -0.095 SA
HETATM   11  C23 UNL     1      14.110  22.832 112.883  1.00  0.00     0.061 A 
ENDROOT
BRANCH   1  12
HETATM   12  C11 UNL     1      14.400  25.216 112.554  1.00  0.00    -0.006 A 
HETATM   13  C10 UNL     1      15.153  25.618 111.476  1.00  0.00     0.038 A 
HETATM   14  C9  UNL     1      14.812  26.761 110.770  1.00  0.00     0.076 A 
HETATM   15  S1  UNL     1      15.603  27.469 109.377  1.00  0.00     0.208 S 
HETATM   16  C26 UNL     1      13.745  27.566 111.060  1.00  0.00    -0.003 A 
HETATM   17  C7  UNL     1      14.508  28.827 109.206  1.00  0.00     0.076 A 
HETATM   18  O2  UNL     1      16.971  27.885 109.784  1.00  0.00    -0.217 OA
HETATM   19  O3  UNL     1      15.566  26.577 108.193  1.00  0.00    -0.217 OA
HETATM   20  C6  UNL     1      13.581  28.698 110.199  1.00  0.00    -0.003 A 
HETATM   21  C8  UNL     1      14.519  29.850 108.281  1.00  0.00     0.041 A 
HETATM   22  C5  UNL     1      12.610  29.708 110.218  1.00  0.00     0.015 A 
HETATM   23  C4  UNL     1      12.612  30.729 109.306  1.00  0.00     0.018 A 
HETATM   24  C3  UNL     1      13.560  30.832 108.314  1.00  0.00     0.033 A 
HETATM   25  C25 UNL     1      12.981  27.147 112.163  1.00  0.00     0.015 A 
HETATM   26  C24 UNL     1      13.317  26.013 112.865  1.00  0.00     0.014 A 
BRANCH  24  27
HETATM   27  C2  UNL     1      13.568  31.923 107.334  1.00  0.00     0.251 C 
HETATM   28  N1  UNL     1      14.736  32.524 106.821  1.00  0.00    -0.361 N 
HETATM   29  C1  UNL     1      14.636  33.593 105.857  1.00  0.00     0.149 C 
ATOM     30  H1  UNL     1      15.653  32.203 107.132  1.00  0.00     0.162 HD
HETATM   31  O1  UNL     1      12.438  32.343 106.928  1.00  0.00    -0.268 OA
ENDBRANCH  24  27
ENDBRANCH   1  12
BRANCH   8  32
HETATM   32  N4  UNL     1      13.822  19.241 113.591  1.00  0.00    -0.320 N 
HETATM   33  C16 UNL     1      14.466  18.158 113.005  1.00  0.00     0.256 C 
HETATM   34  O4  UNL     1      15.013  18.175 111.884  1.00  0.00    -0.267 OA
ATOM     35  H4  UNL     1      13.414  19.092 114.514  1.00  0.00     0.169 HD
BRANCH  33  36
HETATM   36  C17 UNL     1      14.547  16.846 113.712  1.00  0.00     0.035 A 
HETATM   37  C18 UNL     1      15.681  16.084 113.658  1.00  0.00     0.034 A 
HETATM   38  C19 UNL     1      15.690  14.869 114.354  1.00  0.00     0.088 A 
HETATM   39  N5  UNL     1      14.655  14.432 115.058  1.00  0.00    -0.375 N 
HETATM   40  C20 UNL     1      13.562  15.203 115.089  1.00  0.00     0.088 A 
ATOM     41  H5  UNL     1      14.690  13.543 115.556  1.00  0.00     0.164 HD
HETATM   42  C21 UNL     1      13.474  16.402 114.436  1.00  0.00     0.034 A 
ENDBRANCH  33  36
ENDBRANCH   8  32
TORSDOF 4
ENDMDL
MODEL 5
REMARK VINA RESULT: -7.329020011      6.769      8.611
REMARK  4 active torsions:
REMARK  status: ('A' for Active; 'I' for Inactive)
REMARK       I    between atoms: N1_2  and  C2_4 
REMARK    1  A    between atoms: C2_4  and  C3_6 
REMARK    2  A    between atoms: C11_17  and  C12_18 
REMARK    3  A    between atoms: C15_25  and  N4_26 
REMARK       I    between atoms: N4_26  and  C16_28 
REMARK    4  A    between atoms: C16_28  and  C17_30 
ROOT
HETATM    1  C12 UNL     1      15.090  23.879 112.900  1.00  0.00     0.063 A 
HETATM    2  N2  UNL     1      16.043  23.815 113.858  1.00  0.00    -0.350 N 
ATOM      3  H2  UNL     1      16.640  24.607 114.098  1.00  0.00     0.166 HD
HETATM    4  C13 UNL     1      16.137  22.618 114.470  1.00  0.00     0.181 A 
HETATM    5  N3  UNL     1      15.385  21.555 114.197  1.00  0.00    -0.349 N 
ATOM      6  H3  UNL     1      15.536  20.692 114.720  1.00  0.00     0.166 HD
HETATM    7  C14 UNL     1      14.407  21.591 113.227  1.00  0.00     0.080 A 
HETATM    8  C15 UNL     1      13.571  20.575 112.856  1.00  0.00     0.070 A 
HETATM    9  C22 UNL     1      12.678  20.866 111.861  1.00  0.00     0.082 A 
HETATM   10  S2  UNL     1      13.021  22.506 111.483  1.00  0.00    -0.095 SA
HETATM   11  C23 UNL     1      14.278  22.775 112.587  1.00  0.00     0.061 A 
ENDROOT
BRANCH   1  12
HETATM   12  C11 UNL     1      14.838  25.090 112.137  1.00  0.00    -0.006 A 
HETATM   13  C10 UNL     1      14.096  26.127 112.652  1.00  0.00     0.038 A 
HETATM   14  C9  UNL     1      13.876  27.272 111.903  1.00  0.00     0.076 A 
HETATM   15  S1  UNL     1      12.977  28.712 112.333  1.00  0.00     0.208 S 
HETATM   16  C26 UNL     1      14.352  27.477 110.636  1.00  0.00    -0.003 A 
HETATM   17  C7  UNL     1      13.241  29.560 110.823  1.00  0.00     0.076 A 
HETATM   18  O2  UNL     1      11.555  28.326 112.532  1.00  0.00    -0.217 OA
HETATM   19  O3  UNL     1      13.578  29.429 113.483  1.00  0.00    -0.217 OA
HETATM   20  C6  UNL     1      14.002  28.734 110.048  1.00  0.00    -0.003 A 
HETATM   21  C8  UNL     1      12.802  30.808 110.431  1.00  0.00     0.041 A 
HETATM   22  C5  UNL     1      14.318  29.255 108.786  1.00  0.00     0.015 A 
HETATM   23  C4  UNL     1      13.887  30.491 108.386  1.00  0.00     0.018 A 
HETATM   24  C3  UNL     1      13.121  31.302 109.190  1.00  0.00     0.033 A 
HETATM   25  C25 UNL     1      15.110  26.412 110.119  1.00  0.00     0.015 A 
HETATM   26  C24 UNL     1      15.329  25.275 110.860  1.00  0.00     0.014 A 
BRANCH  24  27
HETATM   27  C2  UNL     1      12.657  32.628 108.768  1.00  0.00     0.251 C 
HETATM   28  N1  UNL     1      13.216  33.367 107.706  1.00  0.00    -0.361 N 
HETATM   29  C1  UNL     1      12.685  34.666 107.369  1.00  0.00     0.149 C 
ATOM     30  H1  UNL     1      13.998  32.984 107.174  1.00  0.00     0.162 HD
HETATM   31  O1  UNL     1      11.682  33.130 109.414  1.00  0.00    -0.268 OA
ENDBRANCH  24  27
ENDBRANCH   1  12
BRANCH   8  32
HETATM   32  N4  UNL     1      13.607  19.272 113.459  1.00  0.00    -0.320 N 
HETATM   33  C16 UNL     1      14.309  18.170 112.986  1.00  0.00     0.256 C 
HETATM   34  O4  UNL     1      15.012  18.161 111.955  1.00  0.00    -0.267 OA
ATOM     35  H4  UNL     1      13.068  19.144 114.316  1.00  0.00     0.169 HD
BRANCH  33  36
HETATM   36  C17 UNL     1      14.262  16.868 113.713  1.00  0.00     0.035 A 
HETATM   37  C18 UNL     1      15.310  15.990 113.658  1.00  0.00     0.034 A 
HETATM   38  C19 UNL     1      15.202  14.792 114.374  1.00  0.00     0.088 A 
HETATM   39  N5  UNL     1      14.137  14.476 115.097  1.00  0.00    -0.375 N 
HETATM   40  C20 UNL     1      13.131  15.357 115.128  1.00  0.00     0.088 A 
ATOM     41  H5  UNL     1      14.086  13.595 115.608  1.00  0.00     0.164 HD
HETATM   42  C21 UNL     1      13.159  16.549 114.457  1.00  0.00     0.034 A 
ENDBRANCH  33  36
ENDBRANCH   8  32
TORSDOF 4
ENDMDL
