MODEL 1
REMARK VINA RESULT: -5.001190488      0.000      0.000
REMARK  3 active torsions:
REMARK  status: ('A' for Active; 'I' for Inactive)
REMARK    1  A    between atoms: C2_7  and  C3_8 
REMARK    2  A    between atoms: C3_8  and  C4_9 
REMARK    3  A    between atoms: C4_9  and  N3_10 
ROOT
HETATM    1  N1  UNL     1      53.082  56.017  66.996  1.00  0.00    -0.233 N 
ATOM      2  H11 UNL     1      52.680  56.954  66.961  1.00  0.00     0.174 HD
ATOM      3  H12 UNL     1      54.063  55.862  66.764  1.00  0.00     0.174 HD
HETATM    4  C1  UNL     1      52.352  55.032  67.331  1.00  0.00     0.702 A 
HETATM    5  N2  UNL     1      52.892  53.777  67.377  1.00  0.00    -0.179 N 
ATOM      6  H2  UNL     1      53.876  53.653  67.140  1.00  0.00     0.185 HD
HETATM    7  C2  UNL     1      52.163  52.703  67.725  1.00  0.00     0.115 A 
HETATM    8  N4  UNL     1      50.872  52.924  68.027  1.00  0.00    -0.177 N 
ATOM      9  H4  UNL     1      50.283  52.136  68.296  1.00  0.00     0.185 HD
HETATM   10  C5  UNL     1      50.328  54.170  67.984  1.00  0.00     0.723 A 
HETATM   11  N5  UNL     1      49.089  54.629  68.238  1.00  0.00    -0.127 N 
ATOM     12  H5  UNL     1      48.309  54.039  68.528  1.00  0.00     0.205 HD
HETATM   13  N6  UNL     1      49.006  55.912  68.069  1.00  0.00    -0.236 N 
ATOM     14  H6  UNL     1      48.180  56.497  68.196  1.00  0.00     0.192 HD
HETATM   15  C6  UNL     1      50.244  56.315  67.688  1.00  0.00     0.377 A 
HETATM   16  O1  UNL     1      50.555  57.495  67.433  1.00  0.00    -0.243 OA
HETATM   17  N7  UNL     1      51.060  55.237  67.636  1.00  0.00     0.079 N 
ENDROOT
BRANCH   7  18
HETATM   18  C3  UNL     1      52.785  51.353  67.764  1.00  0.00     0.104 C 
BRANCH  18  19
HETATM   19  C4  UNL     1      54.245  51.393  68.112  1.00  0.00     0.237 C 
BRANCH  19  20
HETATM   20  N3  UNL     1      54.546  51.299  69.485  1.00  0.00    -0.079 N 
ATOM     21  H33 UNL     1      55.051  52.131  69.788  1.00  0.00     0.274 HD
ATOM     22  H32 UNL     1      53.693  51.394  70.036  1.00  0.00     0.274 HD
ATOM     23  H31 UNL     1      55.054  50.461  69.769  1.00  0.00     0.274 HD
ENDBRANCH  19  20
ENDBRANCH  18  19
ENDBRANCH   7  18
TORSDOF 3
ENDMDL
MODEL 2
REMARK VINA RESULT: -4.752291581      1.130      1.130
REMARK  3 active torsions:
REMARK  status: ('A' for Active; 'I' for Inactive)
REMARK    1  A    between atoms: C2_7  and  C3_8 
REMARK    2  A    between atoms: C3_8  and  C4_9 
REMARK    3  A    between atoms: C4_9  and  N3_10 
ROOT
HETATM    1  N1  UNL     1      52.374  55.700  65.860  1.00  0.00    -0.233 N 
ATOM      2  H11 UNL     1      51.899  56.596  65.750  1.00  0.00     0.174 HD
ATOM      3  H12 UNL     1      53.251  55.511  65.374  1.00  0.00     0.174 HD
HETATM    4  C1  UNL     1      51.866  54.808  66.609  1.00  0.00     0.702 A 
HETATM    5  N2  UNL     1      52.502  53.607  66.755  1.00  0.00    -0.179 N 
ATOM      6  H2  UNL     1      53.378  53.447  66.257  1.00  0.00     0.185 HD
HETATM    7  C2  UNL     1      52.007  52.631  67.536  1.00  0.00     0.115 A 
HETATM    8  N4  UNL     1      50.851  52.896  68.169  1.00  0.00    -0.177 N 
ATOM      9  H4  UNL     1      50.440  52.182  68.771  1.00  0.00     0.185 HD
HETATM   10  C5  UNL     1      50.213  54.088  68.029  1.00  0.00     0.723 A 
HETATM   11  N5  UNL     1      49.070  54.573  68.549  1.00  0.00    -0.127 N 
ATOM     12  H5  UNL     1      48.467  54.054  69.187  1.00  0.00     0.205 HD
HETATM   13  N6  UNL     1      48.829  55.780  68.142  1.00  0.00    -0.236 N 
ATOM     14  H6  UNL     1      48.031  56.365  68.389  1.00  0.00     0.192 HD
HETATM   15  C6  UNL     1      49.857  56.104  67.318  1.00  0.00     0.377 A 
HETATM   16  O1  UNL     1      49.973  57.197  66.729  1.00  0.00    -0.243 OA
HETATM   17  N7  UNL     1      50.711  55.057  67.249  1.00  0.00     0.079 N 
ENDROOT
BRANCH   7  18
HETATM   18  C3  UNL     1      52.728  51.338  67.670  1.00  0.00     0.104 C 
BRANCH  18  19
HETATM   19  C4  UNL     1      53.964  51.267  66.820  1.00  0.00     0.237 C 
BRANCH  19  20
HETATM   20  N3  UNL     1      54.373  49.972  66.447  1.00  0.00    -0.079 N 
ATOM     21  H33 UNL     1      54.980  50.020  65.630  1.00  0.00     0.274 HD
ATOM     22  H32 UNL     1      55.027  49.601  67.137  1.00  0.00     0.274 HD
ATOM     23  H31 UNL     1      53.621  49.302  66.283  1.00  0.00     0.274 HD
ENDBRANCH  19  20
ENDBRANCH  18  19
ENDBRANCH   7  18
TORSDOF 3
ENDMDL
MODEL 3
REMARK VINA RESULT: -4.569996128      2.562      4.903
REMARK  3 active torsions:
REMARK  status: ('A' for Active; 'I' for Inactive)
REMARK    1  A    between atoms: C2_7  and  C3_8 
REMARK    2  A    between atoms: C3_8  and  C4_9 
REMARK    3  A    between atoms: C4_9  and  N3_10 
ROOT
HETATM    1  N1  UNL     1      52.403  54.832  64.638  1.00  0.00    -0.233 N 
ATOM      2  H11 UNL     1      53.196  54.551  64.060  1.00  0.00     0.174 HD
ATOM      3  H12 UNL     1      51.848  55.653  64.399  1.00  0.00     0.174 HD
HETATM    4  C1  UNL     1      52.106  54.150  65.669  1.00  0.00     0.702 A 
HETATM    5  N2  UNL     1      51.045  54.526  66.443  1.00  0.00    -0.179 N 
ATOM      6  H2  UNL     1      50.507  55.351  66.179  1.00  0.00     0.185 HD
HETATM    7  C2  UNL     1      50.689  53.839  67.543  1.00  0.00     0.115 A 
HETATM    8  N4  UNL     1      51.431  52.760  67.844  1.00  0.00    -0.177 N 
ATOM      9  H4  UNL     1      51.196  52.211  68.671  1.00  0.00     0.185 HD
HETATM   10  C5  UNL     1      52.488  52.379  67.078  1.00  0.00     0.723 A 
HETATM   11  N5  UNL     1      53.361  51.359  67.177  1.00  0.00    -0.127 N 
ATOM     12  H5  UNL     1      53.341  50.660  67.919  1.00  0.00     0.205 HD
HETATM   13  N6  UNL     1      54.228  51.372  66.214  1.00  0.00    -0.236 N 
ATOM     14  H6  UNL     1      54.990  50.711  66.063  1.00  0.00     0.192 HD
HETATM   15  C6  UNL     1      53.914  52.446  65.447  1.00  0.00     0.377 A 
HETATM   16  O1  UNL     1      54.532  52.786  64.419  1.00  0.00    -0.243 OA
HETATM   17  N7  UNL     1      52.838  53.068  65.984  1.00  0.00     0.079 N 
ENDROOT
BRANCH   7  18
HETATM   18  C3  UNL     1      49.528  54.279  68.361  1.00  0.00     0.104 C 
BRANCH  18  19
HETATM   19  C4  UNL     1      48.959  55.593  67.908  1.00  0.00     0.237 C 
BRANCH  19  20
HETATM   20  N3  UNL     1      47.566  55.738  68.061  1.00  0.00    -0.079 N 
ATOM     21  H33 UNL     1      47.079  55.034  67.507  1.00  0.00     0.274 HD
ATOM     22  H32 UNL     1      47.287  55.455  69.000  1.00  0.00     0.274 HD
ATOM     23  H31 UNL     1      47.194  56.664  67.850  1.00  0.00     0.274 HD
ENDBRANCH  19  20
ENDBRANCH  18  19
ENDBRANCH   7  18
TORSDOF 3
ENDMDL
MODEL 4
REMARK VINA RESULT: -4.543482688      2.630      4.788
REMARK  3 active torsions:
REMARK  status: ('A' for Active; 'I' for Inactive)
REMARK    1  A    between atoms: C2_7  and  C3_8 
REMARK    2  A    between atoms: C3_8  and  C4_9 
REMARK    3  A    between atoms: C4_9  and  N3_10 
ROOT
HETATM    1  N1  UNL     1      53.398  51.885  66.763  1.00  0.00    -0.233 N 
ATOM      2  H11 UNL     1      54.163  51.767  66.098  1.00  0.00     0.174 HD
ATOM      3  H12 UNL     1      53.283  51.240  67.545  1.00  0.00     0.174 HD
HETATM    4  C1  UNL     1      52.579  52.844  66.613  1.00  0.00     0.702 A 
HETATM    5  N2  UNL     1      51.553  53.001  67.502  1.00  0.00    -0.179 N 
ATOM      6  H2  UNL     1      51.463  52.342  68.275  1.00  0.00     0.185 HD
HETATM    7  C2  UNL     1      50.660  53.999  67.388  1.00  0.00     0.115 A 
HETATM    8  N4  UNL     1      50.826  54.839  66.352  1.00  0.00    -0.177 N 
ATOM      9  H4  UNL     1      50.169  55.610  66.228  1.00  0.00     0.185 HD
HETATM   10  C5  UNL     1      51.844  54.690  65.463  1.00  0.00     0.723 A 
HETATM   11  N5  UNL     1      52.206  55.388  64.371  1.00  0.00    -0.127 N 
ATOM     12  H5  UNL     1      51.711  56.212  64.029  1.00  0.00     0.205 HD
HETATM   13  N6  UNL     1      53.260  54.888  63.806  1.00  0.00    -0.236 N 
ATOM     14  H6  UNL     1      53.731  55.231  62.969  1.00  0.00     0.192 HD
HETATM   15  C6  UNL     1      53.607  53.814  64.558  1.00  0.00     0.377 A 
HETATM   16  O1  UNL     1      54.582  53.072  64.323  1.00  0.00    -0.243 OA
HETATM   17  N7  UNL     1      52.731  53.693  65.582  1.00  0.00     0.079 N 
ENDROOT
BRANCH   7  18
HETATM   18  C3  UNL     1      49.557  54.138  68.376  1.00  0.00     0.104 C 
BRANCH  18  19
HETATM   19  C4  UNL     1      49.024  55.539  68.463  1.00  0.00     0.237 C 
BRANCH  19  20
HETATM   20  N3  UNL     1      47.684  55.706  68.060  1.00  0.00    -0.079 N 
ATOM     21  H33 UNL     1      47.619  56.453  67.369  1.00  0.00     0.274 HD
ATOM     22  H32 UNL     1      47.388  54.910  67.495  1.00  0.00     0.274 HD
ATOM     23  H31 UNL     1      47.015  55.869  68.812  1.00  0.00     0.274 HD
ENDBRANCH  19  20
ENDBRANCH  18  19
ENDBRANCH   7  18
TORSDOF 3
ENDMDL
MODEL 5
REMARK VINA RESULT: -4.451264278      2.509      5.009
REMARK  3 active torsions:
REMARK  status: ('A' for Active; 'I' for Inactive)
REMARK    1  A    between atoms: C2_7  and  C3_8 
REMARK    2  A    between atoms: C3_8  and  C4_9 
REMARK    3  A    between atoms: C4_9  and  N3_10 
ROOT
HETATM    1  N1  UNL     1      53.244  55.600  66.893  1.00  0.00    -0.233 N 
ATOM      2  H11 UNL     1      53.306  54.606  66.674  1.00  0.00     0.174 HD
ATOM      3  H12 UNL     1      54.013  56.232  66.672  1.00  0.00     0.174 HD
HETATM    4  C1  UNL     1      52.196  56.055  67.450  1.00  0.00     0.702 A 
HETATM    5  N2  UNL     1      52.113  57.388  67.744  1.00  0.00    -0.179 N 
ATOM      6  H2  UNL     1      52.898  57.996  67.511  1.00  0.00     0.185 HD
HETATM    7  C2  UNL     1      51.027  57.919  68.332  1.00  0.00     0.115 A 
HETATM    8  N4  UNL     1      50.023  57.073  68.617  1.00  0.00    -0.177 N 
ATOM      9  H4  UNL     1      49.180  57.435  69.064  1.00  0.00     0.185 HD
HETATM   10  C5  UNL     1      50.097  55.747  68.326  1.00  0.00     0.723 A 
HETATM   11  N5  UNL     1      49.239  54.727  68.512  1.00  0.00    -0.127 N 
ATOM     12  H5  UNL     1      48.319  54.825  68.942  1.00  0.00     0.205 HD
HETATM   13  N6  UNL     1      49.723  53.605  68.079  1.00  0.00    -0.236 N 
ATOM     14  H6  UNL     1      49.273  52.690  68.104  1.00  0.00     0.192 HD
HETATM   15  C6  UNL     1      50.953  53.898  67.587  1.00  0.00     0.377 A 
HETATM   16  O1  UNL     1      51.728  53.064  67.079  1.00  0.00    -0.243 OA
HETATM   17  N7  UNL     1      51.182  55.223  67.741  1.00  0.00     0.079 N 
ENDROOT
BRANCH   7  18
HETATM   18  C3  UNL     1      50.974  59.373  68.637  1.00  0.00     0.104 C 
BRANCH  18  19
HETATM   19  C4  UNL     1      50.825  59.657  70.104  1.00  0.00     0.237 C 
BRANCH  19  20
HETATM   20  N3  UNL     1      49.510  59.906  70.545  1.00  0.00    -0.079 N 
ATOM     21  H33 UNL     1      48.990  59.031  70.599  1.00  0.00     0.274 HD
ATOM     22  H32 UNL     1      49.518  60.173  71.530  1.00  0.00     0.274 HD
ATOM     23  H31 UNL     1      48.985  60.590  70.002  1.00  0.00     0.274 HD
ENDBRANCH  19  20
ENDBRANCH  18  19
ENDBRANCH   7  18
TORSDOF 3
ENDMDL
