MODEL 1
REMARK VINA RESULT: -7.992088240      0.000      0.000
REMARK  16 active torsions:
REMARK  status: ('A' for Active; 'I' for Inactive)
REMARK    1  A    between atoms: N1_1  and  C1_5 
REMARK    2  A    between atoms: C2_7  and  S1_8 
REMARK    3  A    between atoms: S1_8  and  S2_9 
REMARK    4  A    between atoms: S2_9  and  C3_10 
REMARK    5  A    between atoms: C3_10  and  C4_11 
REMARK    6  A    between atoms: C5_15  and  O2_16 
REMARK    7  A    between atoms: O2_16  and  C6_17 
REMARK    8  A    between atoms: C8_19  and  O3_20 
REMARK    9  A    between atoms: C8_19  and  C9_22 
REMARK   10  A    between atoms: C9_22  and  O4_23 
REMARK   11  A    between atoms: C10_25  and  O5_26 
REMARK   12  A    between atoms: C11_28  and  C12_29 
REMARK   13  A    between atoms: C12_29  and  O6_30 
REMARK   14  A    between atoms: C16_40  and  O9_41 
REMARK   15  A    between atoms: C17_43  and  N4_44 
REMARK   16  A    between atoms: C18_48  and  O10_49 
ROOT
HETATM    1  C4  UNL     1     -29.379 -19.909   4.677  1.00  0.00     0.334 C 
HETATM    2  N2  UNL     1     -29.868 -18.784   3.921  1.00  0.00    -0.020 N 
ATOM      3  H21 UNL     1     -29.151 -18.323   3.360  1.00  0.00     0.283 HD
ATOM      4  H22 UNL     1     -30.108 -17.976   4.494  1.00  0.00     0.283 HD
HETATM    5  C5  UNL     1     -30.996 -19.307   3.129  1.00  0.00     0.359 C 
HETATM    6  C13 UNL     1     -32.133 -19.494   4.083  1.00  0.00     0.272 C 
HETATM    7  N3  UNL     1     -32.710 -20.839   4.046  1.00  0.00    -0.062 N 
ATOM      8  H31 UNL     1     -32.248 -21.602   3.550  1.00  0.00     0.277 HD
ATOM      9  H32 UNL     1     -33.555 -21.040   3.510  1.00  0.00     0.277 HD
HETATM   10  C14 UNL     1     -32.732 -20.783   5.511  1.00  0.00     0.267 C 
HETATM   11  C15 UNL     1     -31.571 -19.807   5.451  1.00  0.00     0.184 C 
HETATM   12  O8  UNL     1     -30.394 -20.509   5.375  1.00  0.00    -0.349 OA
ENDROOT
BRANCH   1  13
HETATM   13  C3  UNL     1     -28.250 -19.596   5.603  1.00  0.00     0.147 C 
BRANCH  13  14
HETATM   14  S2  UNL     1     -27.862 -17.817   5.370  1.00  0.00    -0.091 SA
BRANCH  14  15
HETATM   15  S1  UNL     1     -25.731 -17.574   5.226  1.00  0.00    -0.062 SA
BRANCH  15  16
HETATM   16  C2  UNL     1     -25.000 -18.948   6.188  1.00  0.00     0.227 C 
HETATM   17  O1  UNL     1     -24.748 -18.456   7.463  1.00  0.00    -0.338 OA
HETATM   18  C1  UNL     1     -23.811 -19.176   8.161  1.00  0.00     0.350 C 
HETATM   19  C18 UNL     1     -22.456 -18.957   7.527  1.00  0.00     0.207 C 
HETATM   20  C17 UNL     1     -22.496 -18.932   6.035  1.00  0.00     0.248 C 
HETATM   21  C16 UNL     1     -23.787 -19.411   5.453  1.00  0.00     0.191 C 
BRANCH  18  22
HETATM   22  N1  UNL     1     -23.749 -18.624   9.507  1.00  0.00    -0.050 N 
ATOM     23  H13 UNL     1     -24.323 -17.788   9.620  1.00  0.00     0.277 HD
ATOM     24  H12 UNL     1     -24.222 -19.206  10.197  1.00  0.00     0.277 HD
ATOM     25  H11 UNL     1     -22.766 -18.465   9.728  1.00  0.00     0.277 HD
ENDBRANCH  18  22
BRANCH  19  26
HETATM   26  O10 UNL     1     -21.599 -19.971   8.011  1.00  0.00    -0.389 OA
ATOM     27  H10 UNL     1     -20.827 -19.974   7.458  1.00  0.00     0.210 HD
ENDBRANCH  19  26
BRANCH  20  28
HETATM   28  N4  UNL     1     -21.447 -19.838   5.549  1.00  0.00    -0.070 N 
ATOM     29  H43 UNL     1     -20.645 -19.896   6.177  1.00  0.00     0.274 HD
ATOM     30  H42 UNL     1     -21.716 -20.821   5.590  1.00  0.00     0.274 HD
ATOM     31  H41 UNL     1     -21.200 -19.528   4.610  1.00  0.00     0.274 HD
ENDBRANCH  20  28
BRANCH  21  32
HETATM   32  O9  UNL     1     -23.775 -20.821   5.360  1.00  0.00    -0.390 OA
ATOM     33  H9  UNL     1     -22.894 -21.134   5.191  1.00  0.00     0.210 HD
ENDBRANCH  21  32
ENDBRANCH  15  16
ENDBRANCH  14  15
ENDBRANCH  13  14
ENDBRANCH   1  13
BRANCH   5  34
HETATM   34  O2  UNL     1     -31.303 -18.435   2.088  1.00  0.00    -0.327 OA
BRANCH  34  35
HETATM   35  C6  UNL     1     -32.514 -18.848   1.541  1.00  0.00     0.266 C 
HETATM   36  C7  UNL     1     -32.322 -19.511   0.212  1.00  0.00     0.103 C 
HETATM   37  C8  UNL     1     -32.675 -18.646  -0.966  1.00  0.00     0.111 C 
HETATM   38  C10 UNL     1     -32.533 -17.181  -0.714  1.00  0.00     0.185 C 
HETATM   39  C11 UNL     1     -32.873 -16.739   0.667  1.00  0.00     0.180 C 
HETATM   40  O7  UNL     1     -33.346 -17.734   1.483  1.00  0.00    -0.351 OA
BRANCH  37  41
HETATM   41  O3  UNL     1     -31.749 -18.964  -1.989  1.00  0.00    -0.385 OA
ATOM     42  H3  UNL     1     -32.228 -19.464  -2.640  1.00  0.00     0.210 HD
ENDBRANCH  37  41
BRANCH  37  43
HETATM   43  C9  UNL     1     -34.036 -19.011  -1.538  1.00  0.00     0.204 C 
BRANCH  43  44
HETATM   44  O4  UNL     1     -34.834 -19.668  -0.621  1.00  0.00    -0.398 OA
ATOM     45  H4  UNL     1     -35.747 -19.410  -0.684  1.00  0.00     0.209 HD
ENDBRANCH  43  44
ENDBRANCH  37  43
BRANCH  38  46
HETATM   46  O5  UNL     1     -31.223 -16.733  -0.997  1.00  0.00    -0.390 OA
ATOM     47  H5  UNL     1     -30.842 -16.282  -0.252  1.00  0.00     0.210 HD
ENDBRANCH  38  46
BRANCH  39  48
HETATM   48  C12 UNL     1     -33.945 -15.648   0.631  1.00  0.00     0.198 C 
BRANCH  48  49
HETATM   49  O6  UNL     1     -33.793 -14.813   1.744  1.00  0.00    -0.398 OA
ATOM     50  H6  UNL     1     -34.567 -14.875   2.291  1.00  0.00     0.209 HD
ENDBRANCH  48  49
ENDBRANCH  39  48
ENDBRANCH  34  35
ENDBRANCH   5  34
TORSDOF 16
ENDMDL
MODEL 2
REMARK VINA RESULT: -7.711110762      1.234      1.766
REMARK  16 active torsions:
REMARK  status: ('A' for Active; 'I' for Inactive)
REMARK    1  A    between atoms: N1_1  and  C1_5 
REMARK    2  A    between atoms: C2_7  and  S1_8 
REMARK    3  A    between atoms: S1_8  and  S2_9 
REMARK    4  A    between atoms: S2_9  and  C3_10 
REMARK    5  A    between atoms: C3_10  and  C4_11 
REMARK    6  A    between atoms: C5_15  and  O2_16 
REMARK    7  A    between atoms: O2_16  and  C6_17 
REMARK    8  A    between atoms: C8_19  and  O3_20 
REMARK    9  A    between atoms: C8_19  and  C9_22 
REMARK   10  A    between atoms: C9_22  and  O4_23 
REMARK   11  A    between atoms: C10_25  and  O5_26 
REMARK   12  A    between atoms: C11_28  and  C12_29 
REMARK   13  A    between atoms: C12_29  and  O6_30 
REMARK   14  A    between atoms: C16_40  and  O9_41 
REMARK   15  A    between atoms: C17_43  and  N4_44 
REMARK   16  A    between atoms: C18_48  and  O10_49 
ROOT
HETATM    1  C4  UNL     1     -28.791 -19.931   5.036  1.00  0.00     0.334 C 
HETATM    2  N2  UNL     1     -29.236 -18.768   4.311  1.00  0.00    -0.020 N 
ATOM      3  H21 UNL     1     -28.505 -18.324   3.757  1.00  0.00     0.283 HD
ATOM      4  H22 UNL     1     -29.439 -17.965   4.906  1.00  0.00     0.283 HD
HETATM    5  C5  UNL     1     -30.391 -19.224   3.516  1.00  0.00     0.359 C 
HETATM    6  C13 UNL     1     -31.529 -19.387   4.473  1.00  0.00     0.272 C 
HETATM    7  N3  UNL     1     -32.162 -20.705   4.408  1.00  0.00    -0.062 N 
ATOM      8  H31 UNL     1     -31.736 -21.473   3.890  1.00  0.00     0.277 HD
ATOM      9  H32 UNL     1     -33.018 -20.857   3.873  1.00  0.00     0.277 HD
HETATM   10  C14 UNL     1     -32.172 -20.684   5.874  1.00  0.00     0.267 C 
HETATM   11  C15 UNL     1     -30.971 -19.756   5.829  1.00  0.00     0.184 C 
HETATM   12  O8  UNL     1     -29.825 -20.505   5.727  1.00  0.00    -0.349 OA
ENDROOT
BRANCH   1  13
HETATM   13  C3  UNL     1     -27.643 -19.688   5.961  1.00  0.00     0.147 C 
BRANCH  13  14
HETATM   14  S2  UNL     1     -26.933 -18.061   5.495  1.00  0.00    -0.091 SA
BRANCH  14  15
HETATM   15  S1  UNL     1     -24.788 -18.199   5.509  1.00  0.00    -0.062 SA
BRANCH  15  16
HETATM   16  C2  UNL     1     -24.362 -19.300   6.907  1.00  0.00     0.227 C 
HETATM   17  O1  UNL     1     -24.428 -18.528   8.061  1.00  0.00    -0.338 OA
HETATM   18  C1  UNL     1     -23.718 -19.044   9.117  1.00  0.00     0.350 C 
HETATM   19  C18 UNL     1     -22.242 -18.929   8.813  1.00  0.00     0.207 C 
HETATM   20  C17 UNL     1     -21.901 -19.240   7.393  1.00  0.00     0.248 C 
HETATM   21  C16 UNL     1     -23.016 -19.877   6.626  1.00  0.00     0.191 C 
BRANCH  18  22
HETATM   22  N1  UNL     1     -23.985 -18.203  10.275  1.00  0.00    -0.050 N 
ATOM     23  H13 UNL     1     -23.190 -17.619  10.534  1.00  0.00     0.277 HD
ATOM     24  H12 UNL     1     -24.644 -17.451  10.077  1.00  0.00     0.277 HD
ATOM     25  H11 UNL     1     -24.293 -18.813  11.032  1.00  0.00     0.277 HD
ENDBRANCH  18  22
BRANCH  19  26
HETATM   26  O10 UNL     1     -21.563 -19.782   9.713  1.00  0.00    -0.389 OA
ATOM     27  H10 UNL     1     -21.287 -20.546   9.221  1.00  0.00     0.210 HD
ENDBRANCH  19  26
BRANCH  20  28
HETATM   28  N4  UNL     1     -20.789 -20.198   7.404  1.00  0.00    -0.070 N 
ATOM     29  H43 UNL     1     -21.097 -21.170   7.453  1.00  0.00     0.274 HD
ATOM     30  H42 UNL     1     -20.304 -20.261   6.509  1.00  0.00     0.274 HD
ATOM     31  H41 UNL     1     -20.176 -19.932   8.175  1.00  0.00     0.274 HD
ENDBRANCH  20  28
BRANCH  21  32
HETATM   32  O9  UNL     1     -23.018 -21.271   6.857  1.00  0.00    -0.390 OA
ATOM     33  H9  UNL     1     -23.867 -21.640   6.644  1.00  0.00     0.210 HD
ENDBRANCH  21  32
ENDBRANCH  15  16
ENDBRANCH  14  15
ENDBRANCH  13  14
ENDBRANCH   1  13
BRANCH   5  34
HETATM   34  O2  UNL     1     -30.668 -18.314   2.499  1.00  0.00    -0.327 OA
BRANCH  34  35
HETATM   35  C6  UNL     1     -31.160 -19.036   1.416  1.00  0.00     0.266 C 
HETATM   36  C7  UNL     1     -30.883 -18.343   0.117  1.00  0.00     0.103 C 
HETATM   37  C8  UNL     1     -32.072 -17.636  -0.472  1.00  0.00     0.111 C 
HETATM   38  C10 UNL     1     -33.082 -17.192   0.535  1.00  0.00     0.185 C 
HETATM   39  C11 UNL     1     -33.253 -18.098   1.705  1.00  0.00     0.180 C 
HETATM   40  O7  UNL     1     -32.516 -19.253   1.642  1.00  0.00    -0.351 OA
BRANCH  37  41
HETATM   41  O3  UNL     1     -31.578 -16.460  -1.085  1.00  0.00    -0.385 OA
ATOM     42  H3  UNL     1     -32.305 -15.850  -1.123  1.00  0.00     0.210 HD
ENDBRANCH  37  41
BRANCH  37  43
HETATM   43  C9  UNL     1     -32.693 -18.440  -1.604  1.00  0.00     0.204 C 
BRANCH  43  44
HETATM   44  O4  UNL     1     -31.778 -19.266  -2.229  1.00  0.00    -0.398 OA
ATOM     45  H4  UNL     1     -32.169 -19.779  -2.926  1.00  0.00     0.209 HD
ENDBRANCH  43  44
ENDBRANCH  37  43
BRANCH  38  46
HETATM   46  O5  UNL     1     -32.780 -15.904   1.033  1.00  0.00    -0.390 OA
ATOM     47  H5  UNL     1     -31.984 -15.559   0.645  1.00  0.00     0.210 HD
ENDBRANCH  38  46
BRANCH  39  48
HETATM   48  C12 UNL     1     -34.718 -18.514   1.847  1.00  0.00     0.198 C 
BRANCH  48  49
HETATM   49  O6  UNL     1     -34.794 -19.694   2.597  1.00  0.00    -0.398 OA
ATOM     50  H6  UNL     1     -34.671 -19.490   3.516  1.00  0.00     0.209 HD
ENDBRANCH  48  49
ENDBRANCH  39  48
ENDBRANCH  34  35
ENDBRANCH   5  34
TORSDOF 16
ENDMDL
MODEL 3
REMARK VINA RESULT: -7.360693017      1.304      2.600
REMARK  16 active torsions:
REMARK  status: ('A' for Active; 'I' for Inactive)
REMARK    1  A    between atoms: N1_1  and  C1_5 
REMARK    2  A    between atoms: C2_7  and  S1_8 
REMARK    3  A    between atoms: S1_8  and  S2_9 
REMARK    4  A    between atoms: S2_9  and  C3_10 
REMARK    5  A    between atoms: C3_10  and  C4_11 
REMARK    6  A    between atoms: C5_15  and  O2_16 
REMARK    7  A    between atoms: O2_16  and  C6_17 
REMARK    8  A    between atoms: C8_19  and  O3_20 
REMARK    9  A    between atoms: C8_19  and  C9_22 
REMARK   10  A    between atoms: C9_22  and  O4_23 
REMARK   11  A    between atoms: C10_25  and  O5_26 
REMARK   12  A    between atoms: C11_28  and  C12_29 
REMARK   13  A    between atoms: C12_29  and  O6_30 
REMARK   14  A    between atoms: C16_40  and  O9_41 
REMARK   15  A    between atoms: C17_43  and  N4_44 
REMARK   16  A    between atoms: C18_48  and  O10_49 
ROOT
HETATM    1  C4  UNL     1     -29.993 -19.059   3.483  1.00  0.00     0.334 C 
HETATM    2  N2  UNL     1     -30.978 -18.605   2.534  1.00  0.00    -0.020 N 
ATOM      3  H21 UNL     1     -30.578 -18.237   1.671  1.00  0.00     0.283 HD
ATOM      4  H22 UNL     1     -31.458 -17.751   2.817  1.00  0.00     0.283 HD
HETATM    5  C5  UNL     1     -31.880 -19.753   2.329  1.00  0.00     0.359 C 
HETATM    6  C13 UNL     1     -32.727 -19.852   3.558  1.00  0.00     0.272 C 
HETATM    7  N3  UNL     1     -32.710 -21.181   4.173  1.00  0.00    -0.062 N 
ATOM      8  H31 UNL     1     -32.039 -21.892   3.882  1.00  0.00     0.277 HD
ATOM      9  H32 UNL     1     -33.456 -21.855   4.000  1.00  0.00     0.277 HD
HETATM   10  C14 UNL     1     -32.586 -20.494   5.463  1.00  0.00     0.267 C 
HETATM   11  C15 UNL     1     -31.935 -19.332   4.736  1.00  0.00     0.184 C 
HETATM   12  O8  UNL     1     -30.591 -19.578   4.601  1.00  0.00    -0.349 OA
ENDROOT
BRANCH   1  13
HETATM   13  C3  UNL     1     -28.990 -18.027   3.884  1.00  0.00     0.147 C 
BRANCH  13  14
HETATM   14  S2  UNL     1     -28.157 -18.665   5.390  1.00  0.00    -0.091 SA
BRANCH  14  15
HETATM   15  S1  UNL     1     -26.159 -17.877   5.476  1.00  0.00    -0.062 SA
BRANCH  15  16
HETATM   16  C2  UNL     1     -25.150 -19.151   6.318  1.00  0.00     0.227 C 
HETATM   17  O1  UNL     1     -24.842 -18.650   7.578  1.00  0.00    -0.338 OA
HETATM   18  C1  UNL     1     -23.748 -19.242   8.159  1.00  0.00     0.350 C 
HETATM   19  C18 UNL     1     -22.508 -18.820   7.404  1.00  0.00     0.207 C 
HETATM   20  C17 UNL     1     -22.700 -18.775   5.924  1.00  0.00     0.248 C 
HETATM   21  C16 UNL     1     -23.964 -19.423   5.455  1.00  0.00     0.191 C 
BRANCH  18  22
HETATM   22  N1  UNL     1     -23.630 -18.711   9.509  1.00  0.00    -0.050 N 
ATOM     23  H13 UNL     1     -24.531 -18.599   9.973  1.00  0.00     0.277 HD
ATOM     24  H12 UNL     1     -23.224 -19.378  10.165  1.00  0.00     0.277 HD
ATOM     25  H11 UNL     1     -23.102 -17.840   9.450  1.00  0.00     0.277 HD
ENDBRANCH  18  22
BRANCH  19  26
HETATM   26  O10 UNL     1     -21.473 -19.710   7.770  1.00  0.00    -0.389 OA
ATOM     27  H10 UNL     1     -20.724 -19.510   7.222  1.00  0.00     0.210 HD
ENDBRANCH  19  26
BRANCH  20  28
HETATM   28  N4  UNL     1     -21.590 -19.514   5.310  1.00  0.00    -0.070 N 
ATOM     29  H43 UNL     1     -21.895 -20.327   4.776  1.00  0.00     0.274 HD
ATOM     30  H42 UNL     1     -21.150 -19.010   4.540  1.00  0.00     0.274 HD
ATOM     31  H41 UNL     1     -20.940 -19.747   6.060  1.00  0.00     0.274 HD
ENDBRANCH  20  28
BRANCH  21  32
HETATM   32  O9  UNL     1     -23.764 -20.814   5.316  1.00  0.00    -0.390 OA
ATOM     33  H9  UNL     1     -23.703 -21.227   6.170  1.00  0.00     0.210 HD
ENDBRANCH  21  32
ENDBRANCH  15  16
ENDBRANCH  14  15
ENDBRANCH  13  14
ENDBRANCH   1  13
BRANCH   5  34
HETATM   34  O2  UNL     1     -32.630 -19.579   1.170  1.00  0.00    -0.327 OA
BRANCH  34  35
HETATM   35  C6  UNL     1     -32.034 -18.559   0.435  1.00  0.00     0.266 C 
HETATM   36  C7  UNL     1     -33.023 -17.501   0.053  1.00  0.00     0.103 C 
HETATM   37  C8  UNL     1     -33.476 -17.567  -1.379  1.00  0.00     0.111 C 
HETATM   38  C10 UNL     1     -33.412 -18.934  -1.979  1.00  0.00     0.185 C 
HETATM   39  C11 UNL     1     -32.278 -19.779  -1.513  1.00  0.00     0.180 C 
HETATM   40  O7  UNL     1     -31.409 -19.146  -0.661  1.00  0.00    -0.351 OA
BRANCH  37  41
HETATM   41  O3  UNL     1     -34.841 -17.194  -1.386  1.00  0.00    -0.385 OA
ATOM     42  H3  UNL     1     -35.174 -17.405  -2.251  1.00  0.00     0.210 HD
ENDBRANCH  37  41
BRANCH  37  43
HETATM   43  C9  UNL     1     -32.777 -16.522  -2.233  1.00  0.00     0.204 C 
BRANCH  43  44
HETATM   44  O4  UNL     1     -31.457 -16.338  -1.868  1.00  0.00    -0.398 OA
ATOM     45  H4  UNL     1     -31.056 -15.601  -2.314  1.00  0.00     0.209 HD
ENDBRANCH  43  44
ENDBRANCH  37  43
BRANCH  38  46
HETATM   46  O5  UNL     1     -34.605 -19.655  -1.748  1.00  0.00    -0.390 OA
ATOM     47  H5  UNL     1     -34.943 -20.033  -2.552  1.00  0.00     0.210 HD
ENDBRANCH  38  46
BRANCH  39  48
HETATM   48  C12 UNL     1     -31.453 -20.269  -2.704  1.00  0.00     0.198 C 
BRANCH  48  49
HETATM   49  O6  UNL     1     -30.266 -20.849  -2.239  1.00  0.00    -0.398 OA
ATOM     50  H6  UNL     1     -30.443 -21.324  -1.435  1.00  0.00     0.209 HD
ENDBRANCH  48  49
ENDBRANCH  39  48
ENDBRANCH  34  35
ENDBRANCH   5  34
TORSDOF 16
ENDMDL
MODEL 4
REMARK VINA RESULT: -7.235330407      1.198      1.353
REMARK  16 active torsions:
REMARK  status: ('A' for Active; 'I' for Inactive)
REMARK    1  A    between atoms: N1_1  and  C1_5 
REMARK    2  A    between atoms: C2_7  and  S1_8 
REMARK    3  A    between atoms: S1_8  and  S2_9 
REMARK    4  A    between atoms: S2_9  and  C3_10 
REMARK    5  A    between atoms: C3_10  and  C4_11 
REMARK    6  A    between atoms: C5_15  and  O2_16 
REMARK    7  A    between atoms: O2_16  and  C6_17 
REMARK    8  A    between atoms: C8_19  and  O3_20 
REMARK    9  A    between atoms: C8_19  and  C9_22 
REMARK   10  A    between atoms: C9_22  and  O4_23 
REMARK   11  A    between atoms: C10_25  and  O5_26 
REMARK   12  A    between atoms: C11_28  and  C12_29 
REMARK   13  A    between atoms: C12_29  and  O6_30 
REMARK   14  A    between atoms: C16_40  and  O9_41 
REMARK   15  A    between atoms: C17_43  and  N4_44 
REMARK   16  A    between atoms: C18_48  and  O10_49 
ROOT
HETATM    1  C4  UNL     1     -29.708 -20.033   5.082  1.00  0.00     0.334 C 
HETATM    2  N2  UNL     1     -30.423 -18.899   4.553  1.00  0.00    -0.020 N 
ATOM      3  H21 UNL     1     -29.883 -18.347   3.888  1.00  0.00     0.283 HD
ATOM      4  H22 UNL     1     -30.574 -18.154   5.233  1.00  0.00     0.283 HD
HETATM    5  C5  UNL     1     -31.669 -19.452   3.993  1.00  0.00     0.359 C 
HETATM    6  C13 UNL     1     -32.545 -19.793   5.157  1.00  0.00     0.272 C 
HETATM    7  N3  UNL     1     -33.033 -21.173   5.135  1.00  0.00    -0.062 N 
ATOM      8  H31 UNL     1     -32.653 -21.861   4.486  1.00  0.00     0.277 HD
ATOM      9  H32 UNL     1     -33.965 -21.401   4.787  1.00  0.00     0.277 HD
HETATM   10  C14 UNL     1     -32.722 -21.221   6.568  1.00  0.00     0.267 C 
HETATM   11  C15 UNL     1     -31.666 -20.156   6.333  1.00  0.00     0.184 C 
HETATM   12  O8  UNL     1     -30.498 -20.757   5.936  1.00  0.00    -0.349 OA
ENDROOT
BRANCH   1  13
HETATM   13  C3  UNL     1     -28.417 -19.698   5.755  1.00  0.00     0.147 C 
BRANCH  13  14
HETATM   14  S2  UNL     1     -28.094 -17.924   5.410  1.00  0.00    -0.091 SA
BRANCH  14  15
HETATM   15  S1  UNL     1     -25.978 -17.627   5.177  1.00  0.00    -0.062 SA
BRANCH  15  16
HETATM   16  C2  UNL     1     -25.172 -18.968   6.127  1.00  0.00     0.227 C 
HETATM   17  O1  UNL     1     -24.941 -18.471   7.405  1.00  0.00    -0.338 OA
HETATM   18  C1  UNL     1     -23.965 -19.146   8.095  1.00  0.00     0.350 C 
HETATM   19  C18 UNL     1     -22.626 -18.851   7.458  1.00  0.00     0.207 C 
HETATM   20  C17 UNL     1     -22.672 -18.818   5.966  1.00  0.00     0.248 C 
HETATM   21  C16 UNL     1     -23.939 -19.361   5.385  1.00  0.00     0.191 C 
BRANCH  18  22
HETATM   22  N1  UNL     1     -23.928 -18.600   9.444  1.00  0.00    -0.050 N 
ATOM     23  H13 UNL     1     -23.505 -17.673   9.487  1.00  0.00     0.277 HD
ATOM     24  H12 UNL     1     -24.850 -18.342   9.794  1.00  0.00     0.277 HD
ATOM     25  H11 UNL     1     -23.454 -19.281  10.037  1.00  0.00     0.277 HD
ENDBRANCH  18  22
BRANCH  19  26
HETATM   26  O10 UNL     1     -21.715 -19.822   7.933  1.00  0.00    -0.389 OA
ATOM     27  H10 UNL     1     -20.865 -19.612   7.565  1.00  0.00     0.210 HD
ENDBRANCH  19  26
BRANCH  20  28
HETATM   28  N4  UNL     1     -21.580 -19.665   5.471  1.00  0.00    -0.070 N 
ATOM     29  H43 UNL     1     -20.864 -19.848   6.174  1.00  0.00     0.274 HD
ATOM     30  H42 UNL     1     -21.861 -20.633   5.316  1.00  0.00     0.274 HD
ATOM     31  H41 UNL     1     -21.213 -19.214   4.633  1.00  0.00     0.274 HD
ENDBRANCH  20  28
BRANCH  21  32
HETATM   32  O9  UNL     1     -23.853 -20.767   5.282  1.00  0.00    -0.390 OA
ATOM     33  H9  UNL     1     -24.719 -21.156   5.321  1.00  0.00     0.210 HD
ENDBRANCH  21  32
ENDBRANCH  15  16
ENDBRANCH  14  15
ENDBRANCH  13  14
ENDBRANCH   1  13
BRANCH   5  34
HETATM   34  O2  UNL     1     -32.259 -18.537   3.125  1.00  0.00    -0.327 OA
BRANCH  34  35
HETATM   35  C6  UNL     1     -32.855 -19.259   2.096  1.00  0.00     0.266 C 
HETATM   36  C7  UNL     1     -31.853 -20.084   1.348  1.00  0.00     0.103 C 
HETATM   37  C8  UNL     1     -31.451 -19.511   0.018  1.00  0.00     0.111 C 
HETATM   38  C10 UNL     1     -31.569 -18.024  -0.069  1.00  0.00     0.185 C 
HETATM   39  C11 UNL     1     -32.708 -17.433   0.688  1.00  0.00     0.180 C 
HETATM   40  O7  UNL     1     -33.531 -18.351   1.287  1.00  0.00    -0.351 OA
BRANCH  37  41
HETATM   41  O3  UNL     1     -30.078 -19.810  -0.150  1.00  0.00    -0.385 OA
ATOM     42  H3  UNL     1     -29.673 -19.028  -0.508  1.00  0.00     0.210 HD
ENDBRANCH  37  41
BRANCH  37  43
HETATM   43  C9  UNL     1     -32.153 -20.219  -1.130  1.00  0.00     0.204 C 
BRANCH  43  44
HETATM   44  O4  UNL     1     -31.387 -21.236  -1.670  1.00  0.00    -0.398 OA
ATOM     45  H4  UNL     1     -31.059 -21.021  -2.536  1.00  0.00     0.209 HD
ENDBRANCH  43  44
ENDBRANCH  37  43
BRANCH  38  46
HETATM   46  O5  UNL     1     -30.387 -17.386   0.369  1.00  0.00    -0.390 OA
ATOM     47  H5  UNL     1     -30.388 -16.462   0.147  1.00  0.00     0.210 HD
ENDBRANCH  38  46
BRANCH  39  48
HETATM   48  C12 UNL     1     -33.585 -16.590  -0.239  1.00  0.00     0.198 C 
BRANCH  48  49
HETATM   49  O6  UNL     1     -32.781 -15.977  -1.208  1.00  0.00    -0.398 OA
ATOM     50  H6  UNL     1     -33.233 -15.986  -2.043  1.00  0.00     0.209 HD
ENDBRANCH  48  49
ENDBRANCH  39  48
ENDBRANCH  34  35
ENDBRANCH   5  34
TORSDOF 16
ENDMDL
MODEL 5
REMARK VINA RESULT: -7.189849145      1.900      2.758
REMARK  16 active torsions:
REMARK  status: ('A' for Active; 'I' for Inactive)
REMARK    1  A    between atoms: N1_1  and  C1_5 
REMARK    2  A    between atoms: C2_7  and  S1_8 
REMARK    3  A    between atoms: S1_8  and  S2_9 
REMARK    4  A    between atoms: S2_9  and  C3_10 
REMARK    5  A    between atoms: C3_10  and  C4_11 
REMARK    6  A    between atoms: C5_15  and  O2_16 
REMARK    7  A    between atoms: O2_16  and  C6_17 
REMARK    8  A    between atoms: C8_19  and  O3_20 
REMARK    9  A    between atoms: C8_19  and  C9_22 
REMARK   10  A    between atoms: C9_22  and  O4_23 
REMARK   11  A    between atoms: C10_25  and  O5_26 
REMARK   12  A    between atoms: C11_28  and  C12_29 
REMARK   13  A    between atoms: C12_29  and  O6_30 
REMARK   14  A    between atoms: C16_40  and  O9_41 
REMARK   15  A    between atoms: C17_43  and  N4_44 
REMARK   16  A    between atoms: C18_48  and  O10_49 
ROOT
HETATM    1  C4  UNL     1     -29.697 -18.554   3.900  1.00  0.00     0.334 C 
HETATM    2  N2  UNL     1     -30.360 -19.486   3.023  1.00  0.00    -0.020 N 
ATOM      3  H21 UNL     1     -30.836 -20.243   3.513  1.00  0.00     0.283 HD
ATOM      4  H22 UNL     1     -29.721 -20.073   2.488  1.00  0.00     0.283 HD
HETATM    5  C5  UNL     1     -31.254 -18.665   2.187  1.00  0.00     0.359 C 
HETATM    6  C13 UNL     1     -30.381 -17.956   1.201  1.00  0.00     0.272 C 
HETATM    7  N3  UNL     1     -30.581 -16.506   1.183  1.00  0.00    -0.062 N 
ATOM      8  H31 UNL     1     -31.127 -16.036   1.905  1.00  0.00     0.277 HD
ATOM      9  H32 UNL     1     -31.175 -16.060   0.483  1.00  0.00     0.277 HD
HETATM   10  C14 UNL     1     -29.120 -16.386   1.131  1.00  0.00     0.267 C 
HETATM   11  C15 UNL     1     -29.025 -17.729   1.830  1.00  0.00     0.184 C 
HETATM   12  O8  UNL     1     -29.113 -17.540   3.187  1.00  0.00    -0.349 OA
ENDROOT
BRANCH   1  13
HETATM   13  C3  UNL     1     -28.690 -19.167   4.817  1.00  0.00     0.147 C 
BRANCH  13  14
HETATM   14  S2  UNL     1     -27.957 -17.791   5.785  1.00  0.00    -0.091 SA
BRANCH  14  15
HETATM   15  S1  UNL     1     -25.868 -17.628   5.307  1.00  0.00    -0.062 SA
BRANCH  15  16
HETATM   16  C2  UNL     1     -25.036 -18.980   6.217  1.00  0.00     0.227 C 
HETATM   17  O1  UNL     1     -24.744 -18.491   7.485  1.00  0.00    -0.338 OA
HETATM   18  C1  UNL     1     -23.746 -19.178   8.130  1.00  0.00     0.350 C 
HETATM   19  C18 UNL     1     -22.433 -18.895   7.436  1.00  0.00     0.207 C 
HETATM   20  C17 UNL     1     -22.544 -18.856   5.948  1.00  0.00     0.248 C 
HETATM   21  C16 UNL     1     -23.841 -19.384   5.421  1.00  0.00     0.191 C 
BRANCH  18  22
HETATM   22  N1  UNL     1     -23.644 -18.638   9.478  1.00  0.00    -0.050 N 
ATOM     23  H13 UNL     1     -22.872 -17.980   9.586  1.00  0.00     0.277 HD
ATOM     24  H12 UNL     1     -24.401 -17.993   9.706  1.00  0.00     0.277 HD
ATOM     25  H11 UNL     1     -23.588 -19.427  10.121  1.00  0.00     0.277 HD
ENDBRANCH  18  22
BRANCH  19  26
HETATM   26  O10 UNL     1     -21.513 -19.877   7.868  1.00  0.00    -0.389 OA
ATOM     27  H10 UNL     1     -21.139 -19.570   8.686  1.00  0.00     0.210 HD
ENDBRANCH  19  26
BRANCH  20  28
HETATM   28  N4  UNL     1     -21.483 -19.712   5.403  1.00  0.00    -0.070 N 
ATOM     29  H43 UNL     1     -21.728 -20.135   4.507  1.00  0.00     0.274 HD
ATOM     30  H42 UNL     1     -20.670 -19.187   5.080  1.00  0.00     0.274 HD
ATOM     31  H41 UNL     1     -21.257 -20.399   6.122  1.00  0.00     0.274 HD
ENDBRANCH  20  28
BRANCH  21  32
HETATM   32  O9  UNL     1     -23.774 -20.791   5.310  1.00  0.00    -0.390 OA
ATOM     33  H9  UNL     1     -23.141 -21.142   5.926  1.00  0.00     0.210 HD
ENDBRANCH  21  32
ENDBRANCH  15  16
ENDBRANCH  14  15
ENDBRANCH  13  14
ENDBRANCH   1  13
BRANCH   5  34
HETATM   34  O2  UNL     1     -32.217 -19.465   1.577  1.00  0.00    -0.327 OA
BRANCH  34  35
HETATM   35  C6  UNL     1     -33.365 -19.409   2.361  1.00  0.00     0.266 C 
HETATM   36  C7  UNL     1     -34.438 -20.311   1.834  1.00  0.00     0.103 C 
HETATM   37  C8  UNL     1     -35.533 -19.599   1.090  1.00  0.00     0.111 C 
HETATM   38  C10 UNL     1     -35.108 -18.316   0.455  1.00  0.00     0.185 C 
HETATM   39  C11 UNL     1     -34.091 -17.538   1.215  1.00  0.00     0.180 C 
HETATM   40  O7  UNL     1     -33.756 -18.075   2.431  1.00  0.00    -0.351 OA
BRANCH  37  41
HETATM   41  O3  UNL     1     -35.924 -20.456   0.033  1.00  0.00    -0.385 OA
ATOM     42  H3  UNL     1     -36.156 -19.894  -0.698  1.00  0.00     0.210 HD
ENDBRANCH  37  41
BRANCH  37  43
HETATM   43  C9  UNL     1     -36.778 -19.440   1.949  1.00  0.00     0.204 C 
BRANCH  43  44
HETATM   44  O4  UNL     1     -36.479 -19.302   3.291  1.00  0.00    -0.398 OA
ATOM     45  H4  UNL     1     -36.861 -18.518   3.669  1.00  0.00     0.209 HD
ENDBRANCH  43  44
ENDBRANCH  37  43
BRANCH  38  46
HETATM   46  O5  UNL     1     -34.598 -18.529  -0.846  1.00  0.00    -0.390 OA
ATOM     47  H5  UNL     1     -34.081 -17.789  -1.141  1.00  0.00     0.210 HD
ENDBRANCH  38  46
BRANCH  39  48
HETATM   48  C12 UNL     1     -34.595 -16.118   1.482  1.00  0.00     0.198 C 
BRANCH  48  49
HETATM   49  O6  UNL     1     -33.504 -15.243   1.543  1.00  0.00    -0.398 OA
ATOM     50  H6  UNL     1     -32.979 -15.448   2.307  1.00  0.00     0.209 HD
ENDBRANCH  48  49
ENDBRANCH  39  48
ENDBRANCH  34  35
ENDBRANCH   5  34
TORSDOF 16
ENDMDL
