MODEL 1
REMARK VINA RESULT: -4.845946843      0.000      0.000
REMARK  5 active torsions:
REMARK  status: ('A' for Active; 'I' for Inactive)
REMARK    1  A    between atoms: C2_2  and  C3_3 
REMARK    2  A    between atoms: C3_3  and  C4_4 
REMARK    3  A    between atoms: C4_4  and  N2_10 
REMARK       I    between atoms: N1_5  and  C5_7 
REMARK    4  A    between atoms: N2_10  and  N3_12 
REMARK       I    between atoms: N3_12  and  C7_14 
REMARK       I    between atoms: C7_14  and  N4_16 
REMARK       I    between atoms: N4_16  and  C8_18 
REMARK    5  A    between atoms: C8_18  and  C9_20 
ROOT
HETATM    1  N2  UNL     1      15.243  11.160  20.903  1.00  0.00    -0.285 N 
ATOM      2  H2  UNL     1      15.141  11.929  20.241  1.00  0.00     0.188 HD
ENDROOT
BRANCH   1   3
HETATM    3  C4  UNL     1      14.446  10.025  20.605  1.00  0.00     0.098 C 
HETATM    4  N1  UNL     1      14.922   9.232  19.708  1.00  0.00    -0.316 N 
HETATM    5  C5  UNL     1      14.418   8.077  19.165  1.00  0.00     0.218 C 
ATOM      6  H1  UNL     1      15.830   9.511  19.337  1.00  0.00     0.170 HD
HETATM    7  C6  UNL     1      15.338   6.944  18.822  1.00  0.00     0.117 C 
HETATM    8  O1  UNL     1      13.171   7.924  18.934  1.00  0.00    -0.274 OA
BRANCH   3   9
HETATM    9  C3  UNL     1      13.163   9.883  21.327  1.00  0.00     0.077 C 
BRANCH   9  10
HETATM   10  C2  UNL     1      12.223  11.004  20.861  1.00  0.00     0.003 C 
HETATM   11  C1  UNL     1      11.031  10.423  20.128  1.00  0.00     0.005 C 
ENDBRANCH   9  10
ENDBRANCH   3   9
ENDBRANCH   1   3
BRANCH   1  12
HETATM   12  N3  UNL     1      16.119  11.404  21.916  1.00  0.00    -0.250 N 
HETATM   13  C7  UNL     1      17.078  12.513  21.864  1.00  0.00     0.341 C 
HETATM   14  O2  UNL     1      17.006  13.136  20.782  1.00  0.00    -0.245 OA
HETATM   15  N4  UNL     1      17.899  12.724  22.954  1.00  0.00    -0.278 N 
HETATM   16  C8  UNL     1      18.521  14.264  22.481  1.00  0.00     0.225 C 
ATOM     17  H4  UNL     1      18.080  12.151  23.778  1.00  0.00     0.173 HD
HETATM   18  O3  UNL     1      18.154  14.660  21.482  1.00  0.00    -0.273 OA
ATOM     19  H3  UNL     1      16.108  10.798  22.736  1.00  0.00     0.192 HD
BRANCH  16  20
HETATM   20  C9  UNL     1      19.429  14.795  23.485  1.00  0.00     0.099 C 
HETATM   21  C10 UNL     1      18.879  16.178  23.880  1.00  0.00     0.014 C 
ENDBRANCH  16  20
ENDBRANCH   1  12
TORSDOF 5
ENDMDL
MODEL 2
REMARK VINA RESULT: -4.797377858      0.673      1.183
REMARK  5 active torsions:
REMARK  status: ('A' for Active; 'I' for Inactive)
REMARK    1  A    between atoms: C2_2  and  C3_3 
REMARK    2  A    between atoms: C3_3  and  C4_4 
REMARK    3  A    between atoms: C4_4  and  N2_10 
REMARK       I    between atoms: N1_5  and  C5_7 
REMARK    4  A    between atoms: N2_10  and  N3_12 
REMARK       I    between atoms: N3_12  and  C7_14 
REMARK       I    between atoms: C7_14  and  N4_16 
REMARK       I    between atoms: N4_16  and  C8_18 
REMARK    5  A    between atoms: C8_18  and  C9_20 
ROOT
HETATM    1  N2  UNL     1      15.041  11.138  20.817  1.00  0.00    -0.285 N 
ATOM      2  H2  UNL     1      14.849  11.992  20.294  1.00  0.00     0.188 HD
ENDROOT
BRANCH   1   3
HETATM    3  C4  UNL     1      14.333  10.000  20.357  1.00  0.00     0.098 C 
HETATM    4  N1  UNL     1      15.004   9.190  19.614  1.00  0.00    -0.316 N 
HETATM    5  C5  UNL     1      14.637   8.026  18.986  1.00  0.00     0.218 C 
ATOM      6  H1  UNL     1      15.976   9.461  19.466  1.00  0.00     0.170 HD
HETATM    7  C6  UNL     1      15.606   6.886  18.892  1.00  0.00     0.117 C 
HETATM    8  O1  UNL     1      13.481   7.871  18.467  1.00  0.00    -0.274 OA
BRANCH   3   9
HETATM    9  C3  UNL     1      12.914   9.872  20.755  1.00  0.00     0.077 C 
BRANCH   9  10
HETATM   10  C2  UNL     1      12.864   9.506  22.246  1.00  0.00     0.003 C 
HETATM   11  C1  UNL     1      13.726   8.291  22.520  1.00  0.00     0.005 C 
ENDBRANCH   9  10
ENDBRANCH   3   9
ENDBRANCH   1   3
BRANCH   1  12
HETATM   12  N3  UNL     1      15.934  11.294  21.834  1.00  0.00    -0.250 N 
HETATM   13  C7  UNL     1      16.958  12.344  21.816  1.00  0.00     0.341 C 
HETATM   14  O2  UNL     1      16.920  13.008  20.757  1.00  0.00    -0.245 OA
HETATM   15  N4  UNL     1      17.793  12.467  22.909  1.00  0.00    -0.278 N 
HETATM   16  C8  UNL     1      18.506  13.982  22.487  1.00  0.00     0.225 C 
ATOM     17  H4  UNL     1      17.941  11.856  23.712  1.00  0.00     0.173 HD
HETATM   18  O3  UNL     1      18.160  14.435  21.504  1.00  0.00    -0.273 OA
ATOM     19  H3  UNL     1      15.889  10.661  22.633  1.00  0.00     0.192 HD
BRANCH  16  20
HETATM   20  C9  UNL     1      19.446  14.423  23.505  1.00  0.00     0.099 C 
HETATM   21  C10 UNL     1      19.205  15.931  23.696  1.00  0.00     0.014 C 
ENDBRANCH  16  20
ENDBRANCH   1  12
TORSDOF 5
ENDMDL
MODEL 3
REMARK VINA RESULT: -4.724753421      0.991      1.039
REMARK  5 active torsions:
REMARK  status: ('A' for Active; 'I' for Inactive)
REMARK    1  A    between atoms: C2_2  and  C3_3 
REMARK    2  A    between atoms: C3_3  and  C4_4 
REMARK    3  A    between atoms: C4_4  and  N2_10 
REMARK       I    between atoms: N1_5  and  C5_7 
REMARK    4  A    between atoms: N2_10  and  N3_12 
REMARK       I    between atoms: N3_12  and  C7_14 
REMARK       I    between atoms: C7_14  and  N4_16 
REMARK       I    between atoms: N4_16  and  C8_18 
REMARK    5  A    between atoms: C8_18  and  C9_20 
ROOT
HETATM    1  N2  UNL     1      15.007  11.004  20.680  1.00  0.00    -0.285 N 
ATOM      2  H2  UNL     1      14.956  11.777  20.015  1.00  0.00     0.188 HD
ENDROOT
BRANCH   1   3
HETATM    3  C4  UNL     1      14.272   9.855  20.295  1.00  0.00     0.098 C 
HETATM    4  N1  UNL     1      14.851   8.725  20.514  1.00  0.00    -0.316 N 
HETATM    5  C5  UNL     1      14.450   7.439  20.250  1.00  0.00     0.218 C 
ATOM      6  H1  UNL     1      15.764   8.799  20.961  1.00  0.00     0.170 HD
HETATM    7  C6  UNL     1      14.776   6.338  21.215  1.00  0.00     0.117 C 
HETATM    8  O1  UNL     1      13.799   7.135  19.194  1.00  0.00    -0.274 OA
BRANCH   3   9
HETATM    9  C3  UNL     1      12.947  10.068  19.673  1.00  0.00     0.077 C 
BRANCH   9  10
HETATM   10  C2  UNL     1      12.059  10.817  20.678  1.00  0.00     0.003 C 
HETATM   11  C1  UNL     1      11.780   9.946  21.886  1.00  0.00     0.005 C 
ENDBRANCH   9  10
ENDBRANCH   3   9
ENDBRANCH   1   3
BRANCH   1  12
HETATM   12  N3  UNL     1      15.770  11.260  21.778  1.00  0.00    -0.250 N 
HETATM   13  C7  UNL     1      16.845  12.258  21.764  1.00  0.00     0.341 C 
HETATM   14  O2  UNL     1      16.980  12.775  20.633  1.00  0.00    -0.245 OA
HETATM   15  N4  UNL     1      17.539  12.494  22.934  1.00  0.00    -0.278 N 
HETATM   16  C8  UNL     1      18.384  13.910  22.421  1.00  0.00     0.225 C 
ATOM     17  H4  UNL     1      17.550  11.990  23.820  1.00  0.00     0.173 HD
HETATM   18  O3  UNL     1      18.192  14.240  21.352  1.00  0.00    -0.273 OA
ATOM     19  H3  UNL     1      15.588  10.742  22.638  1.00  0.00     0.192 HD
BRANCH  16  20
HETATM   20  C9  UNL     1      19.209  14.446  23.491  1.00  0.00     0.099 C 
HETATM   21  C10 UNL     1      18.878  15.946  23.586  1.00  0.00     0.014 C 
ENDBRANCH  16  20
ENDBRANCH   1  12
TORSDOF 5
ENDMDL
MODEL 4
REMARK VINA RESULT: -4.634727783      1.155      2.706
REMARK  5 active torsions:
REMARK  status: ('A' for Active; 'I' for Inactive)
REMARK    1  A    between atoms: C2_2  and  C3_3 
REMARK    2  A    between atoms: C3_3  and  C4_4 
REMARK    3  A    between atoms: C4_4  and  N2_10 
REMARK       I    between atoms: N1_5  and  C5_7 
REMARK    4  A    between atoms: N2_10  and  N3_12 
REMARK       I    between atoms: N3_12  and  C7_14 
REMARK       I    between atoms: C7_14  and  N4_16 
REMARK       I    between atoms: N4_16  and  C8_18 
REMARK    5  A    between atoms: C8_18  and  C9_20 
ROOT
HETATM    1  N2  UNL     1      15.393  11.079  21.020  1.00  0.00    -0.285 N 
ATOM      2  H2  UNL     1      15.603  11.503  20.116  1.00  0.00     0.188 HD
ENDROOT
BRANCH   1   3
HETATM    3  C4  UNL     1      14.216  10.290  21.035  1.00  0.00     0.098 C 
HETATM    4  N1  UNL     1      13.107  10.945  21.057  1.00  0.00    -0.316 N 
HETATM    5  C5  UNL     1      11.804  10.514  21.100  1.00  0.00     0.218 C 
ATOM      6  H1  UNL     1      13.216  11.959  21.039  1.00  0.00     0.170 HD
HETATM    7  C6  UNL     1      10.744  11.253  20.341  1.00  0.00     0.117 C 
HETATM    8  O1  UNL     1      11.451   9.490  21.777  1.00  0.00    -0.274 OA
BRANCH   3   9
HETATM    9  C3  UNL     1      14.380   8.820  21.045  1.00  0.00     0.077 C 
BRANCH   9  10
HETATM   10  C2  UNL     1      14.251   8.313  19.601  1.00  0.00     0.003 C 
HETATM   11  C1  UNL     1      15.093   7.069  19.402  1.00  0.00     0.005 C 
ENDBRANCH   9  10
ENDBRANCH   3   9
ENDBRANCH   1   3
BRANCH   1  12
HETATM   12  N3  UNL     1      16.294  11.372  21.998  1.00  0.00    -0.250 N 
HETATM   13  C7  UNL     1      17.178  12.541  21.918  1.00  0.00     0.341 C 
HETATM   14  O2  UNL     1      17.021  13.165  20.846  1.00  0.00    -0.245 OA
HETATM   15  N4  UNL     1      18.029  12.796  22.975  1.00  0.00    -0.278 N 
HETATM   16  C8  UNL     1      18.532  14.375  22.491  1.00  0.00     0.225 C 
ATOM     17  H4  UNL     1      18.280  12.230  23.785  1.00  0.00     0.173 HD
HETATM   18  O3  UNL     1      18.098  14.754  21.513  1.00  0.00    -0.273 OA
ATOM     19  H3  UNL     1      16.356  10.761  22.812  1.00  0.00     0.192 HD
BRANCH  16  20
HETATM   20  C9  UNL     1      19.445  14.956  23.462  1.00  0.00     0.099 C 
HETATM   21  C10 UNL     1      18.817  16.289  23.906  1.00  0.00     0.014 C 
ENDBRANCH  16  20
ENDBRANCH   1  12
TORSDOF 5
ENDMDL
MODEL 5
REMARK VINA RESULT: -4.547183589      4.880      6.465
REMARK  5 active torsions:
REMARK  status: ('A' for Active; 'I' for Inactive)
REMARK    1  A    between atoms: C2_2  and  C3_3 
REMARK    2  A    between atoms: C3_3  and  C4_4 
REMARK    3  A    between atoms: C4_4  and  N2_10 
REMARK       I    between atoms: N1_5  and  C5_7 
REMARK    4  A    between atoms: N2_10  and  N3_12 
REMARK       I    between atoms: N3_12  and  C7_14 
REMARK       I    between atoms: C7_14  and  N4_16 
REMARK       I    between atoms: N4_16  and  C8_18 
REMARK    5  A    between atoms: C8_18  and  C9_20 
ROOT
HETATM    1  N2  UNL     1      14.350   6.720  19.373  1.00  0.00    -0.285 N 
ATOM      2  H2  UNL     1      14.476   6.135  18.547  1.00  0.00     0.188 HD
ENDROOT
BRANCH   1   3
HETATM    3  C4  UNL     1      14.401   8.113  19.115  1.00  0.00     0.098 C 
HETATM    4  N1  UNL     1      13.388   8.793  19.529  1.00  0.00    -0.316 N 
HETATM    5  C5  UNL     1      13.098  10.130  19.430  1.00  0.00     0.218 C 
ATOM      6  H1  UNL     1      12.680   8.242  20.014  1.00  0.00     0.170 HD
HETATM    7  C6  UNL     1      12.410  10.835  20.561  1.00  0.00     0.117 C 
HETATM    8  O1  UNL     1      13.393  10.814  18.392  1.00  0.00    -0.274 OA
BRANCH   3   9
HETATM    9  C3  UNL     1      15.582   8.630  18.390  1.00  0.00     0.077 C 
BRANCH   9  10
HETATM   10  C2  UNL     1      16.270   7.449  17.689  1.00  0.00     0.003 C 
HETATM   11  C1  UNL     1      17.004   6.591  18.699  1.00  0.00     0.005 C 
ENDBRANCH   9  10
ENDBRANCH   3   9
ENDBRANCH   1   3
BRANCH   1  12
HETATM   12  N3  UNL     1      14.161   6.024  20.528  1.00  0.00    -0.250 N 
HETATM   13  C7  UNL     1      14.402   6.622  21.845  1.00  0.00     0.341 C 
HETATM   14  O2  UNL     1      14.834   7.792  21.749  1.00  0.00    -0.245 OA
HETATM   15  N4  UNL     1      14.139   5.865  22.970  1.00  0.00    -0.278 N 
HETATM   16  C8  UNL     1      14.277   7.129  24.138  1.00  0.00     0.225 C 
ATOM     17  H4  UNL     1      13.929   4.873  23.076  1.00  0.00     0.173 HD
HETATM   18  O3  UNL     1      14.547   8.153  23.729  1.00  0.00    -0.273 OA
ATOM     19  H3  UNL     1      13.841   5.057  20.475  1.00  0.00     0.192 HD
BRANCH  16  20
HETATM   20  C9  UNL     1      14.006   6.638  25.479  1.00  0.00     0.099 C 
HETATM   21  C10 UNL     1      12.575   7.085  25.825  1.00  0.00     0.014 C 
ENDBRANCH  16  20
ENDBRANCH   1  12
TORSDOF 5
ENDMDL
