MODEL 1
REMARK VINA RESULT: -8.945751584      0.000      0.000
REMARK  6 active torsions:
REMARK  status: ('A' for Active; 'I' for Inactive)
REMARK    1  A    between atoms: C6_14  and  N5_15 
REMARK    2  A    between atoms: N5_15  and  C7_17 
REMARK    3  A    between atoms: C7_17  and  C8_18 
REMARK    4  A    between atoms: C7_17  and  C13_30 
REMARK    5  A    between atoms: C8_18  and  C9_19 
REMARK    6  A    between atoms: C9_19  and  N6_20 
ROOT
HETATM    1  N5  UNL     1      24.693 -17.741  12.545  1.00  0.00    -0.360 N 
ATOM      2  H5  UNL     1      24.527 -18.743  12.640  1.00  0.00     0.162 HD
ENDROOT
BRANCH   1   3
HETATM    3  C6  UNL     1      24.640 -17.149  11.282  1.00  0.00     0.143 A 
HETATM    4  C1  UNL     1      23.860 -15.903  11.141  1.00  0.00     0.144 A 
HETATM    5  N1  UNL     1      23.238 -15.372  12.159  1.00  0.00    -0.382 N 
HETATM    6  N2  UNL     1      23.833 -15.322   9.856  1.00  0.00    -0.330 N 
ATOM      7  H12 UNL     1      22.699 -14.511  12.061  1.00  0.00     0.157 HD
ATOM      8  H11 UNL     1      23.258 -15.792  13.088  1.00  0.00     0.157 HD
HETATM    9  C2  UNL     1      24.434 -15.811   8.849  1.00  0.00     0.123 A 
ATOM     10  H2  UNL     1      23.302 -14.460   9.728  1.00  0.00     0.168 HD
HETATM   11  N3  UNL     1      24.344 -15.134   7.563  1.00  0.00    -0.085 NA
HETATM   12  C3  UNL     1      25.216 -17.039   8.944  1.00  0.00     0.088 A 
HETATM   13  C4  UNL     1      26.601 -16.899   8.239  1.00  0.00     0.041 A 
HETATM   14  C5  UNL     1      25.572 -17.829   7.741  1.00  0.00     0.041 A 
HETATM   15  N4  UNL     1      25.223 -17.594  10.238  1.00  0.00    -0.357 N 
ATOM     16  H4  UNL     1      25.757 -18.455  10.355  1.00  0.00     0.162 HD
ENDBRANCH   1   3
BRANCH   1  17
HETATM   17  C7  UNL     1      24.984 -16.936  13.734  1.00  0.00     0.177 C 
BRANCH  17  18
HETATM   18  C8  UNL     1      26.505 -17.035  13.987  1.00  0.00     0.079 C 
BRANCH  18  19
HETATM   19  C9  UNL     1      27.024 -18.294  13.533  1.00  0.00     0.071 C 
BRANCH  19  20
HETATM   20  N6  UNL     1      27.332 -19.342  14.456  1.00  0.00    -0.318 N 
HETATM   21  C10 UNL     1      26.313 -20.400  14.489  1.00  0.00     0.256 A 
HETATM   22  N7  UNL     1      26.624 -21.434  15.422  1.00  0.00    -0.348 N 
HETATM   23  C11 UNL     1      27.653 -21.514  16.170  1.00  0.00     0.191 A 
ATOM     24  H7  UNL     1      25.947 -22.193  15.499  1.00  0.00     0.163 HD
HETATM   25  N8  UNL     1      27.833 -22.628  17.070  1.00  0.00    -0.063 NA
HETATM   26  N9  UNL     1      28.621 -20.494  16.115  1.00  0.00    -0.304 N 
HETATM   27  C12 UNL     1      28.438 -19.483  15.295  1.00  0.00     0.198 A 
ATOM     28  H9  UNL     1      29.453 -20.538  16.704  1.00  0.00     0.171 HD
HETATM   29  N10 UNL     1      29.422 -18.457  15.238  1.00  0.00    -0.063 NA
ENDBRANCH  19  20
ENDBRANCH  18  19
ENDBRANCH  17  18
BRANCH  17  30
HETATM   30  C13 UNL     1      24.159 -17.370  14.861  1.00  0.00     0.254 C 
HETATM   31  N11 UNL     1      22.813 -16.984  14.978  1.00  0.00    -0.060 NA
HETATM   32  O1  UNL     1      24.644 -18.108  15.748  1.00  0.00    -0.275 OA
ENDBRANCH  17  30
ENDBRANCH   1  17
TORSDOF 6
ENDMDL
MODEL 2
REMARK VINA RESULT: -8.180507700      1.044      1.066
REMARK  6 active torsions:
REMARK  status: ('A' for Active; 'I' for Inactive)
REMARK    1  A    between atoms: C6_14  and  N5_15 
REMARK    2  A    between atoms: N5_15  and  C7_17 
REMARK    3  A    between atoms: C7_17  and  C8_18 
REMARK    4  A    between atoms: C7_17  and  C13_30 
REMARK    5  A    between atoms: C8_18  and  C9_19 
REMARK    6  A    between atoms: C9_19  and  N6_20 
ROOT
HETATM    1  N5  UNL     1      24.802 -15.651  12.765  1.00  0.00    -0.360 N 
ATOM      2  H5  UNL     1      24.654 -14.716  13.145  1.00  0.00     0.162 HD
ENDROOT
BRANCH   1   3
HETATM    3  C6  UNL     1      24.700 -15.862  11.390  1.00  0.00     0.143 A 
HETATM    4  C1  UNL     1      23.912 -14.892  10.603  1.00  0.00     0.144 A 
HETATM    5  N1  UNL     1      23.328 -13.871  11.172  1.00  0.00    -0.382 N 
HETATM    6  N2  UNL     1      23.834 -15.125   9.215  1.00  0.00    -0.330 N 
ATOM      7  H12 UNL     1      22.784 -13.201  10.628  1.00  0.00     0.157 HD
ATOM      8  H11 UNL     1      23.385 -13.703  12.176  1.00  0.00     0.157 HD
HETATM    9  C2  UNL     1      24.397 -16.105   8.632  1.00  0.00     0.123 A 
ATOM     10  H2  UNL     1      23.297 -14.471   8.646  1.00  0.00     0.168 HD
HETATM   11  N3  UNL     1      24.256 -16.258   7.191  1.00  0.00    -0.085 NA
HETATM   12  C3  UNL     1      25.185 -17.086   9.370  1.00  0.00     0.088 A 
HETATM   13  C4  UNL     1      26.542 -17.390   8.662  1.00  0.00     0.041 A 
HETATM   14  C5  UNL     1      25.497 -18.419   8.802  1.00  0.00     0.041 A 
HETATM   15  N4  UNL     1      25.243 -16.825  10.753  1.00  0.00    -0.357 N 
ATOM     16  H4  UNL     1      25.783 -17.485  11.313  1.00  0.00     0.162 HD
ENDBRANCH   1   3
BRANCH   1  17
HETATM   17  C7  UNL     1      25.120 -16.759  13.668  1.00  0.00     0.177 C 
BRANCH  17  18
HETATM   18  C8  UNL     1      26.214 -17.605  12.980  1.00  0.00     0.079 C 
BRANCH  18  19
HETATM   19  C9  UNL     1      27.373 -17.733  13.816  1.00  0.00     0.071 C 
BRANCH  19  20
HETATM   20  N6  UNL     1      27.596 -18.911  14.595  1.00  0.00    -0.318 N 
HETATM   21  C10 UNL     1      26.463 -19.848  14.564  1.00  0.00     0.256 A 
HETATM   22  N7  UNL     1      26.692 -21.013  15.355  1.00  0.00    -0.348 N 
HETATM   23  C11 UNL     1      27.735 -21.295  16.031  1.00  0.00     0.191 A 
ATOM     24  H7  UNL     1      25.935 -21.697  15.382  1.00  0.00     0.163 HD
HETATM   25  N8  UNL     1      27.822 -22.521  16.787  1.00  0.00    -0.063 NA
HETATM   26  N9  UNL     1      28.811 -20.388  16.040  1.00  0.00    -0.304 N 
HETATM   27  C12 UNL     1      28.712 -19.273  15.351  1.00  0.00     0.198 A 
ATOM     28  H9  UNL     1      29.656 -20.593  16.573  1.00  0.00     0.171 HD
HETATM   29  N10 UNL     1      29.804 -18.361  15.358  1.00  0.00    -0.063 NA
ENDBRANCH  19  20
ENDBRANCH  18  19
ENDBRANCH  17  18
BRANCH  17  30
HETATM   30  C13 UNL     1      23.910 -17.506  14.008  1.00  0.00     0.254 C 
HETATM   31  N11 UNL     1      23.293 -17.376  15.264  1.00  0.00    -0.060 NA
HETATM   32  O1  UNL     1      23.392 -18.281  13.171  1.00  0.00    -0.275 OA
ENDBRANCH  17  30
ENDBRANCH   1  17
TORSDOF 6
ENDMDL
MODEL 3
REMARK VINA RESULT: -7.964115286      1.097      1.991
REMARK  6 active torsions:
REMARK  status: ('A' for Active; 'I' for Inactive)
REMARK    1  A    between atoms: C6_14  and  N5_15 
REMARK    2  A    between atoms: N5_15  and  C7_17 
REMARK    3  A    between atoms: C7_17  and  C8_18 
REMARK    4  A    between atoms: C7_17  and  C13_30 
REMARK    5  A    between atoms: C8_18  and  C9_19 
REMARK    6  A    between atoms: C9_19  and  N6_20 
ROOT
HETATM    1  N5  UNL     1      23.827 -17.503  12.003  1.00  0.00    -0.360 N 
ATOM      2  H5  UNL     1      22.906 -17.870  12.244  1.00  0.00     0.162 HD
ENDROOT
BRANCH   1   3
HETATM    3  C6  UNL     1      24.055 -16.992  10.725  1.00  0.00     0.143 A 
HETATM    4  C1  UNL     1      23.378 -15.732  10.359  1.00  0.00     0.144 A 
HETATM    5  N1  UNL     1      22.591 -15.115  11.200  1.00  0.00    -0.382 N 
HETATM    6  N2  UNL     1      23.635 -15.233   9.065  1.00  0.00    -0.330 N 
ATOM      7  H12 UNL     1      22.124 -14.244  10.947  1.00  0.00     0.157 HD
ATOM      8  H11 UNL     1      22.406 -15.475  12.136  1.00  0.00     0.157 HD
HETATM    9  C2  UNL     1      24.401 -15.807   8.229  1.00  0.00     0.123 A 
ATOM     10  H2  UNL     1      23.181 -14.364   8.785  1.00  0.00     0.168 HD
HETATM   11  N3  UNL     1      24.601 -15.211   6.916  1.00  0.00    -0.085 NA
HETATM   12  C3  UNL     1      25.090 -17.052   8.549  1.00  0.00     0.088 A 
HETATM   13  C4  UNL     1      26.593 -17.006   8.131  1.00  0.00     0.041 A 
HETATM   14  C5  UNL     1      25.641 -17.930   7.489  1.00  0.00     0.041 A 
HETATM   15  N4  UNL     1      24.813 -17.523   9.847  1.00  0.00    -0.357 N 
ATOM     16  H4  UNL     1      25.272 -18.393  10.117  1.00  0.00     0.162 HD
ENDBRANCH   1   3
BRANCH   1  17
HETATM   17  C7  UNL     1      24.898 -17.518  13.002  1.00  0.00     0.177 C 
BRANCH  17  18
HETATM   18  C8  UNL     1      25.375 -18.982  13.134  1.00  0.00     0.079 C 
BRANCH  18  19
HETATM   19  C9  UNL     1      25.841 -19.256  14.464  1.00  0.00     0.071 C 
BRANCH  19  20
HETATM   20  N6  UNL     1      27.231 -19.451  14.733  1.00  0.00    -0.318 N 
HETATM   21  C10 UNL     1      28.082 -18.385  14.186  1.00  0.00     0.256 A 
HETATM   22  N7  UNL     1      29.468 -18.596  14.450  1.00  0.00    -0.348 N 
HETATM   23  C11 UNL     1      29.992 -19.566  15.091  1.00  0.00     0.191 A 
ATOM     24  H7  UNL     1      30.111 -17.894  14.085  1.00  0.00     0.163 HD
HETATM   25  N8  UNL     1      31.420 -19.645  15.280  1.00  0.00    -0.063 NA
HETATM   26  N9  UNL     1      29.158 -20.572  15.614  1.00  0.00    -0.304 N 
HETATM   27  C12 UNL     1      27.860 -20.486  15.427  1.00  0.00     0.198 A 
ATOM     28  H9  UNL     1      29.556 -21.356  16.131  1.00  0.00     0.171 HD
HETATM   29  N10 UNL     1      27.020 -21.502  15.963  1.00  0.00    -0.063 NA
ENDBRANCH  19  20
ENDBRANCH  18  19
ENDBRANCH  17  18
BRANCH  17  30
HETATM   30  C13 UNL     1      24.438 -16.921  14.255  1.00  0.00     0.254 C 
HETATM   31  N11 UNL     1      23.161 -17.195  14.774  1.00  0.00    -0.060 NA
HETATM   32  O1  UNL     1      25.188 -16.152  14.899  1.00  0.00    -0.275 OA
ENDBRANCH  17  30
ENDBRANCH   1  17
TORSDOF 6
ENDMDL
MODEL 4
REMARK VINA RESULT: -7.910139838      1.499      7.395
REMARK  6 active torsions:
REMARK  status: ('A' for Active; 'I' for Inactive)
REMARK    1  A    between atoms: C6_14  and  N5_15 
REMARK    2  A    between atoms: N5_15  and  C7_17 
REMARK    3  A    between atoms: C7_17  and  C8_18 
REMARK    4  A    between atoms: C7_17  and  C13_30 
REMARK    5  A    between atoms: C8_18  and  C9_19 
REMARK    6  A    between atoms: C9_19  and  N6_20 
ROOT
HETATM    1  N5  UNL     1      25.937 -18.357  12.979  1.00  0.00    -0.360 N 
ATOM      2  H5  UNL     1      26.492 -17.891  12.262  1.00  0.00     0.162 HD
ENDROOT
BRANCH   1   3
HETATM    3  C6  UNL     1      26.555 -19.244  13.862  1.00  0.00     0.143 A 
HETATM    4  C1  UNL     1      27.578 -18.700  14.777  1.00  0.00     0.144 A 
HETATM    5  N1  UNL     1      27.897 -17.433  14.762  1.00  0.00    -0.382 N 
HETATM    6  N2  UNL     1      28.178 -19.616  15.665  1.00  0.00    -0.330 N 
ATOM      7  H12 UNL     1      28.604 -17.057  15.395  1.00  0.00     0.157 HD
ATOM      8  H11 UNL     1      27.463 -16.770  14.120  1.00  0.00     0.157 HD
HETATM    9  C2  UNL     1      27.882 -20.852  15.707  1.00  0.00     0.123 A 
ATOM     10  H2  UNL     1      28.888 -19.269  16.309  1.00  0.00     0.168 HD
HETATM   11  N3  UNL     1      28.561 -21.718  16.661  1.00  0.00    -0.085 NA
HETATM   12  C3  UNL     1      26.878 -21.431  14.823  1.00  0.00     0.088 A 
HETATM   13  C4  UNL     1      25.893 -22.362  15.596  1.00  0.00     0.041 A 
HETATM   14  C5  UNL     1      26.811 -22.891  14.572  1.00  0.00     0.041 A 
HETATM   15  N4  UNL     1      26.298 -20.491  13.949  1.00  0.00    -0.357 N 
ATOM     16  H4  UNL     1      25.589 -20.849  13.310  1.00  0.00     0.162 HD
ENDBRANCH   1   3
BRANCH   1  17
HETATM   17  C7  UNL     1      24.500 -18.091  13.074  1.00  0.00     0.177 C 
BRANCH  17  18
HETATM   18  C8  UNL     1      24.044 -17.570  11.693  1.00  0.00     0.079 C 
BRANCH  18  19
HETATM   19  C9  UNL     1      25.144 -17.008  10.962  1.00  0.00     0.071 C 
BRANCH  19  20
HETATM   20  N6  UNL     1      25.068 -16.811   9.548  1.00  0.00    -0.318 N 
HETATM   21  C10 UNL     1      24.365 -15.575   9.174  1.00  0.00     0.256 A 
HETATM   22  N7  UNL     1      24.284 -15.395   7.761  1.00  0.00    -0.348 N 
HETATM   23  C11 UNL     1      24.752 -16.163   6.857  1.00  0.00     0.191 A 
ATOM     24  H7  UNL     1      23.797 -14.559   7.438  1.00  0.00     0.163 HD
HETATM   25  N8  UNL     1      24.592 -15.847   5.458  1.00  0.00    -0.063 NA
HETATM   26  N9  UNL     1      25.429 -17.336   7.238  1.00  0.00    -0.304 N 
HETATM   27  C12 UNL     1      25.560 -17.611   8.516  1.00  0.00     0.198 A 
ATOM     28  H9  UNL     1      25.812 -17.965   6.532  1.00  0.00     0.171 HD
HETATM   29  N10 UNL     1      26.250 -18.795   8.898  1.00  0.00    -0.063 NA
ENDBRANCH  19  20
ENDBRANCH  18  19
ENDBRANCH  17  18
BRANCH  17  30
HETATM   30  C13 UNL     1      24.219 -17.180  14.182  1.00  0.00     0.254 C 
HETATM   31  N11 UNL     1      23.083 -17.337  14.994  1.00  0.00    -0.060 NA
HETATM   32  O1  UNL     1      25.000 -16.234  14.432  1.00  0.00    -0.275 OA
ENDBRANCH  17  30
ENDBRANCH   1  17
TORSDOF 6
ENDMDL
MODEL 5
REMARK VINA RESULT: -7.891213427      1.511      7.460
REMARK  6 active torsions:
REMARK  status: ('A' for Active; 'I' for Inactive)
REMARK    1  A    between atoms: C6_14  and  N5_15 
REMARK    2  A    between atoms: N5_15  and  C7_17 
REMARK    3  A    between atoms: C7_17  and  C8_18 
REMARK    4  A    between atoms: C7_17  and  C13_30 
REMARK    5  A    between atoms: C8_18  and  C9_19 
REMARK    6  A    between atoms: C9_19  and  N6_20 
ROOT
HETATM    1  N5  UNL     1      26.047 -18.120  13.295  1.00  0.00    -0.360 N 
ATOM      2  H5  UNL     1      26.601 -17.382  12.861  1.00  0.00     0.162 HD
ENDROOT
BRANCH   1   3
HETATM    3  C6  UNL     1      26.677 -19.086  14.080  1.00  0.00     0.143 A 
HETATM    4  C1  UNL     1      27.791 -18.647  14.944  1.00  0.00     0.144 A 
HETATM    5  N1  UNL     1      28.177 -17.399  14.973  1.00  0.00    -0.382 N 
HETATM    6  N2  UNL     1      28.403 -19.643  15.734  1.00  0.00    -0.330 N 
ATOM      7  H12 UNL     1      28.947 -17.096  15.571  1.00  0.00     0.157 HD
ATOM      8  H11 UNL     1      27.735 -16.680  14.402  1.00  0.00     0.157 HD
HETATM    9  C2  UNL     1      28.045 -20.862  15.732  1.00  0.00     0.123 A 
ATOM     10  H2  UNL     1      29.175 -19.369  16.341  1.00  0.00     0.168 HD
HETATM   11  N3  UNL     1      28.742 -21.814  16.585  1.00  0.00    -0.085 NA
HETATM   12  C3  UNL     1      26.949 -21.338  14.895  1.00  0.00     0.088 A 
HETATM   13  C4  UNL     1      25.973 -22.261  15.689  1.00  0.00     0.041 A 
HETATM   14  C5  UNL     1      26.785 -22.776  14.572  1.00  0.00     0.041 A 
HETATM   15  N4  UNL     1      26.360 -20.321  14.119  1.00  0.00    -0.357 N 
ATOM     16  H4  UNL     1      25.589 -20.606  13.516  1.00  0.00     0.162 HD
ENDBRANCH   1   3
BRANCH   1  17
HETATM   17  C7  UNL     1      24.597 -18.158  13.088  1.00  0.00     0.177 C 
BRANCH  17  18
HETATM   18  C8  UNL     1      24.358 -18.203  11.562  1.00  0.00     0.079 C 
BRANCH  18  19
HETATM   19  C9  UNL     1      25.384 -17.492  10.856  1.00  0.00     0.071 C 
BRANCH  19  20
HETATM   20  N6  UNL     1      25.159 -16.987   9.537  1.00  0.00    -0.318 N 
HETATM   21  C10 UNL     1      25.598 -17.912   8.482  1.00  0.00     0.256 A 
HETATM   22  N7  UNL     1      25.381 -17.393   7.171  1.00  0.00    -0.348 N 
HETATM   23  C11 UNL     1      24.859 -16.271   6.861  1.00  0.00     0.191 A 
ATOM     24  H7  UNL     1      25.676 -17.985   6.394  1.00  0.00     0.163 HD
HETATM   25  N8  UNL     1      24.703 -15.880   5.481  1.00  0.00    -0.063 NA
HETATM   26  N9  UNL     1      24.438 -15.406   7.887  1.00  0.00    -0.304 N 
HETATM   27  C12 UNL     1      24.594 -15.775   9.139  1.00  0.00     0.198 A 
ATOM     28  H9  UNL     1      24.017 -14.504   7.663  1.00  0.00     0.171 HD
HETATM   29  N10 UNL     1      24.161 -14.900  10.173  1.00  0.00    -0.063 NA
ENDBRANCH  19  20
ENDBRANCH  18  19
ENDBRANCH  17  18
BRANCH  17  30
HETATM   30  C13 UNL     1      23.954 -17.031  13.762  1.00  0.00     0.254 C 
HETATM   31  N11 UNL     1      23.250 -17.199  14.967  1.00  0.00    -0.060 NA
HETATM   32  O1  UNL     1      24.026 -15.880  13.274  1.00  0.00    -0.275 OA
ENDBRANCH  17  30
ENDBRANCH   1  17
TORSDOF 6
ENDMDL
