MODEL 1
REMARK VINA RESULT: -9.714575375      0.000      0.000
REMARK  6 active torsions:
REMARK  status: ('A' for Active; 'I' for Inactive)
REMARK    1  A    between atoms: C7_8  and  O1_9 
REMARK    2  A    between atoms: C8_11  and  C9_12 
REMARK       I    between atoms: C9_12  and  N2_14 
REMARK    3  A    between atoms: N2_14  and  C10_16 
REMARK    4  A    between atoms: C10_16  and  O3_17 
REMARK    5  A    between atoms: C10_16  and  N3_19 
REMARK    6  A    between atoms: N3_19  and  N4_21 
ROOT
HETATM    1  C1  UNL     1      23.681  28.459  33.420  1.00  0.00     0.052 C 
HETATM    2  C2  UNL     1      24.827  28.933  34.248  1.00  0.00    -0.009 A 
HETATM    3  C3  UNL     1      25.210  30.249  34.093  1.00  0.00     0.083 A 
HETATM    4  C4  UNL     1      26.253  30.738  34.830  1.00  0.00     0.001 A 
HETATM    5  C5  UNL     1      26.903  29.919  35.707  1.00  0.00     0.087 A 
HETATM    6  C6  UNL     1      28.018  30.411  36.506  1.00  0.00     0.103 C 
HETATM    7  N1  UNL     1      28.900  30.815  37.136  1.00  0.00    -0.191 NA
HETATM    8  C7  UNL     1      26.508  28.580  35.860  1.00  0.00     0.103 A 
HETATM    9  C8  UNL     1      25.459  28.044  35.137  1.00  0.00     0.075 A 
HETATM   10  C11 UNL     1      26.420  32.163  34.448  1.00  0.00     0.070 C 
HETATM   11  C12 UNL     1      25.826  32.177  33.056  1.00  0.00     0.180 C 
HETATM   12  O4  UNL     1      24.714  31.289  33.267  1.00  0.00    -0.350 OA
ENDROOT
BRANCH   8  13
HETATM   13  O1  UNL     1      27.217  27.829  36.765  1.00  0.00    -0.358 OA
ATOM     14  H1  UNL     1      26.774  27.074  37.133  1.00  0.00     0.217 HD
ENDBRANCH   8  13
BRANCH   9  15
HETATM   15  C9  UNL     1      25.007  26.675  35.250  1.00  0.00     0.262 C 
HETATM   16  O2  UNL     1      25.208  25.921  34.267  1.00  0.00    -0.267 OA
HETATM   17  N2  UNL     1      24.364  26.097  36.351  1.00  0.00    -0.287 N 
ATOM     18  H2  UNL     1      24.200  26.709  37.150  1.00  0.00     0.172 HD
BRANCH  17  19
HETATM   19  C10 UNL     1      23.917  24.768  36.483  1.00  0.00     0.238 C 
BRANCH  19  20
HETATM   20  O3  UNL     1      24.495  24.079  37.428  1.00  0.00    -0.331 OA
ATOM     21  H3  UNL     1      24.705  23.181  37.202  1.00  0.00     0.221 HD
ENDBRANCH  19  20
BRANCH  19  22
HETATM   22  N3  UNL     1      22.932  24.147  35.706  1.00  0.00    -0.272 N 
ATOM     23  H3  UNL     1      21.991  24.004  36.072  1.00  0.00     0.190 HD
BRANCH  22  24
HETATM   24  N4  UNL     1      23.281  23.717  34.385  1.00  0.00    -0.342 N 
ATOM     25  H42 UNL     1      24.113  24.092  33.930  1.00  0.00     0.176 HD
ATOM     26  H41 UNL     1      22.679  23.034  33.924  1.00  0.00     0.176 HD
ENDBRANCH  22  24
ENDBRANCH  19  22
ENDBRANCH  17  19
ENDBRANCH   9  15
TORSDOF 6
ENDMDL
MODEL 2
REMARK VINA RESULT: -9.041899086      1.868      2.984
REMARK  6 active torsions:
REMARK  status: ('A' for Active; 'I' for Inactive)
REMARK    1  A    between atoms: C7_8  and  O1_9 
REMARK    2  A    between atoms: C8_11  and  C9_12 
REMARK       I    between atoms: C9_12  and  N2_14 
REMARK    3  A    between atoms: N2_14  and  C10_16 
REMARK    4  A    between atoms: C10_16  and  O3_17 
REMARK    5  A    between atoms: C10_16  and  N3_19 
REMARK    6  A    between atoms: N3_19  and  N4_21 
ROOT
HETATM    1  C1  UNL     1      27.047  27.608  36.480  1.00  0.00     0.052 C 
HETATM    2  C2  UNL     1      26.380  28.604  35.593  1.00  0.00    -0.009 A 
HETATM    3  C3  UNL     1      26.979  29.840  35.478  1.00  0.00     0.083 A 
HETATM    4  C4  UNL     1      26.412  30.791  34.675  1.00  0.00     0.001 A 
HETATM    5  C5  UNL     1      25.261  30.505  33.999  1.00  0.00     0.087 A 
HETATM    6  C6  UNL     1      24.633  31.498  33.136  1.00  0.00     0.103 C 
HETATM    7  N1  UNL     1      24.147  32.294  32.452  1.00  0.00    -0.191 NA
HETATM    8  C7  UNL     1      24.656  29.244  34.120  1.00  0.00     0.103 A 
HETATM    9  C8  UNL     1      25.195  28.254  34.920  1.00  0.00     0.075 A 
HETATM   10  C11 UNL     1      27.278  31.994  34.755  1.00  0.00     0.070 C 
HETATM   11  C12 UNL     1      27.940  31.804  36.102  1.00  0.00     0.180 C 
HETATM   12  O4  UNL     1      28.153  30.382  36.060  1.00  0.00    -0.350 OA
ENDROOT
BRANCH   8  13
HETATM   13  O1  UNL     1      23.501  29.044  33.404  1.00  0.00    -0.358 OA
ATOM     14  H1  UNL     1      23.565  28.483  32.640  1.00  0.00     0.217 HD
ENDBRANCH   8  13
BRANCH   9  15
HETATM   15  C9  UNL     1      24.618  26.937  35.085  1.00  0.00     0.262 C 
HETATM   16  O2  UNL     1      24.270  26.328  34.044  1.00  0.00    -0.267 OA
HETATM   17  N2  UNL     1      24.407  26.265  36.295  1.00  0.00    -0.287 N 
ATOM     18  H2  UNL     1      24.690  26.759  37.141  1.00  0.00     0.172 HD
BRANCH  17  19
HETATM   19  C10 UNL     1      23.850  24.985  36.479  1.00  0.00     0.238 C 
BRANCH  19  20
HETATM   20  O3  UNL     1      24.328  24.311  37.489  1.00  0.00    -0.331 OA
ATOM     21  H3  UNL     1      23.676  23.955  38.082  1.00  0.00     0.221 HD
ENDBRANCH  19  20
BRANCH  19  22
HETATM   22  N3  UNL     1      22.855  24.396  35.691  1.00  0.00    -0.272 N 
ATOM     23  H3  UNL     1      21.869  24.496  35.932  1.00  0.00     0.190 HD
BRANCH  22  24
HETATM   24  N4  UNL     1      23.257  23.650  34.535  1.00  0.00    -0.342 N 
ATOM     25  H42 UNL     1      22.690  22.865  34.215  1.00  0.00     0.176 HD
ATOM     26  H41 UNL     1      24.112  23.927  34.054  1.00  0.00     0.176 HD
ENDBRANCH  22  24
ENDBRANCH  19  22
ENDBRANCH  17  19
ENDBRANCH   9  15
TORSDOF 6
ENDMDL
MODEL 3
REMARK VINA RESULT: -9.010948561      1.483      1.872
REMARK  6 active torsions:
REMARK  status: ('A' for Active; 'I' for Inactive)
REMARK    1  A    between atoms: C7_8  and  O1_9 
REMARK    2  A    between atoms: C8_11  and  C9_12 
REMARK       I    between atoms: C9_12  and  N2_14 
REMARK    3  A    between atoms: N2_14  and  C10_16 
REMARK    4  A    between atoms: C10_16  and  O3_17 
REMARK    5  A    between atoms: C10_16  and  N3_19 
REMARK    6  A    between atoms: N3_19  and  N4_21 
ROOT
HETATM    1  C1  UNL     1      24.453  29.350  33.114  1.00  0.00     0.052 C 
HETATM    2  C2  UNL     1      25.433  29.458  34.233  1.00  0.00    -0.009 A 
HETATM    3  C3  UNL     1      26.037  30.683  34.421  1.00  0.00     0.083 A 
HETATM    4  C4  UNL     1      26.942  30.839  35.434  1.00  0.00     0.001 A 
HETATM    5  C5  UNL     1      27.237  29.781  36.245  1.00  0.00     0.087 A 
HETATM    6  C6  UNL     1      28.198  29.917  37.333  1.00  0.00     0.103 C 
HETATM    7  N1  UNL     1      28.959  30.038  38.195  1.00  0.00    -0.191 NA
HETATM    8  C7  UNL     1      26.619  28.536  36.049  1.00  0.00     0.103 A 
HETATM    9  C8  UNL     1      25.697  28.334  35.038  1.00  0.00     0.075 A 
HETATM   10  C11 UNL     1      27.408  32.247  35.382  1.00  0.00     0.070 C 
HETATM   11  C12 UNL     1      27.164  32.596  33.930  1.00  0.00     0.180 C 
HETATM   12  O4  UNL     1      25.911  31.917  33.734  1.00  0.00    -0.350 OA
ENDROOT
BRANCH   8  13
HETATM   13  O1  UNL     1      26.974  27.529  36.911  1.00  0.00    -0.358 OA
ATOM     14  H1  UNL     1      27.733  27.010  36.671  1.00  0.00     0.217 HD
ENDBRANCH   8  13
BRANCH   9  15
HETATM   15  C9  UNL     1      25.028  27.077  34.785  1.00  0.00     0.262 C 
HETATM   16  O2  UNL     1      24.345  26.592  35.720  1.00  0.00    -0.267 OA
HETATM   17  N2  UNL     1      25.061  26.338  33.596  1.00  0.00    -0.287 N 
ATOM     18  H2  UNL     1      25.615  26.732  32.836  1.00  0.00     0.172 HD
BRANCH  17  19
HETATM   19  C10 UNL     1      24.417  25.115  33.329  1.00  0.00     0.238 C 
BRANCH  19  20
HETATM   20  O3  UNL     1      23.775  25.062  32.194  1.00  0.00    -0.331 OA
ATOM     21  H3  UNL     1      23.477  24.197  31.938  1.00  0.00     0.221 HD
ENDBRANCH  19  20
BRANCH  19  22
HETATM   22  N3  UNL     1      24.411  23.986  34.156  1.00  0.00    -0.272 N 
ATOM     23  H3  UNL     1      25.192  23.330  34.151  1.00  0.00     0.190 HD
BRANCH  22  24
HETATM   24  N4  UNL     1      23.281  23.775  35.010  1.00  0.00    -0.342 N 
ATOM     25  H42 UNL     1      23.421  23.598  36.005  1.00  0.00     0.176 HD
ATOM     26  H41 UNL     1      22.349  23.810  34.596  1.00  0.00     0.176 HD
ENDBRANCH  22  24
ENDBRANCH  19  22
ENDBRANCH  17  19
ENDBRANCH   9  15
TORSDOF 6
ENDMDL
MODEL 4
REMARK VINA RESULT: -8.882324718      1.221      1.417
REMARK  6 active torsions:
REMARK  status: ('A' for Active; 'I' for Inactive)
REMARK    1  A    between atoms: C7_8  and  O1_9 
REMARK    2  A    between atoms: C8_11  and  C9_12 
REMARK       I    between atoms: C9_12  and  N2_14 
REMARK    3  A    between atoms: N2_14  and  C10_16 
REMARK    4  A    between atoms: C10_16  and  O3_17 
REMARK    5  A    between atoms: C10_16  and  N3_19 
REMARK    6  A    between atoms: N3_19  and  N4_21 
ROOT
HETATM    1  C1  UNL     1      23.317  28.635  33.339  1.00  0.00     0.052 C 
HETATM    2  C2  UNL     1      24.529  29.229  33.975  1.00  0.00    -0.009 A 
HETATM    3  C3  UNL     1      24.752  30.573  33.763  1.00  0.00     0.083 A 
HETATM    4  C4  UNL     1      25.846  31.171  34.324  1.00  0.00     0.001 A 
HETATM    5  C5  UNL     1      26.704  30.430  35.086  1.00  0.00     0.087 A 
HETATM    6  C6  UNL     1      27.879  31.038  35.697  1.00  0.00     0.103 C 
HETATM    7  N1  UNL     1      28.806  31.534  36.179  1.00  0.00    -0.191 NA
HETATM    8  C7  UNL     1      26.471  29.061  35.298  1.00  0.00     0.103 A 
HETATM    9  C8  UNL     1      25.377  28.417  34.750  1.00  0.00     0.075 A 
HETATM   10  C11 UNL     1      25.811  32.599  33.923  1.00  0.00     0.070 C 
HETATM   11  C12 UNL     1      25.004  32.536  32.645  1.00  0.00     0.180 C 
HETATM   12  O4  UNL     1      24.032  31.549  33.029  1.00  0.00    -0.350 OA
ENDROOT
BRANCH   8  13
HETATM   13  O1  UNL     1      27.385  28.395  36.077  1.00  0.00    -0.358 OA
ATOM     14  H1  UNL     1      28.302  28.528  35.867  1.00  0.00     0.217 HD
ENDBRANCH   8  13
BRANCH   9  15
HETATM   15  C9  UNL     1      25.084  27.012  34.932  1.00  0.00     0.262 C 
HETATM   16  O2  UNL     1      25.636  26.205  34.145  1.00  0.00    -0.267 OA
HETATM   17  N2  UNL     1      24.244  26.454  35.902  1.00  0.00    -0.287 N 
ATOM     18  H2  UNL     1      23.796  27.110  36.542  1.00  0.00     0.172 HD
BRANCH  17  19
HETATM   19  C10 UNL     1      23.946  25.092  36.097  1.00  0.00     0.238 C 
BRANCH  19  20
HETATM   20  O3  UNL     1      23.075  24.589  35.265  1.00  0.00    -0.331 OA
ATOM     21  H3  UNL     1      22.427  24.015  35.657  1.00  0.00     0.221 HD
ENDBRANCH  19  20
BRANCH  19  22
HETATM   22  N3  UNL     1      24.492  24.259  37.080  1.00  0.00    -0.272 N 
ATOM     23  H3  UNL     1      24.257  23.267  37.115  1.00  0.00     0.190 HD
BRANCH  22  24
HETATM   24  N4  UNL     1      25.391  24.835  38.036  1.00  0.00    -0.342 N 
ATOM     25  H42 UNL     1      25.745  25.781  37.895  1.00  0.00     0.176 HD
ATOM     26  H41 UNL     1      25.657  24.276  38.847  1.00  0.00     0.176 HD
ENDBRANCH  22  24
ENDBRANCH  19  22
ENDBRANCH  17  19
ENDBRANCH   9  15
TORSDOF 6
ENDMDL
MODEL 5
REMARK VINA RESULT: -8.799115901      1.032      1.064
REMARK  6 active torsions:
REMARK  status: ('A' for Active; 'I' for Inactive)
REMARK    1  A    between atoms: C7_8  and  O1_9 
REMARK    2  A    between atoms: C8_11  and  C9_12 
REMARK       I    between atoms: C9_12  and  N2_14 
REMARK    3  A    between atoms: N2_14  and  C10_16 
REMARK    4  A    between atoms: C10_16  and  O3_17 
REMARK    5  A    between atoms: C10_16  and  N3_19 
REMARK    6  A    between atoms: N3_19  and  N4_21 
ROOT
HETATM    1  C1  UNL     1      23.740  28.399  33.932  1.00  0.00     0.052 C 
HETATM    2  C2  UNL     1      24.904  29.200  34.410  1.00  0.00    -0.009 A 
HETATM    3  C3  UNL     1      25.018  30.487  33.928  1.00  0.00     0.083 A 
HETATM    4  C4  UNL     1      26.064  31.268  34.336  1.00  0.00     0.001 A 
HETATM    5  C5  UNL     1      26.982  30.764  35.212  1.00  0.00     0.087 A 
HETATM    6  C6  UNL     1      28.108  31.572  35.664  1.00  0.00     0.103 C 
HETATM    7  N1  UNL     1      28.995  32.224  36.018  1.00  0.00    -0.191 NA
HETATM    8  C7  UNL     1      26.860  29.453  35.699  1.00  0.00     0.103 A 
HETATM    9  C8  UNL     1      25.818  28.629  35.314  1.00  0.00     0.075 A 
HETATM   10  C11 UNL     1      25.913  32.579  33.658  1.00  0.00     0.070 C 
HETATM   11  C12 UNL     1      25.108  32.198  32.434  1.00  0.00     0.180 C 
HETATM   12  O4  UNL     1      24.219  31.237  33.029  1.00  0.00    -0.350 OA
ENDROOT
BRANCH   8  13
HETATM   13  O1  UNL     1      27.828  29.029  36.576  1.00  0.00    -0.358 OA
ATOM     14  H1  UNL     1      28.711  28.957  36.234  1.00  0.00     0.217 HD
ENDBRANCH   8  13
BRANCH   9  15
HETATM   15  C9  UNL     1      25.639  27.271  35.780  1.00  0.00     0.262 C 
HETATM   16  O2  UNL     1      26.676  26.599  36.003  1.00  0.00    -0.267 OA
HETATM   17  N2  UNL     1      24.420  26.622  36.011  1.00  0.00    -0.287 N 
ATOM     18  H2  UNL     1      23.577  27.168  35.830  1.00  0.00     0.172 HD
BRANCH  17  19
HETATM   19  C10 UNL     1      24.223  25.304  36.464  1.00  0.00     0.238 C 
BRANCH  19  20
HETATM   20  O3  UNL     1      24.534  25.094  37.714  1.00  0.00    -0.331 OA
ATOM     21  H3  UNL     1      23.842  25.274  38.339  1.00  0.00     0.221 HD
ENDBRANCH  19  20
BRANCH  19  22
HETATM   22  N3  UNL     1      23.734  24.234  35.706  1.00  0.00    -0.272 N 
ATOM     23  H3  UNL     1      23.688  23.294  36.098  1.00  0.00     0.190 HD
BRANCH  22  24
HETATM   24  N4  UNL     1      23.300  24.493  34.365  1.00  0.00    -0.342 N 
ATOM     25  H42 UNL     1      23.942  24.349  33.586  1.00  0.00     0.176 HD
ATOM     26  H41 UNL     1      22.344  24.820  34.221  1.00  0.00     0.176 HD
ENDBRANCH  22  24
ENDBRANCH  19  22
ENDBRANCH  17  19
ENDBRANCH   9  15
TORSDOF 6
ENDMDL
