MODEL 1
REMARK VINA RESULT: -8.218623597      0.000      0.000
REMARK  4 active torsions:
REMARK  status: ('A' for Active; 'I' for Inactive)
REMARK    1  A    between atoms: O1_2  and  C2_3 
REMARK    2  A    between atoms: C2_3  and  C3_5 
REMARK    3  A    between atoms: C5_10  and  N2_11 
REMARK    4  A    between atoms: C6_16  and  N4_17 
REMARK       I    between atoms: N4_17  and  C7_19 
ROOT
HETATM    1  C3  UNL     1      24.750  26.802  35.503  1.00  0.00     0.116 A 
HETATM    2  N1  UNL     1      25.728  27.148  36.394  1.00  0.00    -0.344 N 
ATOM      3  H1  UNL     1      25.997  26.589  37.203  1.00  0.00     0.167 HD
HETATM    4  C4  UNL     1      26.278  28.309  36.064  1.00  0.00     0.092 A 
HETATM    5  S1  UNL     1      27.521  29.300  36.723  1.00  0.00    -0.036 SA
HETATM    6  C5  UNL     1      27.773  30.714  35.812  1.00  0.00     0.145 A 
HETATM    7  N3  UNL     1      26.973  30.825  34.741  1.00  0.00    -0.322 N 
ATOM      8  H3  UNL     1      27.096  31.661  34.169  1.00  0.00     0.169 HD
HETATM    9  C6  UNL     1      26.035  29.967  34.339  1.00  0.00     0.124 A 
HETATM   10  C8  UNL     1      25.676  28.785  34.922  1.00  0.00     0.050 A 
HETATM   11  C9  UNL     1      24.715  27.808  34.594  1.00  0.00    -0.012 A 
HETATM   12  C10 UNL     1      23.823  27.905  33.424  1.00  0.00     0.052 C 
ENDROOT
BRANCH   9  13
HETATM   13  N4  UNL     1      25.366  30.281  33.255  1.00  0.00    -0.296 N 
HETATM   14  C7  UNL     1      24.716  31.527  33.119  1.00  0.00     0.334 C 
HETATM   15  N5  UNL     1      25.368  32.533  32.357  1.00  0.00    -0.040 NA
HETATM   16  O3  UNL     1      23.600  31.785  33.633  1.00  0.00    -0.251 OA
ATOM     17  H4  UNL     1      25.313  29.607  32.491  1.00  0.00     0.171 HD
ENDBRANCH   9  13
BRANCH   6  18
HETATM   18  N2  UNL     1      28.658  31.606  36.120  1.00  0.00    -0.380 N 
ATOM     19  H22 UNL     1      29.414  31.429  36.783  1.00  0.00     0.158 HD
ATOM     20  H21 UNL     1      28.664  32.545  35.725  1.00  0.00     0.158 HD
ENDBRANCH   6  18
BRANCH   1  21
HETATM   21  C2  UNL     1      24.000  25.571  35.648  1.00  0.00     0.310 C 
HETATM   22  O2  UNL     1      23.763  25.121  36.786  1.00  0.00    -0.258 OA
BRANCH  21  23
HETATM   23  O1  UNL     1      23.516  24.842  34.584  1.00  0.00    -0.321 OA
HETATM   24  C1  UNL     1      24.333  24.218  33.616  1.00  0.00     0.213 C 
ENDBRANCH  21  23
ENDBRANCH   1  21
TORSDOF 4
ENDMDL
MODEL 2
REMARK VINA RESULT: -7.793628662      3.048      4.904
REMARK  4 active torsions:
REMARK  status: ('A' for Active; 'I' for Inactive)
REMARK    1  A    between atoms: O1_2  and  C2_3 
REMARK    2  A    between atoms: C2_3  and  C3_5 
REMARK    3  A    between atoms: C5_10  and  N2_11 
REMARK    4  A    between atoms: C6_16  and  N4_17 
REMARK       I    between atoms: N4_17  and  C7_19 
ROOT
HETATM    1  C3  UNL     1      27.510  29.503  36.889  1.00  0.00     0.116 A 
HETATM    2  N1  UNL     1      26.787  28.354  36.726  1.00  0.00    -0.344 N 
ATOM      3  H1  UNL     1      26.835  27.548  37.349  1.00  0.00     0.167 HD
HETATM    4  C4  UNL     1      26.016  28.429  35.649  1.00  0.00     0.092 A 
HETATM    5  S1  UNL     1      24.889  27.378  34.881  1.00  0.00    -0.036 SA
HETATM    6  C5  UNL     1      24.204  28.073  33.488  1.00  0.00     0.145 A 
HETATM    7  N3  UNL     1      24.647  29.311  33.218  1.00  0.00    -0.322 N 
ATOM      8  H3  UNL     1      24.257  29.760  32.389  1.00  0.00     0.169 HD
HETATM    9  C6  UNL     1      25.538  30.020  33.910  1.00  0.00     0.124 A 
HETATM   10  C8  UNL     1      26.202  29.651  35.046  1.00  0.00     0.050 A 
HETATM   11  C9  UNL     1      27.152  30.305  35.855  1.00  0.00    -0.012 A 
HETATM   12  C10 UNL     1      27.656  31.664  35.582  1.00  0.00     0.052 C 
ENDROOT
BRANCH   9  13
HETATM   13  N4  UNL     1      25.825  31.218  33.460  1.00  0.00    -0.296 N 
HETATM   14  C7  UNL     1      24.842  32.045  32.873  1.00  0.00     0.334 C 
HETATM   15  N5  UNL     1      24.276  33.071  33.676  1.00  0.00    -0.040 NA
HETATM   16  O3  UNL     1      24.451  31.919  31.686  1.00  0.00    -0.251 OA
ATOM     17  H4  UNL     1      26.783  31.561  33.535  1.00  0.00     0.171 HD
ENDBRANCH   9  13
BRANCH   6  18
HETATM   18  N2  UNL     1      23.331  27.465  32.751  1.00  0.00    -0.380 N 
ATOM     19  H22 UNL     1      22.925  26.565  33.005  1.00  0.00     0.158 HD
ATOM     20  H21 UNL     1      22.990  27.842  31.867  1.00  0.00     0.158 HD
ENDBRANCH   6  18
BRANCH   1  21
HETATM   21  C2  UNL     1      28.428  29.665  37.997  1.00  0.00     0.310 C 
HETATM   22  O2  UNL     1      28.395  28.864  38.951  1.00  0.00    -0.258 OA
BRANCH  21  23
HETATM   23  O1  UNL     1      29.362  30.674  38.073  1.00  0.00    -0.321 OA
HETATM   24  C1  UNL     1      29.386  31.658  39.086  1.00  0.00     0.213 C 
ENDBRANCH  21  23
ENDBRANCH   1  21
TORSDOF 4
ENDMDL
MODEL 3
REMARK VINA RESULT: -7.730600704      0.589      1.048
REMARK  4 active torsions:
REMARK  status: ('A' for Active; 'I' for Inactive)
REMARK    1  A    between atoms: O1_2  and  C2_3 
REMARK    2  A    between atoms: C2_3  and  C3_5 
REMARK    3  A    between atoms: C5_10  and  N2_11 
REMARK    4  A    between atoms: C6_16  and  N4_17 
REMARK       I    between atoms: N4_17  and  C7_19 
ROOT
HETATM    1  C3  UNL     1      24.812  26.946  35.256  1.00  0.00     0.116 A 
HETATM    2  N1  UNL     1      25.738  27.257  36.212  1.00  0.00    -0.344 N 
ATOM      3  H1  UNL     1      25.976  26.659  37.003  1.00  0.00     0.167 HD
HETATM    4  C4  UNL     1      26.286  28.441  35.972  1.00  0.00     0.092 A 
HETATM    5  S1  UNL     1      27.479  29.412  36.745  1.00  0.00    -0.036 SA
HETATM    6  C5  UNL     1      27.753  30.876  35.923  1.00  0.00     0.145 A 
HETATM    7  N3  UNL     1      27.005  31.034  34.821  1.00  0.00    -0.322 N 
ATOM      8  H3  UNL     1      27.143  31.901  34.302  1.00  0.00     0.169 HD
HETATM    9  C6  UNL     1      26.103  30.187  34.328  1.00  0.00     0.124 A 
HETATM   10  C8  UNL     1      25.734  28.970  34.828  1.00  0.00     0.050 A 
HETATM   11  C9  UNL     1      24.806  28.000  34.401  1.00  0.00    -0.012 A 
HETATM   12  C10 UNL     1      23.971  28.148  33.194  1.00  0.00     0.052 C 
ENDROOT
BRANCH   9  13
HETATM   13  N4  UNL     1      25.483  30.550  33.229  1.00  0.00    -0.296 N 
HETATM   14  C7  UNL     1      24.813  31.789  33.130  1.00  0.00     0.334 C 
HETATM   15  N5  UNL     1      25.481  32.849  32.462  1.00  0.00    -0.040 NA
HETATM   16  O3  UNL     1      23.667  31.996  33.599  1.00  0.00    -0.251 OA
ATOM     17  H4  UNL     1      25.484  29.920  32.427  1.00  0.00     0.171 HD
ENDBRANCH   9  13
BRANCH   6  18
HETATM   18  N2  UNL     1      28.608  31.762  36.323  1.00  0.00    -0.380 N 
ATOM     19  H22 UNL     1      28.638  32.106  37.283  1.00  0.00     0.158 HD
ATOM     20  H21 UNL     1      29.309  32.176  35.710  1.00  0.00     0.158 HD
ENDBRANCH   6  18
BRANCH   1  21
HETATM   21  C2  UNL     1      24.075  25.700  35.297  1.00  0.00     0.310 C 
HETATM   22  O2  UNL     1      23.692  25.172  34.236  1.00  0.00    -0.258 OA
BRANCH  21  23
HETATM   23  O1  UNL     1      23.757  25.040  36.464  1.00  0.00    -0.321 OA
HETATM   24  C1  UNL     1      23.762  23.635  36.605  1.00  0.00     0.213 C 
ENDBRANCH  21  23
ENDBRANCH   1  21
TORSDOF 4
ENDMDL
MODEL 4
REMARK VINA RESULT: -7.402779946      2.829      5.813
REMARK  4 active torsions:
REMARK  status: ('A' for Active; 'I' for Inactive)
REMARK    1  A    between atoms: O1_2  and  C2_3 
REMARK    2  A    between atoms: C2_3  and  C3_5 
REMARK    3  A    between atoms: C5_10  and  N2_11 
REMARK    4  A    between atoms: C6_16  and  N4_17 
REMARK       I    between atoms: N4_17  and  C7_19 
ROOT
HETATM    1  C3  UNL     1      25.012  31.294  33.132  1.00  0.00     0.116 A 
HETATM    2  N1  UNL     1      24.481  30.064  32.863  1.00  0.00    -0.344 N 
ATOM      3  H1  UNL     1      23.900  29.849  32.053  1.00  0.00     0.167 HD
HETATM    4  C4  UNL     1      24.825  29.186  33.796  1.00  0.00     0.092 A 
HETATM    5  S1  UNL     1      24.515  27.516  34.073  1.00  0.00    -0.036 SA
HETATM    6  C5  UNL     1      25.260  26.947  35.492  1.00  0.00     0.145 A 
HETATM    7  N3  UNL     1      25.959  27.880  36.157  1.00  0.00    -0.322 N 
ATOM      8  H3  UNL     1      26.420  27.574  37.014  1.00  0.00     0.169 HD
HETATM    9  C6  UNL     1      26.118  29.160  35.824  1.00  0.00     0.124 A 
HETATM   10  C8  UNL     1      25.610  29.813  34.737  1.00  0.00     0.050 A 
HETATM   11  C9  UNL     1      25.709  31.144  34.286  1.00  0.00    -0.012 A 
HETATM   12  C10 UNL     1      26.469  32.190  34.996  1.00  0.00     0.052 C 
ENDROOT
BRANCH   9  13
HETATM   13  N4  UNL     1      26.848  29.898  36.627  1.00  0.00    -0.296 N 
HETATM   14  C7  UNL     1      28.217  29.626  36.845  1.00  0.00     0.334 C 
HETATM   15  N5  UNL     1      29.166  30.411  36.138  1.00  0.00    -0.040 NA
HETATM   16  O3  UNL     1      28.629  28.734  37.626  1.00  0.00    -0.251 OA
ATOM     17  H4  UNL     1      26.416  30.688  37.106  1.00  0.00     0.171 HD
ENDBRANCH   9  13
BRANCH   6  18
HETATM   18  N2  UNL     1      25.164  25.722  35.898  1.00  0.00    -0.380 N 
ATOM     19  H22 UNL     1      24.356  25.134  35.694  1.00  0.00     0.158 HD
ATOM     20  H21 UNL     1      25.887  25.259  36.450  1.00  0.00     0.158 HD
ENDBRANCH   6  18
BRANCH   1  21
HETATM   21  C2  UNL     1      24.780  32.424  32.255  1.00  0.00     0.310 C 
HETATM   22  O2  UNL     1      24.544  33.547  32.741  1.00  0.00    -0.258 OA
BRANCH  21  23
HETATM   23  O1  UNL     1      24.800  32.340  30.880  1.00  0.00    -0.321 OA
HETATM   24  C1  UNL     1      24.443  33.399  30.017  1.00  0.00     0.213 C 
ENDBRANCH  21  23
ENDBRANCH   1  21
TORSDOF 4
ENDMDL
MODEL 5
REMARK VINA RESULT: -7.378158883      1.283      1.326
REMARK  4 active torsions:
REMARK  status: ('A' for Active; 'I' for Inactive)
REMARK    1  A    between atoms: O1_2  and  C2_3 
REMARK    2  A    between atoms: C2_3  and  C3_5 
REMARK    3  A    between atoms: C5_10  and  N2_11 
REMARK    4  A    between atoms: C6_16  and  N4_17 
REMARK       I    between atoms: N4_17  and  C7_19 
ROOT
HETATM    1  C3  UNL     1      25.488  27.443  35.275  1.00  0.00     0.116 A 
HETATM    2  N1  UNL     1      26.410  27.601  36.272  1.00  0.00    -0.344 N 
ATOM      3  H1  UNL     1      26.657  26.880  36.950  1.00  0.00     0.167 HD
HETATM    4  C4  UNL     1      26.940  28.816  36.238  1.00  0.00     0.092 A 
HETATM    5  S1  UNL     1      28.119  29.658  37.168  1.00  0.00    -0.036 SA
HETATM    6  C5  UNL     1      28.372  31.244  36.607  1.00  0.00     0.145 A 
HETATM    7  N3  UNL     1      27.621  31.577  35.546  1.00  0.00    -0.322 N 
ATOM      8  H3  UNL     1      27.746  32.522  35.182  1.00  0.00     0.169 HD
HETATM    9  C6  UNL     1      26.731  30.813  34.914  1.00  0.00     0.124 A 
HETATM   10  C8  UNL     1      26.381  29.524  35.199  1.00  0.00     0.050 A 
HETATM   11  C9  UNL     1      25.467  28.627  34.611  1.00  0.00    -0.012 A 
HETATM   12  C10 UNL     1      24.630  28.965  33.445  1.00  0.00     0.052 C 
ENDROOT
BRANCH   9  13
HETATM   13  N4  UNL     1      26.106  31.348  33.891  1.00  0.00    -0.296 N 
HETATM   14  C7  UNL     1      26.056  32.746  33.701  1.00  0.00     0.334 C 
HETATM   15  N5  UNL     1      26.955  33.318  32.762  1.00  0.00    -0.040 NA
HETATM   16  O3  UNL     1      25.262  33.500  34.316  1.00  0.00    -0.251 OA
ATOM     17  H4  UNL     1      25.644  30.738  33.216  1.00  0.00     0.171 HD
ENDBRANCH   9  13
BRANCH   6  18
HETATM   18  N2  UNL     1      29.213  32.062  37.154  1.00  0.00    -0.380 N 
ATOM     19  H22 UNL     1      30.087  32.337  36.705  1.00  0.00     0.158 HD
ATOM     20  H21 UNL     1      29.063  32.487  38.068  1.00  0.00     0.158 HD
ENDBRANCH   6  18
BRANCH   1  21
HETATM   21  C2  UNL     1      24.770  26.198  35.102  1.00  0.00     0.310 C 
HETATM   22  O2  UNL     1      24.032  25.778  36.014  1.00  0.00    -0.258 OA
BRANCH  21  23
HETATM   23  O1  UNL     1      24.848  25.422  33.967  1.00  0.00    -0.321 OA
HETATM   24  C1  UNL     1      24.030  24.298  33.717  1.00  0.00     0.213 C 
ENDBRANCH  21  23
ENDBRANCH   1  21
TORSDOF 4
ENDMDL
