MODEL 1
REMARK VINA RESULT: -7.875159363      0.000      0.000
REMARK  8 active torsions:
REMARK  status: ('A' for Active; 'I' for Inactive)
REMARK    1  A    between atoms: C2_2  and  C3_3 
REMARK    2  A    between atoms: C3_3  and  O1_4 
REMARK    3  A    between atoms: O1_4  and  C4_5 
REMARK       I    between atoms: C4_5  and  N1_7 
REMARK    4  A    between atoms: N1_7  and  N2_9 
REMARK    5  A    between atoms: N2_9  and  C5_11 
REMARK    6  A    between atoms: C5_11  and  O3_12 
REMARK    7  A    between atoms: C5_11  and  C6_14 
REMARK    8  A    between atoms: C8_18  and  C9_19 
ROOT
HETATM    1  C6  UNL     1      25.659  29.797  35.460  1.00  0.00     0.069 A 
HETATM    2  C7  UNL     1      26.655  30.710  35.815  1.00  0.00     0.104 A 
HETATM    3  N3  UNL     1      27.770  30.512  36.719  1.00  0.00    -0.093 NA
HETATM    4  S1  UNL     1      26.293  32.110  34.965  1.00  0.00    -0.070 SA
HETATM    5  C8  UNL     1      24.869  31.570  34.140  1.00  0.00     0.069 A 
HETATM    6  C10 UNL     1      24.739  30.286  34.577  1.00  0.00     0.082 A 
HETATM    7  C11 UNL     1      23.603  29.453  34.082  1.00  0.00     0.102 C 
HETATM    8  N6  UNL     1      22.693  28.814  33.672  1.00  0.00    -0.191 NA
ENDROOT
BRANCH   1   9
HETATM    9  C5  UNL     1      25.737  28.455  36.092  1.00  0.00     0.169 C 
BRANCH   9  10
HETATM   10  N2  UNL     1      24.744  27.647  36.614  1.00  0.00    -0.275 N 
ATOM     11  H2  UNL     1      24.614  27.609  37.625  1.00  0.00     0.189 HD
BRANCH  10  12
HETATM   12  N1  UNL     1      23.897  26.865  35.770  1.00  0.00    -0.243 N 
HETATM   13  C4  UNL     1      23.538  25.559  36.138  1.00  0.00     0.379 C 
HETATM   14  O2  UNL     1      23.988  25.088  37.239  1.00  0.00    -0.237 OA
ATOM     15  H1  UNL     1      23.552  27.258  34.895  1.00  0.00     0.192 HD
BRANCH  13  16
HETATM   16  O1  UNL     1      22.725  24.707  35.414  1.00  0.00    -0.299 OA
BRANCH  16  17
HETATM   17  C3  UNL     1      23.307  23.725  34.548  1.00  0.00     0.207 C 
BRANCH  17  18
HETATM   18  C2  UNL     1      23.100  24.050  33.133  1.00  0.00    -0.011 C 
HETATM   19  C1  UNL     1      23.498  25.217  32.653  1.00  0.00     0.009 C 
ENDBRANCH  17  18
ENDBRANCH  16  17
ENDBRANCH  13  16
ENDBRANCH  10  12
ENDBRANCH   9  10
BRANCH   9  20
HETATM   20  O3  UNL     1      26.919  27.912  36.193  1.00  0.00    -0.344 OA
ATOM     21  H3  UNL     1      27.454  28.070  35.424  1.00  0.00     0.219 HD
ENDBRANCH   9  20
ENDBRANCH   1   9
BRANCH   5  22
HETATM   22  C9  UNL     1      24.081  32.405  33.213  1.00  0.00     0.128 C 
HETATM   23  N4  UNL     1      23.829  32.176  32.045  1.00  0.00    -0.387 N 
ATOM     24  H42 UNL     1      24.207  31.312  31.659  1.00  0.00     0.157 HD
ATOM     25  H41 UNL     1      23.284  32.753  31.404  1.00  0.00     0.157 HD
HETATM   26  N5  UNL     1      23.535  33.649  33.768  1.00  0.00    -0.082 NA
ENDBRANCH   5  22
TORSDOF 8
ENDMDL
MODEL 2
REMARK VINA RESULT: -7.745913781      1.768      3.673
REMARK  8 active torsions:
REMARK  status: ('A' for Active; 'I' for Inactive)
REMARK    1  A    between atoms: C2_2  and  C3_3 
REMARK    2  A    between atoms: C3_3  and  O1_4 
REMARK    3  A    between atoms: O1_4  and  C4_5 
REMARK       I    between atoms: C4_5  and  N1_7 
REMARK    4  A    between atoms: N1_7  and  N2_9 
REMARK    5  A    between atoms: N2_9  and  C5_11 
REMARK    6  A    between atoms: C5_11  and  O3_12 
REMARK    7  A    between atoms: C5_11  and  C6_14 
REMARK    8  A    between atoms: C8_18  and  C9_19 
ROOT
HETATM    1  C6  UNL     1      24.862  30.016  34.804  1.00  0.00     0.069 A 
HETATM    2  C7  UNL     1      24.410  31.161  34.143  1.00  0.00     0.104 A 
HETATM    3  N3  UNL     1      23.207  31.321  33.351  1.00  0.00    -0.093 NA
HETATM    4  S1  UNL     1      25.565  32.336  34.459  1.00  0.00    -0.070 SA
HETATM    5  C8  UNL     1      26.647  31.402  35.437  1.00  0.00     0.069 A 
HETATM    6  C10 UNL     1      26.040  30.183  35.473  1.00  0.00     0.082 A 
HETATM    7  C11 UNL     1      26.675  29.069  36.240  1.00  0.00     0.102 C 
HETATM    8  N6  UNL     1      27.200  28.204  36.856  1.00  0.00    -0.191 NA
ENDROOT
BRANCH   1   9
HETATM    9  C5  UNL     1      24.015  28.802  34.676  1.00  0.00     0.169 C 
BRANCH   9  10
HETATM   10  N2  UNL     1      23.608  28.104  33.554  1.00  0.00    -0.275 N 
ATOM     11  H2  UNL     1      23.839  28.468  32.630  1.00  0.00     0.189 HD
BRANCH  10  12
HETATM   12  N1  UNL     1      22.872  26.884  33.660  1.00  0.00    -0.243 N 
HETATM   13  C4  UNL     1      23.542  25.652  33.726  1.00  0.00     0.379 C 
HETATM   14  O2  UNL     1      24.820  25.649  33.686  1.00  0.00    -0.237 OA
ATOM     15  H1  UNL     1      21.852  26.909  33.688  1.00  0.00     0.192 HD
BRANCH  13  16
HETATM   16  O1  UNL     1      22.946  24.409  33.835  1.00  0.00    -0.299 OA
BRANCH  16  17
HETATM   17  C3  UNL     1      23.080  23.654  35.045  1.00  0.00     0.207 C 
BRANCH  17  18
HETATM   18  C2  UNL     1      22.652  24.421  36.219  1.00  0.00    -0.011 C 
HETATM   19  C1  UNL     1      23.522  24.730  37.167  1.00  0.00     0.009 C 
ENDBRANCH  17  18
ENDBRANCH  16  17
ENDBRANCH  13  16
ENDBRANCH  10  12
ENDBRANCH   9  10
BRANCH   9  20
HETATM   20  O3  UNL     1      23.557  28.275  35.778  1.00  0.00    -0.344 OA
ATOM     21  H3  UNL     1      24.216  28.244  36.462  1.00  0.00     0.219 HD
ENDBRANCH   9  20
ENDBRANCH   1   9
BRANCH   5  22
HETATM   22  C9  UNL     1      27.894  31.927  36.025  1.00  0.00     0.128 C 
HETATM   23  N4  UNL     1      28.063  32.332  37.160  1.00  0.00    -0.387 N 
ATOM     24  H42 UNL     1      27.250  32.313  37.775  1.00  0.00     0.157 HD
ATOM     25  H41 UNL     1      28.924  32.695  37.567  1.00  0.00     0.157 HD
HETATM   26  N5  UNL     1      29.065  31.954  35.140  1.00  0.00    -0.082 NA
ENDBRANCH   5  22
TORSDOF 8
ENDMDL
MODEL 3
REMARK VINA RESULT: -7.549343534      1.666      3.887
REMARK  8 active torsions:
REMARK  status: ('A' for Active; 'I' for Inactive)
REMARK    1  A    between atoms: C2_2  and  C3_3 
REMARK    2  A    between atoms: C3_3  and  O1_4 
REMARK    3  A    between atoms: O1_4  and  C4_5 
REMARK       I    between atoms: C4_5  and  N1_7 
REMARK    4  A    between atoms: N1_7  and  N2_9 
REMARK    5  A    between atoms: N2_9  and  C5_11 
REMARK    6  A    between atoms: C5_11  and  O3_12 
REMARK    7  A    between atoms: C5_11  and  C6_14 
REMARK    8  A    between atoms: C8_18  and  C9_19 
ROOT
HETATM    1  C6  UNL     1      24.830  29.916  34.606  1.00  0.00     0.069 A 
HETATM    2  C7  UNL     1      24.904  31.267  34.257  1.00  0.00     0.104 A 
HETATM    3  N3  UNL     1      24.024  32.015  33.380  1.00  0.00    -0.093 NA
HETATM    4  S1  UNL     1      26.243  31.861  35.074  1.00  0.00    -0.070 SA
HETATM    5  C8  UNL     1      26.740  30.410  35.877  1.00  0.00     0.069 A 
HETATM    6  C10 UNL     1      25.812  29.503  35.460  1.00  0.00     0.082 A 
HETATM    7  C11 UNL     1      25.892  28.093  35.945  1.00  0.00     0.102 C 
HETATM    8  N6  UNL     1      25.979  26.982  36.346  1.00  0.00    -0.191 NA
ENDROOT
BRANCH   1   9
HETATM    9  C5  UNL     1      23.720  29.137  33.999  1.00  0.00     0.169 C 
BRANCH   9  10
HETATM   10  N2  UNL     1      23.746  28.045  33.152  1.00  0.00    -0.275 N 
ATOM     11  H2  UNL     1      24.366  28.057  32.342  1.00  0.00     0.189 HD
BRANCH  10  12
HETATM   12  N1  UNL     1      22.925  26.900  33.385  1.00  0.00    -0.243 N 
HETATM   13  C4  UNL     1      23.506  25.641  33.607  1.00  0.00     0.379 C 
HETATM   14  O2  UNL     1      24.781  25.546  33.593  1.00  0.00    -0.237 OA
ATOM     15  H1  UNL     1      21.910  26.997  33.389  1.00  0.00     0.192 HD
BRANCH  13  16
HETATM   16  O1  UNL     1      22.822  24.463  33.848  1.00  0.00    -0.299 OA
BRANCH  16  17
HETATM   17  C3  UNL     1      23.111  23.695  35.023  1.00  0.00     0.207 C 
BRANCH  17  18
HETATM   18  C2  UNL     1      22.630  24.356  36.240  1.00  0.00    -0.011 C 
HETATM   19  C1  UNL     1      23.469  24.634  37.224  1.00  0.00     0.009 C 
ENDBRANCH  17  18
ENDBRANCH  16  17
ENDBRANCH  13  16
ENDBRANCH  10  12
ENDBRANCH   9  10
BRANCH   9  20
HETATM   20  O3  UNL     1      22.504  29.511  34.285  1.00  0.00    -0.344 OA
ATOM     21  H3  UNL     1      21.867  28.829  34.105  1.00  0.00     0.219 HD
ENDBRANCH   9  20
ENDBRANCH   1   9
BRANCH   5  22
HETATM   22  C9  UNL     1      27.910  30.316  36.772  1.00  0.00     0.128 C 
HETATM   23  N4  UNL     1      29.080  30.470  36.478  1.00  0.00    -0.387 N 
ATOM     24  H42 UNL     1      29.278  30.684  35.501  1.00  0.00     0.157 HD
ATOM     25  H41 UNL     1      29.888  30.406  37.096  1.00  0.00     0.157 HD
HETATM   26  N5  UNL     1      27.625  30.009  38.179  1.00  0.00    -0.082 NA
ENDBRANCH   5  22
TORSDOF 8
ENDMDL
MODEL 4
REMARK VINA RESULT: -7.462885613      1.726      3.277
REMARK  8 active torsions:
REMARK  status: ('A' for Active; 'I' for Inactive)
REMARK    1  A    between atoms: C2_2  and  C3_3 
REMARK    2  A    between atoms: C3_3  and  O1_4 
REMARK    3  A    between atoms: O1_4  and  C4_5 
REMARK       I    between atoms: C4_5  and  N1_7 
REMARK    4  A    between atoms: N1_7  and  N2_9 
REMARK    5  A    between atoms: N2_9  and  C5_11 
REMARK    6  A    between atoms: C5_11  and  O3_12 
REMARK    7  A    between atoms: C5_11  and  C6_14 
REMARK    8  A    between atoms: C8_18  and  C9_19 
ROOT
HETATM    1  C6  UNL     1      25.277  29.348  35.193  1.00  0.00     0.069 A 
HETATM    2  C7  UNL     1      24.456  30.204  34.455  1.00  0.00     0.104 A 
HETATM    3  N3  UNL     1      23.191  29.900  33.815  1.00  0.00    -0.093 NA
HETATM    4  S1  UNL     1      25.245  31.684  34.461  1.00  0.00    -0.070 SA
HETATM    5  C8  UNL     1      26.634  31.251  35.400  1.00  0.00     0.069 A 
HETATM    6  C10 UNL     1      26.412  29.935  35.674  1.00  0.00     0.082 A 
HETATM    7  C11 UNL     1      27.407  29.176  36.487  1.00  0.00     0.102 C 
HETATM    8  N6  UNL     1      28.213  28.598  37.136  1.00  0.00    -0.191 NA
ENDROOT
BRANCH   1   9
HETATM    9  C5  UNL     1      24.809  27.945  35.337  1.00  0.00     0.169 C 
BRANCH   9  10
HETATM   10  N2  UNL     1      24.340  27.261  36.443  1.00  0.00    -0.275 N 
ATOM     11  H2  UNL     1      24.614  27.575  37.375  1.00  0.00     0.189 HD
BRANCH  10  12
HETATM   12  N1  UNL     1      23.483  26.126  36.313  1.00  0.00    -0.243 N 
HETATM   13  C4  UNL     1      23.678  24.991  37.116  1.00  0.00     0.379 C 
HETATM   14  O2  UNL     1      24.639  24.999  37.960  1.00  0.00    -0.237 OA
ATOM     15  H1  UNL     1      22.724  26.140  35.631  1.00  0.00     0.192 HD
BRANCH  13  16
HETATM   16  O1  UNL     1      22.917  23.837  37.088  1.00  0.00    -0.299 OA
BRANCH  16  17
HETATM   17  C3  UNL     1      22.918  23.007  35.920  1.00  0.00     0.207 C 
BRANCH  17  18
HETATM   18  C2  UNL     1      22.605  23.768  34.707  1.00  0.00    -0.011 C 
HETATM   19  C1  UNL     1      23.398  23.696  33.651  1.00  0.00     0.009 C 
ENDBRANCH  17  18
ENDBRANCH  16  17
ENDBRANCH  13  16
ENDBRANCH  10  12
ENDBRANCH   9  10
BRANCH   9  20
HETATM   20  O3  UNL     1      24.827  27.198  34.267  1.00  0.00    -0.344 OA
ATOM     21  H3  UNL     1      25.424  27.531  33.607  1.00  0.00     0.219 HD
ENDBRANCH   9  20
ENDBRANCH   1   9
BRANCH   5  22
HETATM   22  C9  UNL     1      27.724  32.184  35.746  1.00  0.00     0.128 C 
HETATM   23  N4  UNL     1      27.834  32.850  36.757  1.00  0.00    -0.387 N 
ATOM     24  H42 UNL     1      27.086  32.758  37.445  1.00  0.00     0.157 HD
ATOM     25  H41 UNL     1      28.587  33.494  36.997  1.00  0.00     0.157 HD
HETATM   26  N5  UNL     1      28.801  32.315  34.756  1.00  0.00    -0.082 NA
ENDBRANCH   5  22
TORSDOF 8
ENDMDL
MODEL 5
REMARK VINA RESULT: -7.438440593      1.430      1.607
REMARK  8 active torsions:
REMARK  status: ('A' for Active; 'I' for Inactive)
REMARK    1  A    between atoms: C2_2  and  C3_3 
REMARK    2  A    between atoms: C3_3  and  O1_4 
REMARK    3  A    between atoms: O1_4  and  C4_5 
REMARK       I    between atoms: C4_5  and  N1_7 
REMARK    4  A    between atoms: N1_7  and  N2_9 
REMARK    5  A    between atoms: N2_9  and  C5_11 
REMARK    6  A    between atoms: C5_11  and  O3_12 
REMARK    7  A    between atoms: C5_11  and  C6_14 
REMARK    8  A    between atoms: C8_18  and  C9_19 
ROOT
HETATM    1  C6  UNL     1      25.972  29.033  35.927  1.00  0.00     0.069 A 
HETATM    2  C7  UNL     1      27.120  29.351  36.657  1.00  0.00     0.104 A 
HETATM    3  N3  UNL     1      27.837  28.520  37.604  1.00  0.00    -0.093 NA
HETATM    4  S1  UNL     1      27.510  30.918  36.206  1.00  0.00    -0.070 SA
HETATM    5  C8  UNL     1      26.225  31.208  35.080  1.00  0.00     0.069 A 
HETATM    6  C10 UNL     1      25.532  30.034  35.109  1.00  0.00     0.082 A 
HETATM    7  C11 UNL     1      24.321  29.875  34.251  1.00  0.00     0.102 C 
HETATM    8  N6  UNL     1      23.364  29.776  33.559  1.00  0.00    -0.191 NA
ENDROOT
BRANCH   1   9
HETATM    9  C5  UNL     1      25.400  27.681  36.151  1.00  0.00     0.169 C 
BRANCH   9  10
HETATM   10  N2  UNL     1      24.106  27.288  36.439  1.00  0.00    -0.275 N 
ATOM     11  H2  UNL     1      23.535  27.866  37.057  1.00  0.00     0.189 HD
BRANCH  10  12
HETATM   12  N1  UNL     1      23.549  26.092  35.891  1.00  0.00    -0.243 N 
HETATM   13  C4  UNL     1      23.603  24.887  36.611  1.00  0.00     0.379 C 
HETATM   14  O2  UNL     1      24.164  24.888  37.760  1.00  0.00    -0.237 OA
ATOM     15  H1  UNL     1      23.109  26.113  34.971  1.00  0.00     0.192 HD
BRANCH  13  16
HETATM   16  O1  UNL     1      23.099  23.669  36.193  1.00  0.00    -0.299 OA
BRANCH  16  17
HETATM   17  C3  UNL     1      22.555  23.534  34.874  1.00  0.00     0.207 C 
BRANCH  17  18
HETATM   18  C2  UNL     1      23.565  23.776  33.839  1.00  0.00    -0.011 C 
HETATM   19  C1  UNL     1      23.246  24.434  32.737  1.00  0.00     0.009 C 
ENDBRANCH  17  18
ENDBRANCH  16  17
ENDBRANCH  13  16
ENDBRANCH  10  12
ENDBRANCH   9  10
BRANCH   9  20
HETATM   20  O3  UNL     1      26.217  26.667  36.075  1.00  0.00    -0.344 OA
ATOM     21  H3  UNL     1      26.361  26.257  36.920  1.00  0.00     0.219 HD
ENDBRANCH   9  20
ENDBRANCH   1   9
BRANCH   5  22
HETATM   22  C9  UNL     1      26.042  32.469  34.338  1.00  0.00     0.128 C 
HETATM   23  N4  UNL     1      25.024  33.127  34.239  1.00  0.00    -0.387 N 
ATOM     24  H42 UNL     1      24.200  32.766  34.720  1.00  0.00     0.157 HD
ATOM     25  H41 UNL     1      24.896  33.999  33.726  1.00  0.00     0.157 HD
HETATM   26  N5  UNL     1      27.227  32.990  33.645  1.00  0.00    -0.082 NA
ENDBRANCH   5  22
TORSDOF 8
ENDMDL
