MODEL 1
REMARK VINA RESULT: -9.354619814      0.000      0.000
REMARK  4 active torsions:
REMARK  status: ('A' for Active; 'I' for Inactive)
REMARK    1  A    between atoms: C4_5  and  C5_6 
REMARK    2  A    between atoms: C6_7  and  C7_8 
REMARK    3  A    between atoms: C12_14  and  C13_15 
REMARK    4  A    between atoms: C14_16  and  C15_17 
ROOT
HETATM    1  N1  UNL     1      16.292  -6.551  41.472  1.00  0.00    -0.101 NA
HETATM    2  C1  UNL     1      17.683  -6.711  41.678  1.00  0.00     0.065 A 
HETATM    3  C2  UNL     1      18.249  -6.524  42.911  1.00  0.00     0.029 A 
HETATM    4  C3  UNL     1      19.608  -6.686  43.083  1.00  0.00     0.022 A 
HETATM    5  C4  UNL     1      20.428  -7.039  42.033  1.00  0.00     0.019 A 
HETATM    6  C11 UNL     1      19.834  -7.221  40.808  1.00  0.00     0.043 A 
HETATM    7  C12 UNL     1      18.470  -7.063  40.608  1.00  0.00     0.043 A 
ENDROOT
BRANCH   7   8
HETATM    8  C13 UNL     1      17.836  -7.250  39.338  1.00  0.00    -0.059 C 
HETATM    9  C14 UNL     1      17.316  -7.403  38.247  1.00  0.00    -0.061 C 
BRANCH   9  10
HETATM   10  C15 UNL     1      16.711  -7.607  36.955  1.00  0.00     0.018 A 
HETATM   11  C16 UNL     1      16.291  -8.872  36.612  1.00  0.00     0.020 A 
HETATM   12  C17 UNL     1      15.703  -9.082  35.362  1.00  0.00     0.001 A 
HETATM   13  C18 UNL     1      15.535  -8.047  34.467  1.00  0.00     0.000 A 
HETATM   14  C19 UNL     1      15.953  -6.776  34.802  1.00  0.00     0.001 A 
HETATM   15  C20 UNL     1      16.535  -6.590  36.048  1.00  0.00     0.020 A 
ENDBRANCH   9  10
ENDBRANCH   7   8
BRANCH   5  16
HETATM   16  C5  UNL     1      21.834  -7.194  42.274  1.00  0.00    -0.061 C 
HETATM   17  C6  UNL     1      23.020  -7.316  42.459  1.00  0.00    -0.054 C 
BRANCH  17  18
HETATM   18  C7  UNL     1      24.449  -7.466  42.708  1.00  0.00     0.058 A 
HETATM   19  C8  UNL     1      25.362  -6.471  42.950  1.00  0.00     0.028 A 
HETATM   20  C9  UNL     1      26.633  -6.843  43.153  1.00  0.00     0.009 A 
HETATM   21  C10 UNL     1      26.915  -8.184  43.103  1.00  0.00     0.051 A 
HETATM   22  S1  UNL     1      25.392  -8.879  42.774  1.00  0.00    -0.093 SA
ENDBRANCH  17  18
ENDBRANCH   5  16
TORSDOF 4
ENDMDL
MODEL 2
REMARK VINA RESULT: -9.048542519      2.861      9.208
REMARK  4 active torsions:
REMARK  status: ('A' for Active; 'I' for Inactive)
REMARK    1  A    between atoms: C4_5  and  C5_6 
REMARK    2  A    between atoms: C6_7  and  C7_8 
REMARK    3  A    between atoms: C12_14  and  C13_15 
REMARK    4  A    between atoms: C14_16  and  C15_17 
ROOT
HETATM    1  N1  UNL     1      19.721  -8.161  44.346  1.00  0.00    -0.101 NA
HETATM    2  C1  UNL     1      19.180  -8.041  43.044  1.00  0.00     0.065 A 
HETATM    3  C2  UNL     1      17.843  -8.214  42.807  1.00  0.00     0.029 A 
HETATM    4  C3  UNL     1      17.342  -8.091  41.526  1.00  0.00     0.022 A 
HETATM    5  C4  UNL     1      18.164  -7.793  40.460  1.00  0.00     0.019 A 
HETATM    6  C11 UNL     1      19.500  -7.624  40.727  1.00  0.00     0.043 A 
HETATM    7  C12 UNL     1      20.028  -7.743  42.004  1.00  0.00     0.043 A 
ENDROOT
BRANCH   7   8
HETATM    8  C13 UNL     1      21.419  -7.570  42.298  1.00  0.00    -0.059 C 
HETATM    9  C14 UNL     1      22.607  -7.431  42.529  1.00  0.00    -0.061 C 
BRANCH   9  10
HETATM   10  C15 UNL     1      24.013  -7.246  42.787  1.00  0.00     0.018 A 
HETATM   11  C16 UNL     1      24.550  -5.986  42.659  1.00  0.00     0.020 A 
HETATM   12  C17 UNL     1      25.911  -5.793  42.907  1.00  0.00     0.001 A 
HETATM   13  C18 UNL     1      26.726  -6.842  43.278  1.00  0.00     0.000 A 
HETATM   14  C19 UNL     1      26.197  -8.108  43.410  1.00  0.00     0.001 A 
HETATM   15  C20 UNL     1      24.842  -8.277  43.158  1.00  0.00     0.020 A 
ENDBRANCH   9  10
ENDBRANCH   7   8
BRANCH   5  16
HETATM   16  C5  UNL     1      17.585  -7.677  39.152  1.00  0.00    -0.061 C 
HETATM   17  C6  UNL     1      17.115  -7.570  38.047  1.00  0.00    -0.054 C 
BRANCH  17  18
HETATM   18  C7  UNL     1      16.531  -7.459  36.714  1.00  0.00     0.058 A 
HETATM   19  C8  UNL     1      16.234  -8.479  35.847  1.00  0.00     0.028 A 
HETATM   20  C9  UNL     1      15.698  -8.142  34.667  1.00  0.00     0.009 A 
HETATM   21  C10 UNL     1      15.491  -6.809  34.424  1.00  0.00     0.051 A 
HETATM   22  S1  UNL     1      16.054  -6.072  35.856  1.00  0.00    -0.093 SA
ENDBRANCH  17  18
ENDBRANCH   5  16
TORSDOF 4
ENDMDL
MODEL 3
REMARK VINA RESULT: -8.697519033      4.211      9.358
REMARK  4 active torsions:
REMARK  status: ('A' for Active; 'I' for Inactive)
REMARK    1  A    between atoms: C4_5  and  C5_6 
REMARK    2  A    between atoms: C6_7  and  C7_8 
REMARK    3  A    between atoms: C12_14  and  C13_15 
REMARK    4  A    between atoms: C14_16  and  C15_17 
ROOT
HETATM    1  N1  UNL     1      20.035 -10.367  42.093  1.00  0.00    -0.101 NA
HETATM    2  C1  UNL     1      19.109  -9.362  41.724  1.00  0.00     0.065 A 
HETATM    3  C2  UNL     1      17.807  -9.665  41.430  1.00  0.00     0.029 A 
HETATM    4  C3  UNL     1      16.924  -8.666  41.073  1.00  0.00     0.022 A 
HETATM    5  C4  UNL     1      17.322  -7.348  41.005  1.00  0.00     0.019 A 
HETATM    6  C11 UNL     1      18.634  -7.073  41.306  1.00  0.00     0.043 A 
HETATM    7  C12 UNL     1      19.540  -8.059  41.666  1.00  0.00     0.043 A 
ENDROOT
BRANCH   7   8
HETATM    8  C13 UNL     1      20.910  -7.788  41.983  1.00  0.00    -0.059 C 
HETATM    9  C14 UNL     1      22.074  -7.570  42.271  1.00  0.00    -0.061 C 
BRANCH   9  10
HETATM   10  C15 UNL     1      23.457  -7.335  42.601  1.00  0.00     0.018 A 
HETATM   11  C16 UNL     1      23.964  -6.063  42.463  1.00  0.00     0.020 A 
HETATM   12  C17 UNL     1      25.302  -5.822  42.780  1.00  0.00     0.001 A 
HETATM   13  C18 UNL     1      26.125  -6.833  43.229  1.00  0.00     0.000 A 
HETATM   14  C19 UNL     1      25.626  -8.111  43.371  1.00  0.00     0.001 A 
HETATM   15  C20 UNL     1      24.293  -8.328  43.050  1.00  0.00     0.020 A 
ENDBRANCH   9  10
ENDBRANCH   7   8
BRANCH   5  16
HETATM   16  C5  UNL     1      16.359  -6.353  40.629  1.00  0.00    -0.061 C 
HETATM   17  C6  UNL     1      15.536  -5.531  40.310  1.00  0.00    -0.054 C 
BRANCH  17  18
HETATM   18  C7  UNL     1      14.554  -4.519  39.936  1.00  0.00     0.058 A 
HETATM   19  C8  UNL     1      13.930  -3.618  40.760  1.00  0.00     0.028 A 
HETATM   20  C9  UNL     1      13.056  -2.775  40.195  1.00  0.00     0.009 A 
HETATM   21  C10 UNL     1      12.859  -2.881  38.843  1.00  0.00     0.051 A 
HETATM   22  S1  UNL     1      13.903  -4.159  38.407  1.00  0.00    -0.093 SA
ENDBRANCH  17  18
ENDBRANCH   5  16
TORSDOF 4
ENDMDL
MODEL 4
REMARK VINA RESULT: -8.683385294      4.228      9.309
REMARK  4 active torsions:
REMARK  status: ('A' for Active; 'I' for Inactive)
REMARK    1  A    between atoms: C4_5  and  C5_6 
REMARK    2  A    between atoms: C6_7  and  C7_8 
REMARK    3  A    between atoms: C12_14  and  C13_15 
REMARK    4  A    between atoms: C14_16  and  C15_17 
ROOT
HETATM    1  N1  UNL     1      20.075 -10.400  42.116  1.00  0.00    -0.101 NA
HETATM    2  C1  UNL     1      19.141  -9.399  41.758  1.00  0.00     0.065 A 
HETATM    3  C2  UNL     1      17.839  -9.707  41.469  1.00  0.00     0.029 A 
HETATM    4  C3  UNL     1      16.950  -8.710  41.123  1.00  0.00     0.022 A 
HETATM    5  C4  UNL     1      17.341  -7.389  41.060  1.00  0.00     0.019 A 
HETATM    6  C11 UNL     1      18.652  -7.109  41.357  1.00  0.00     0.043 A 
HETATM    7  C12 UNL     1      19.566  -8.093  41.706  1.00  0.00     0.043 A 
ENDROOT
BRANCH   7   8
HETATM    8  C13 UNL     1      20.936  -7.816  42.017  1.00  0.00    -0.059 C 
HETATM    9  C14 UNL     1      22.100  -7.594  42.300  1.00  0.00    -0.061 C 
BRANCH   9  10
HETATM   10  C15 UNL     1      23.484  -7.353  42.623  1.00  0.00     0.018 A 
HETATM   11  C16 UNL     1      24.244  -8.396  43.102  1.00  0.00     0.020 A 
HETATM   12  C17 UNL     1      25.586  -8.175  43.419  1.00  0.00     0.001 A 
HETATM   13  C18 UNL     1      26.164  -6.933  43.261  1.00  0.00     0.000 A 
HETATM   14  C19 UNL     1      25.410  -5.882  42.782  1.00  0.00     0.001 A 
HETATM   15  C20 UNL     1      24.078  -6.124  42.474  1.00  0.00     0.020 A 
ENDBRANCH   9  10
ENDBRANCH   7   8
BRANCH   5  16
HETATM   16  C5  UNL     1      16.370  -6.397  40.696  1.00  0.00    -0.061 C 
HETATM   17  C6  UNL     1      15.548  -5.575  40.374  1.00  0.00    -0.054 C 
BRANCH  17  18
HETATM   18  C7  UNL     1      14.556  -4.570  40.009  1.00  0.00     0.058 A 
HETATM   19  C8  UNL     1      13.909  -3.695  40.843  1.00  0.00     0.028 A 
HETATM   20  C9  UNL     1      13.029  -2.854  40.284  1.00  0.00     0.009 A 
HETATM   21  C10 UNL     1      12.850  -2.936  38.927  1.00  0.00     0.051 A 
HETATM   22  S1  UNL     1      13.917  -4.189  38.480  1.00  0.00    -0.093 SA
ENDBRANCH  17  18
ENDBRANCH   5  16
TORSDOF 4
ENDMDL
MODEL 5
REMARK VINA RESULT: -8.562055129      4.058      4.891
REMARK  4 active torsions:
REMARK  status: ('A' for Active; 'I' for Inactive)
REMARK    1  A    between atoms: C4_5  and  C5_6 
REMARK    2  A    between atoms: C6_7  and  C7_8 
REMARK    3  A    between atoms: C12_14  and  C13_15 
REMARK    4  A    between atoms: C14_16  and  C15_17 
ROOT
HETATM    1  N1  UNL     1      15.811  -7.595  42.829  1.00  0.00    -0.101 NA
HETATM    2  C1  UNL     1      17.224  -7.673  42.813  1.00  0.00     0.065 A 
HETATM    3  C2  UNL     1      18.003  -6.557  42.962  1.00  0.00     0.029 A 
HETATM    4  C3  UNL     1      19.379  -6.662  42.943  1.00  0.00     0.022 A 
HETATM    5  C4  UNL     1      20.003  -7.880  42.775  1.00  0.00     0.019 A 
HETATM    6  C11 UNL     1      19.198  -8.983  42.629  1.00  0.00     0.043 A 
HETATM    7  C12 UNL     1      17.813  -8.903  42.644  1.00  0.00     0.043 A 
ENDROOT
BRANCH   7   8
HETATM    8  C13 UNL     1      16.960 -10.044  42.493  1.00  0.00    -0.059 C 
HETATM    9  C14 UNL     1      16.217 -11.000  42.361  1.00  0.00    -0.061 C 
BRANCH   9  10
HETATM   10  C15 UNL     1      15.338 -12.128  42.182  1.00  0.00     0.018 A 
HETATM   11  C16 UNL     1      13.980 -11.911  42.144  1.00  0.00     0.020 A 
HETATM   12  C17 UNL     1      13.118 -12.996  41.970  1.00  0.00     0.001 A 
HETATM   13  C18 UNL     1      13.602 -14.280  41.835  1.00  0.00     0.000 A 
HETATM   14  C19 UNL     1      14.961 -14.508  41.871  1.00  0.00     0.001 A 
HETATM   15  C20 UNL     1      15.799 -13.415  42.046  1.00  0.00     0.020 A 
ENDBRANCH   9  10
ENDBRANCH   7   8
BRANCH   5  16
HETATM   16  C5  UNL     1      21.438  -7.927  42.765  1.00  0.00    -0.061 C 
HETATM   17  C6  UNL     1      22.644  -7.949  42.766  1.00  0.00    -0.054 C 
BRANCH  17  18
HETATM   18  C7  UNL     1      24.101  -8.000  42.762  1.00  0.00     0.058 A 
HETATM   19  C8  UNL     1      24.972  -6.973  43.022  1.00  0.00     0.028 A 
HETATM   20  C9  UNL     1      26.282  -7.252  42.961  1.00  0.00     0.009 A 
HETATM   21  C10 UNL     1      26.641  -8.536  42.646  1.00  0.00     0.051 A 
HETATM   22  S1  UNL     1      25.135  -9.312  42.445  1.00  0.00    -0.093 SA
ENDBRANCH  17  18
ENDBRANCH   5  16
TORSDOF 4
ENDMDL
