MODEL 1
REMARK VINA RESULT: -7.387902483      0.000      0.000
REMARK  10 active torsions:
REMARK  status: ('A' for Active; 'I' for Inactive)
REMARK    1  A    between atoms: C6_8  and  S1_9 
REMARK    2  A    between atoms: S1_9  and  C7_10 
REMARK    3  A    between atoms: C7_10  and  C8_11 
REMARK    4  A    between atoms: C8_11  and  O1_12 
REMARK    5  A    between atoms: O1_12  and  C9_13 
REMARK    6  A    between atoms: C12_16  and  C13_17 
REMARK    7  A    between atoms: C13_17  and  C14_18 
REMARK    8  A    between atoms: C17_21  and  O2_22 
REMARK    9  A    between atoms: C18_24  and  O3_25 
REMARK   10  A    between atoms: C19_27  and  O4_28 
ROOT
HETATM    1  C9  UNL     1      25.831  30.181  20.246  1.00  0.00     0.156 C 
HETATM    2  C10 UNL     1      25.051  30.658  21.435  1.00  0.00     0.020 C 
HETATM    3  C11 UNL     1      26.044  31.276  22.397  1.00  0.00     0.013 C 
HETATM    4  C12 UNL     1      24.126  29.747  22.104  1.00  0.00     0.024 C 
HETATM    5  C17 UNL     1      23.774  28.450  21.448  1.00  0.00     0.154 C 
HETATM    6  C18 UNL     1      24.677  28.065  20.315  1.00  0.00     0.178 C 
HETATM    7  C19 UNL     1      24.859  29.271  19.436  1.00  0.00     0.178 C 
ENDROOT
BRANCH   1   8
HETATM    8  O1  UNL     1      26.198  31.229  19.506  1.00  0.00    -0.382 OA
BRANCH   8   9
HETATM    9  C8  UNL     1      27.277  31.415  18.784  1.00  0.00     0.178 C 
BRANCH   9  10
HETATM   10  C7  UNL     1      28.637  31.039  19.243  1.00  0.00     0.107 C 
BRANCH  10  11
HETATM   11  S1  UNL     1      29.926  31.146  17.988  1.00  0.00    -0.110 SA
BRANCH  11  12
HETATM   12  C6  UNL     1      31.542  30.924  18.709  1.00  0.00     0.070 A 
HETATM   13  C5  UNL     1      32.690  31.446  18.165  1.00  0.00     0.039 A 
HETATM   14  C4  UNL     1      33.942  31.295  18.680  1.00  0.00     0.035 A 
HETATM   15  C3  UNL     1      34.106  30.549  19.867  1.00  0.00     0.067 A 
HETATM   16  N1  UNL     1      35.222  30.311  20.486  1.00  0.00    -0.352 N 
HETATM   17  C20 UNL     1      32.958  30.032  20.404  1.00  0.00     0.103 A 
HETATM   18  C2  UNL     1      35.221  29.591  21.594  1.00  0.00     0.049 A 
ATOM     19  H1  UNL     1      36.099  30.679  20.117  1.00  0.00     0.166 HD
HETATM   20  C1  UNL     1      36.424  29.226  22.428  1.00  0.00     0.076 C 
HETATM   21  S2  UNL     1      33.565  29.226  21.784  1.00  0.00    -0.057 SA
HETATM   22  N2  UNL     1      31.720  30.210  19.851  1.00  0.00    -0.343 N 
ATOM     23  H2  UNL     1      30.908  29.795  20.308  1.00  0.00     0.167 HD
ENDBRANCH  11  12
ENDBRANCH  10  11
ENDBRANCH   9  10
ENDBRANCH   8   9
ENDBRANCH   1   8
BRANCH   7  24
HETATM   24  O4  UNL     1      23.647  29.919  19.284  1.00  0.00    -0.390 OA
ATOM     25  H4  UNL     1      23.520  30.134  18.367  1.00  0.00     0.210 HD
ENDBRANCH   7  24
BRANCH   4  26
HETATM   26  C13 UNL     1      22.811  30.358  22.540  1.00  0.00     0.012 C 
BRANCH  26  27
HETATM   27  C14 UNL     1      22.334  29.980  23.895  1.00  0.00    -0.014 A 
HETATM   28  C15 UNL     1      20.842  29.625  23.897  1.00  0.00     0.005 A 
HETATM   29  C16 UNL     1      21.299  30.861  24.621  1.00  0.00     0.005 A 
ENDBRANCH  26  27
ENDBRANCH   4  26
BRANCH   6  30
HETATM   30  O3  UNL     1      25.850  27.486  20.745  1.00  0.00    -0.390 OA
ATOM     31  H3  UNL     1      26.227  26.900  20.099  1.00  0.00     0.210 HD
ENDBRANCH   6  30
BRANCH   5  32
HETATM   32  O2  UNL     1      23.779  27.393  22.357  1.00  0.00    -0.393 OA
ATOM     33  H2  UNL     1      22.906  27.050  22.504  1.00  0.00     0.210 HD
ENDBRANCH   5  32
TORSDOF 10
ENDMDL
MODEL 2
REMARK VINA RESULT: -7.224759468      0.957      1.075
REMARK  10 active torsions:
REMARK  status: ('A' for Active; 'I' for Inactive)
REMARK    1  A    between atoms: C6_8  and  S1_9 
REMARK    2  A    between atoms: S1_9  and  C7_10 
REMARK    3  A    between atoms: C7_10  and  C8_11 
REMARK    4  A    between atoms: C8_11  and  O1_12 
REMARK    5  A    between atoms: O1_12  and  C9_13 
REMARK    6  A    between atoms: C12_16  and  C13_17 
REMARK    7  A    between atoms: C13_17  and  C14_18 
REMARK    8  A    between atoms: C17_21  and  O2_22 
REMARK    9  A    between atoms: C18_24  and  O3_25 
REMARK   10  A    between atoms: C19_27  and  O4_28 
ROOT
HETATM    1  C9  UNL     1      26.620  30.308  20.149  1.00  0.00     0.156 C 
HETATM    2  C10 UNL     1      25.587  30.922  21.045  1.00  0.00     0.020 C 
HETATM    3  C11 UNL     1      26.295  31.332  22.321  1.00  0.00     0.013 C 
HETATM    4  C12 UNL     1      24.343  30.206  21.311  1.00  0.00     0.024 C 
HETATM    5  C17 UNL     1      24.001  29.005  20.488  1.00  0.00     0.154 C 
HETATM    6  C18 UNL     1      25.146  28.456  19.690  1.00  0.00     0.178 C 
HETATM    7  C19 UNL     1      25.828  29.606  19.004  1.00  0.00     0.178 C 
ENDROOT
BRANCH   1   8
HETATM    8  O1  UNL     1      27.398  31.267  19.644  1.00  0.00    -0.382 OA
BRANCH   8   9
HETATM    9  C8  UNL     1      28.695  31.286  19.447  1.00  0.00     0.178 C 
BRANCH   9  10
HETATM   10  C7  UNL     1      29.318  31.069  18.119  1.00  0.00     0.107 C 
BRANCH  10  11
HETATM   11  S1  UNL     1      30.802  32.042  17.801  1.00  0.00    -0.110 SA
BRANCH  11  12
HETATM   12  C6  UNL     1      32.216  31.344  18.634  1.00  0.00     0.070 A 
HETATM   13  C5  UNL     1      33.505  31.489  18.185  1.00  0.00     0.039 A 
HETATM   14  C4  UNL     1      34.610  30.969  18.788  1.00  0.00     0.035 A 
HETATM   15  C3  UNL     1      34.451  30.214  19.970  1.00  0.00     0.067 A 
HETATM   16  N1  UNL     1      35.393  29.652  20.664  1.00  0.00    -0.352 N 
HETATM   17  C20 UNL     1      33.164  30.074  20.412  1.00  0.00     0.103 A 
HETATM   18  C2  UNL     1      35.091  28.973  21.756  1.00  0.00     0.049 A 
ATOM     19  H1  UNL     1      36.365  29.735  20.367  1.00  0.00     0.166 HD
HETATM   20  C1  UNL     1      36.061  28.265  22.670  1.00  0.00     0.076 C 
HETATM   21  S2  UNL     1      33.392  29.129  21.819  1.00  0.00    -0.057 SA
HETATM   22  N2  UNL     1      32.083  30.616  19.774  1.00  0.00    -0.343 N 
ATOM     23  H2  UNL     1      31.151  30.470  20.163  1.00  0.00     0.167 HD
ENDBRANCH  11  12
ENDBRANCH  10  11
ENDBRANCH   9  10
ENDBRANCH   8   9
ENDBRANCH   1   8
BRANCH   7  24
HETATM   24  O4  UNL     1      24.876  30.478  18.508  1.00  0.00    -0.390 OA
ATOM     25  H4  UNL     1      25.295  31.296  18.266  1.00  0.00     0.210 HD
ENDBRANCH   7  24
BRANCH   4  26
HETATM   26  C13 UNL     1      23.091  31.059  21.332  1.00  0.00     0.012 C 
BRANCH  26  27
HETATM   27  C14 UNL     1      22.628  31.502  22.671  1.00  0.00    -0.014 A 
HETATM   28  C15 UNL     1      22.353  30.314  23.601  1.00  0.00     0.005 A 
HETATM   29  C16 UNL     1      21.200  31.163  23.143  1.00  0.00     0.005 A 
ENDBRANCH  26  27
ENDBRANCH   4  26
BRANCH   6  30
HETATM   30  O3  UNL     1      25.981  27.658  20.440  1.00  0.00    -0.390 OA
ATOM     31  H3  UNL     1      26.483  27.052  19.908  1.00  0.00     0.210 HD
ENDBRANCH   6  30
BRANCH   5  32
HETATM   32  O2  UNL     1      23.510  27.963  21.273  1.00  0.00    -0.393 OA
ATOM     33  H2  UNL     1      22.889  27.425  20.796  1.00  0.00     0.210 HD
ENDBRANCH   5  32
TORSDOF 10
ENDMDL
MODEL 3
REMARK VINA RESULT: -7.158765238      1.397      1.806
REMARK  10 active torsions:
REMARK  status: ('A' for Active; 'I' for Inactive)
REMARK    1  A    between atoms: C6_8  and  S1_9 
REMARK    2  A    between atoms: S1_9  and  C7_10 
REMARK    3  A    between atoms: C7_10  and  C8_11 
REMARK    4  A    between atoms: C8_11  and  O1_12 
REMARK    5  A    between atoms: O1_12  and  C9_13 
REMARK    6  A    between atoms: C12_16  and  C13_17 
REMARK    7  A    between atoms: C13_17  and  C14_18 
REMARK    8  A    between atoms: C17_21  and  O2_22 
REMARK    9  A    between atoms: C18_24  and  O3_25 
REMARK   10  A    between atoms: C19_27  and  O4_28 
ROOT
HETATM    1  C9  UNL     1      25.385  29.611  20.961  1.00  0.00     0.156 C 
HETATM    2  C10 UNL     1      24.856  30.800  21.706  1.00  0.00     0.020 C 
HETATM    3  C11 UNL     1      26.042  31.471  22.368  1.00  0.00     0.013 C 
HETATM    4  C12 UNL     1      23.732  30.635  22.623  1.00  0.00     0.024 C 
HETATM    5  C17 UNL     1      22.960  29.354  22.611  1.00  0.00     0.154 C 
HETATM    6  C18 UNL     1      23.637  28.230  21.885  1.00  0.00     0.178 C 
HETATM    7  C19 UNL     1      24.137  28.762  20.570  1.00  0.00     0.178 C 
ENDROOT
BRANCH   1   8
HETATM    8  O1  UNL     1      26.019  30.022  19.861  1.00  0.00    -0.382 OA
BRANCH   8   9
HETATM    9  C8  UNL     1      27.299  30.016  19.573  1.00  0.00     0.178 C 
BRANCH   9  10
HETATM   10  C7  UNL     1      28.079  31.251  19.314  1.00  0.00     0.107 C 
BRANCH  10  11
HETATM   11  S1  UNL     1      29.286  31.130  17.980  1.00  0.00    -0.110 SA
BRANCH  11  12
HETATM   12  C6  UNL     1      30.946  31.035  18.624  1.00  0.00     0.070 A 
HETATM   13  C5  UNL     1      31.993  31.770  18.125  1.00  0.00     0.039 A 
HETATM   14  C4  UNL     1      33.274  31.723  18.583  1.00  0.00     0.035 A 
HETATM   15  C3  UNL     1      33.584  30.860  19.656  1.00  0.00     0.067 A 
HETATM   16  N1  UNL     1      34.747  30.696  20.210  1.00  0.00    -0.352 N 
HETATM   17  C20 UNL     1      32.536  30.132  20.150  1.00  0.00     0.103 A 
HETATM   18  C2  UNL     1      34.886  29.848  21.213  1.00  0.00     0.049 A 
ATOM     19  H1  UNL     1      35.552  31.222  19.870  1.00  0.00     0.166 HD
HETATM   20  C1  UNL     1      36.160  29.543  21.961  1.00  0.00     0.076 C 
HETATM   21  S2  UNL     1      33.299  29.244  21.396  1.00  0.00    -0.057 SA
HETATM   22  N2  UNL     1      31.262  30.212  19.657  1.00  0.00    -0.343 N 
ATOM     23  H2  UNL     1      30.531  29.638  20.077  1.00  0.00     0.167 HD
ENDBRANCH  11  12
ENDBRANCH  10  11
ENDBRANCH   9  10
ENDBRANCH   8   9
ENDBRANCH   1   8
BRANCH   7  24
HETATM   24  O4  UNL     1      23.179  29.589  20.012  1.00  0.00    -0.390 OA
ATOM     25  H4  UNL     1      22.479  29.059  19.651  1.00  0.00     0.210 HD
ENDBRANCH   7  24
BRANCH   4  26
HETATM   26  C13 UNL     1      22.696  31.739  22.589  1.00  0.00     0.012 C 
BRANCH  26  27
HETATM   27  C14 UNL     1      22.713  32.611  21.387  1.00  0.00    -0.014 A 
HETATM   28  C15 UNL     1      21.773  33.812  21.540  1.00  0.00     0.005 A 
HETATM   29  C16 UNL     1      21.445  32.756  20.523  1.00  0.00     0.005 A 
ENDBRANCH  26  27
ENDBRANCH   4  26
BRANCH   6  30
HETATM   30  O3  UNL     1      24.594  27.604  22.651  1.00  0.00    -0.390 OA
ATOM     31  H3  UNL     1      24.296  26.773  23.002  1.00  0.00     0.210 HD
ENDBRANCH   6  30
BRANCH   5  32
HETATM   32  O2  UNL     1      22.686  28.904  23.902  1.00  0.00    -0.393 OA
ATOM     33  H2  UNL     1      21.803  29.125  24.172  1.00  0.00     0.210 HD
ENDBRANCH   5  32
TORSDOF 10
ENDMDL
MODEL 4
REMARK VINA RESULT: -6.857970547      1.921      2.789
REMARK  10 active torsions:
REMARK  status: ('A' for Active; 'I' for Inactive)
REMARK    1  A    between atoms: C6_8  and  S1_9 
REMARK    2  A    between atoms: S1_9  and  C7_10 
REMARK    3  A    between atoms: C7_10  and  C8_11 
REMARK    4  A    between atoms: C8_11  and  O1_12 
REMARK    5  A    between atoms: O1_12  and  C9_13 
REMARK    6  A    between atoms: C12_16  and  C13_17 
REMARK    7  A    between atoms: C13_17  and  C14_18 
REMARK    8  A    between atoms: C17_21  and  O2_22 
REMARK    9  A    between atoms: C18_24  and  O3_25 
REMARK   10  A    between atoms: C19_27  and  O4_28 
ROOT
HETATM    1  C9  UNL     1      27.729  30.225  17.803  1.00  0.00     0.156 C 
HETATM    2  C10 UNL     1      27.016  30.443  19.105  1.00  0.00     0.020 C 
HETATM    3  C11 UNL     1      28.036  30.995  20.081  1.00  0.00     0.013 C 
HETATM    4  C12 UNL     1      26.226  29.360  19.685  1.00  0.00     0.024 C 
HETATM    5  C17 UNL     1      25.923  28.152  18.858  1.00  0.00     0.154 C 
HETATM    6  C18 UNL     1      26.755  28.028  17.616  1.00  0.00     0.178 C 
HETATM    7  C19 UNL     1      26.767  29.365  16.930  1.00  0.00     0.178 C 
ENDROOT
BRANCH   1   8
HETATM    8  O1  UNL     1      27.949  31.403  17.216  1.00  0.00    -0.382 OA
BRANCH   8   9
HETATM    9  C8  UNL     1      29.010  31.845  16.584  1.00  0.00     0.178 C 
BRANCH   9  10
HETATM   10  C7  UNL     1      29.903  32.896  17.131  1.00  0.00     0.107 C 
BRANCH  10  11
HETATM   11  S1  UNL     1      31.667  32.581  16.937  1.00  0.00    -0.110 SA
BRANCH  11  12
HETATM   12  C6  UNL     1      32.298  31.619  18.299  1.00  0.00     0.070 A 
HETATM   13  C5  UNL     1      31.497  30.898  19.150  1.00  0.00     0.039 A 
HETATM   14  C4  UNL     1      31.938  30.156  20.204  1.00  0.00     0.035 A 
HETATM   15  C3  UNL     1      33.323  30.103  20.469  1.00  0.00     0.067 A 
HETATM   16  N1  UNL     1      33.906  29.448  21.427  1.00  0.00    -0.352 N 
HETATM   17  C20 UNL     1      34.116  30.823  19.617  1.00  0.00     0.103 A 
HETATM   18  C2  UNL     1      35.220  29.493  21.552  1.00  0.00     0.049 A 
ATOM     19  H1  UNL     1      33.349  28.899  22.082  1.00  0.00     0.166 HD
HETATM   20  C1  UNL     1      36.046  28.794  22.603  1.00  0.00     0.076 C 
HETATM   21  S2  UNL     1      35.671  30.509  20.256  1.00  0.00    -0.057 SA
HETATM   22  N2  UNL     1      33.628  31.555  18.569  1.00  0.00    -0.343 N 
ATOM     23  H2  UNL     1      34.280  32.067  17.975  1.00  0.00     0.167 HD
ENDBRANCH  11  12
ENDBRANCH  10  11
ENDBRANCH   9  10
ENDBRANCH   8   9
ENDBRANCH   1   8
BRANCH   7  24
HETATM   24  O4  UNL     1      25.499  29.916  16.969  1.00  0.00    -0.390 OA
ATOM     25  H4  UNL     1      25.074  29.784  16.129  1.00  0.00     0.210 HD
ENDBRANCH   7  24
BRANCH   4  26
HETATM   26  C13 UNL     1      24.908  29.776  20.304  1.00  0.00     0.012 C 
BRANCH  26  27
HETATM   27  C14 UNL     1      24.776  29.551  21.766  1.00  0.00    -0.014 A 
HETATM   28  C15 UNL     1      23.832  28.385  22.082  1.00  0.00     0.005 A 
HETATM   29  C16 UNL     1      23.420  29.779  22.461  1.00  0.00     0.005 A 
ENDBRANCH  26  27
ENDBRANCH   4  26
BRANCH   6  30
HETATM   30  O3  UNL     1      28.002  27.499  17.865  1.00  0.00    -0.390 OA
ATOM     31  H3  UNL     1      28.028  26.556  17.753  1.00  0.00     0.210 HD
ENDBRANCH   6  30
BRANCH   5  32
HETATM   32  O2  UNL     1      26.088  26.974  19.584  1.00  0.00    -0.393 OA
ATOM     33  H2  UNL     1      25.497  26.291  19.287  1.00  0.00     0.210 HD
ENDBRANCH   5  32
TORSDOF 10
ENDMDL
MODEL 5
REMARK VINA RESULT: -6.840817759      1.763      2.469
REMARK  10 active torsions:
REMARK  status: ('A' for Active; 'I' for Inactive)
REMARK    1  A    between atoms: C6_8  and  S1_9 
REMARK    2  A    between atoms: S1_9  and  C7_10 
REMARK    3  A    between atoms: C7_10  and  C8_11 
REMARK    4  A    between atoms: C8_11  and  O1_12 
REMARK    5  A    between atoms: O1_12  and  C9_13 
REMARK    6  A    between atoms: C12_16  and  C13_17 
REMARK    7  A    between atoms: C13_17  and  C14_18 
REMARK    8  A    between atoms: C17_21  and  O2_22 
REMARK    9  A    between atoms: C18_24  and  O3_25 
REMARK   10  A    between atoms: C19_27  and  O4_28 
ROOT
HETATM    1  C9  UNL     1      26.566  31.265  19.000  1.00  0.00     0.156 C 
HETATM    2  C10 UNL     1      25.091  30.997  19.048  1.00  0.00     0.020 C 
HETATM    3  C11 UNL     1      24.414  32.105  18.266  1.00  0.00     0.013 C 
HETATM    4  C12 UNL     1      24.442  30.753  20.333  1.00  0.00     0.024 C 
HETATM    5  C17 UNL     1      25.286  30.513  21.544  1.00  0.00     0.154 C 
HETATM    6  C18 UNL     1      26.729  30.885  21.376  1.00  0.00     0.178 C 
HETATM    7  C19 UNL     1      27.204  30.323  20.065  1.00  0.00     0.178 C 
ENDROOT
BRANCH   1   8
HETATM    8  O1  UNL     1      27.032  30.965  17.787  1.00  0.00    -0.382 OA
BRANCH   8   9
HETATM    9  C8  UNL     1      28.036  31.481  17.118  1.00  0.00     0.178 C 
BRANCH   9  10
HETATM   10  C7  UNL     1      29.442  31.041  17.294  1.00  0.00     0.107 C 
BRANCH  10  11
HETATM   11  S1  UNL     1      30.555  32.283  17.978  1.00  0.00    -0.110 SA
BRANCH  11  12
HETATM   12  C6  UNL     1      31.991  31.522  18.711  1.00  0.00     0.070 A 
HETATM   13  C5  UNL     1      33.254  31.627  18.182  1.00  0.00     0.039 A 
HETATM   14  C4  UNL     1      34.375  31.058  18.706  1.00  0.00     0.035 A 
HETATM   15  C3  UNL     1      34.263  30.292  19.886  1.00  0.00     0.067 A 
HETATM   16  N1  UNL     1      35.225  29.685  20.512  1.00  0.00    -0.352 N 
HETATM   17  C20 UNL     1      33.001  30.191  20.408  1.00  0.00     0.103 A 
HETATM   18  C2  UNL     1      34.968  29.001  21.612  1.00  0.00     0.049 A 
ATOM     19  H1  UNL     1      36.179  29.737  20.155  1.00  0.00     0.166 HD
HETATM   20  C1  UNL     1      35.966  28.244  22.453  1.00  0.00     0.076 C 
HETATM   21  S2  UNL     1      33.283  29.217  21.785  1.00  0.00    -0.057 SA
HETATM   22  N2  UNL     1      31.903  30.782  19.847  1.00  0.00    -0.343 N 
ATOM     23  H2  UNL     1      30.994  30.664  20.293  1.00  0.00     0.167 HD
ENDBRANCH  11  12
ENDBRANCH  10  11
ENDBRANCH   9  10
ENDBRANCH   8   9
ENDBRANCH   1   8
BRANCH   7  24
HETATM   24  O4  UNL     1      26.703  29.044  19.902  1.00  0.00    -0.390 OA
ATOM     25  H4  UNL     1      26.811  28.778  18.997  1.00  0.00     0.210 HD
ENDBRANCH   7  24
BRANCH   4  26
HETATM   26  C13 UNL     1      23.396  29.657  20.337  1.00  0.00     0.012 C 
BRANCH  26  27
HETATM   27  C14 UNL     1      21.985  30.104  20.221  1.00  0.00    -0.014 A 
HETATM   28  C15 UNL     1      21.753  31.450  20.917  1.00  0.00     0.005 A 
HETATM   29  C16 UNL     1      21.107  30.217  21.482  1.00  0.00     0.005 A 
ENDBRANCH  26  27
ENDBRANCH   4  26
BRANCH   6  30
HETATM   30  O3  UNL     1      26.950  32.235  21.535  1.00  0.00    -0.390 OA
ATOM     31  H3  UNL     1      27.728  32.421  22.047  1.00  0.00     0.210 HD
ENDBRANCH   6  30
BRANCH   5  32
HETATM   32  O2  UNL     1      24.808  31.208  22.653  1.00  0.00    -0.393 OA
ATOM     33  H2  UNL     1      24.316  30.644  23.238  1.00  0.00     0.210 HD
ENDBRANCH   5  32
TORSDOF 10
ENDMDL
