MODEL 1
REMARK VINA RESULT: -7.544344698      0.000      0.000
REMARK  10 active torsions:
REMARK  status: ('A' for Active; 'I' for Inactive)
REMARK    1  A    between atoms: C2_2  and  C4_4 
REMARK    2  A    between atoms: C4_4  and  C5_5 
REMARK    3  A    between atoms: C6_8  and  O1_9 
REMARK    4  A    between atoms: C9_14  and  C10_15 
REMARK    5  A    between atoms: C10_15  and  O2_19 
REMARK    6  A    between atoms: C11_21  and  C12_22 
REMARK    7  A    between atoms: C12_22  and  C13_23 
REMARK    8  A    between atoms: C16_28  and  O3_29 
REMARK    9  A    between atoms: C21_37  and  C22_38 
REMARK   10  A    between atoms: C22_38  and  C23_39 
ROOT
HETATM    1  C5  UNL     1      16.374  11.073  -2.751  1.00  0.00     0.176 C 
HETATM    2  N1  UNL     1      15.482  10.164  -2.105  1.00  0.00    -0.357 N 
ATOM      3  H1  UNL     1      15.322   9.303  -2.628  1.00  0.00     0.162 HD
HETATM    4  C6  UNL     1      14.788  10.227  -0.900  1.00  0.00     0.144 C 
HETATM    5  C7  UNL     1      15.250  10.253   0.486  1.00  0.00     0.013 C 
HETATM    6  C8  UNL     1      14.561  11.007   1.319  1.00  0.00     0.068 C 
HETATM    7 BR1  UNL     1      13.062  12.002   0.786  1.00  0.00    -0.063 Br
HETATM    8  C9  UNL     1      16.412   9.504   0.993  1.00  0.00     0.120 C 
HETATM    9  C11 UNL     1      16.223   7.969   1.010  1.00  0.00     0.100 C 
HETATM   10  N3  UNL     1      16.651   7.431  -0.242  1.00  0.00    -0.367 N 
ATOM     11  H3  UNL     1      15.921   7.378  -0.952  1.00  0.00     0.161 HD
HETATM   12  C16 UNL     1      17.915   6.960  -0.662  1.00  0.00     0.134 C 
HETATM   13  C17 UNL     1      19.221   6.998  -0.087  1.00  0.00     0.157 C 
HETATM   14  C18 UNL     1      19.259   6.722   1.430  1.00  0.00     0.041 C 
HETATM   15  N4  UNL     1      20.125   8.067  -0.331  1.00  0.00    -0.343 N 
HETATM   16  C19 UNL     1      21.448   7.778   0.303  1.00  0.00     0.153 C 
HETATM   17  C20 UNL     1      20.043   9.267  -0.998  1.00  0.00     0.243 C 
HETATM   18  O4  UNL     1      20.836  10.188  -0.560  1.00  0.00    -0.271 OA
HETATM   19  C21 UNL     1      19.207   9.713  -2.134  1.00  0.00     0.177 C 
HETATM   20  N5  UNL     1      18.820  11.086  -1.945  1.00  0.00    -0.346 N 
ATOM     21  H5  UNL     1      19.569  11.760  -1.789  1.00  0.00     0.163 HD
HETATM   22  C26 UNL     1      17.490  11.590  -1.955  1.00  0.00     0.241 C 
HETATM   23  O5  UNL     1      17.205  12.596  -1.204  1.00  0.00    -0.271 OA
ENDROOT
BRANCH   8  24
HETATM   24  C10 UNL     1      16.810   9.918   2.350  1.00  0.00     0.119 C 
HETATM   25  N2  UNL     1      17.948  10.471   2.613  1.00  0.00    -0.383 N 
ATOM     26  H22 UNL     1      18.579  10.617   1.825  1.00  0.00     0.158 HD
ATOM     27  H21 UNL     1      18.224  10.758   3.553  1.00  0.00     0.158 HD
BRANCH  24  28
HETATM   28  O2  UNL     1      15.955   9.721   3.416  1.00  0.00    -0.349 OA
ATOM     29  H2  UNL     1      15.355   8.985   3.419  1.00  0.00     0.219 HD
ENDBRANCH  24  28
ENDBRANCH   8  24
BRANCH   9  30
HETATM   30  C12 UNL     1      14.814   7.626   1.354  1.00  0.00     0.030 C 
BRANCH  30  31
HETATM   31  C13 UNL     1      14.667   6.621   2.453  1.00  0.00    -0.021 C 
HETATM   32  C14 UNL     1      16.065   6.388   3.100  1.00  0.00     0.009 C 
HETATM   33  C15 UNL     1      13.801   7.028   3.619  1.00  0.00     0.009 C 
ENDBRANCH  30  31
ENDBRANCH   9  30
BRANCH   4  34
HETATM   34  O1  UNL     1      13.490  10.272  -0.990  1.00  0.00    -0.346 OA
ATOM     35  H1  UNL     1      13.009   9.802  -0.319  1.00  0.00     0.219 HD
ENDBRANCH   4  34
BRANCH  12  36
HETATM   36  O3  UNL     1      17.855   6.369  -1.823  1.00  0.00    -0.348 OA
ATOM     37  H3  UNL     1      18.603   5.802  -1.973  1.00  0.00     0.219 HD
ENDBRANCH  12  36
BRANCH   1  38
HETATM   38  C4  UNL     1      15.636  12.257  -3.395  1.00  0.00     0.038 C 
BRANCH  38  39
HETATM   39  C2  UNL     1      14.790  11.843  -4.552  1.00  0.00    -0.020 C 
HETATM   40  C1  UNL     1      15.605  11.134  -5.623  1.00  0.00     0.009 C 
HETATM   41  C3  UNL     1      14.240  13.096  -5.248  1.00  0.00     0.009 C 
ENDBRANCH  38  39
ENDBRANCH   1  38
BRANCH  19  42
HETATM   42  C22 UNL     1      19.783   9.482  -3.463  1.00  0.00     0.038 C 
BRANCH  42  43
HETATM   43  C23 UNL     1      20.068  10.600  -4.368  1.00  0.00    -0.020 C 
HETATM   44  C24 UNL     1      19.115  10.847  -5.493  1.00  0.00     0.009 C 
HETATM   45  C25 UNL     1      21.453  10.320  -4.985  1.00  0.00     0.009 C 
ENDBRANCH  42  43
ENDBRANCH  19  42
TORSDOF 10
ENDMDL
MODEL 2
REMARK VINA RESULT: -6.608168699      3.599      7.406
REMARK  10 active torsions:
REMARK  status: ('A' for Active; 'I' for Inactive)
REMARK    1  A    between atoms: C2_2  and  C4_4 
REMARK    2  A    between atoms: C4_4  and  C5_5 
REMARK    3  A    between atoms: C6_8  and  O1_9 
REMARK    4  A    between atoms: C9_14  and  C10_15 
REMARK    5  A    between atoms: C10_15  and  O2_19 
REMARK    6  A    between atoms: C11_21  and  C12_22 
REMARK    7  A    between atoms: C12_22  and  C13_23 
REMARK    8  A    between atoms: C16_28  and  O3_29 
REMARK    9  A    between atoms: C21_37  and  C22_38 
REMARK   10  A    between atoms: C22_38  and  C23_39 
ROOT
HETATM    1  C5  UNL     1      14.800   9.940   1.694  1.00  0.00     0.176 C 
HETATM    2  N1  UNL     1      16.112  10.381   2.046  1.00  0.00    -0.357 N 
ATOM      3  H1  UNL     1      16.130  11.287   2.515  1.00  0.00     0.162 HD
HETATM    4  C6  UNL     1      17.371   9.814   1.872  1.00  0.00     0.144 C 
HETATM    5  C7  UNL     1      17.978   8.607   2.430  1.00  0.00     0.013 C 
HETATM    6  C8  UNL     1      18.777   7.930   1.630  1.00  0.00     0.068 C 
HETATM    7 BR1  UNL     1      19.138   8.461  -0.132  1.00  0.00    -0.063 Br
HETATM    8  C9  UNL     1      17.753   8.117   3.800  1.00  0.00     0.120 C 
HETATM    9  C11 UNL     1      18.355   9.016   4.906  1.00  0.00     0.100 C 
HETATM   10  N3  UNL     1      17.388   9.993   5.291  1.00  0.00    -0.367 N 
ATOM     11  H3  UNL     1      17.424  10.860   4.755  1.00  0.00     0.161 HD
HETATM   12  C16 UNL     1      16.390   9.963   6.290  1.00  0.00     0.134 C 
HETATM   13  C17 UNL     1      15.877   8.935   7.139  1.00  0.00     0.157 C 
HETATM   14  C18 UNL     1      16.949   7.993   7.721  1.00  0.00     0.041 C 
HETATM   15  N4  UNL     1      14.777   8.119   6.759  1.00  0.00    -0.343 N 
HETATM   16  C19 UNL     1      14.391   7.217   7.886  1.00  0.00     0.153 C 
HETATM   17  C20 UNL     1      14.026   7.983   5.615  1.00  0.00     0.243 C 
HETATM   18  O4  UNL     1      13.503   6.815   5.442  1.00  0.00    -0.271 OA
HETATM   19  C21 UNL     1      13.699   8.932   4.528  1.00  0.00     0.177 C 
HETATM   20  N5  UNL     1      13.675   8.239   3.267  1.00  0.00    -0.346 N 
ATOM     21  H5  UNL     1      13.068   7.423   3.199  1.00  0.00     0.163 HD
HETATM   22  C26 UNL     1      14.420   8.586   2.106  1.00  0.00     0.241 C 
HETATM   23  O5  UNL     1      14.814   7.646   1.320  1.00  0.00    -0.271 OA
ENDROOT
BRANCH   8  24
HETATM   24  C10 UNL     1      18.267   6.752   4.009  1.00  0.00     0.119 C 
HETATM   25  N2  UNL     1      19.370   6.501   4.635  1.00  0.00    -0.383 N 
ATOM     26  H22 UNL     1      19.887   7.305   4.990  1.00  0.00     0.158 HD
ATOM     27  H21 UNL     1      19.725   5.556   4.781  1.00  0.00     0.158 HD
BRANCH  24  28
HETATM   28  O2  UNL     1      17.566   5.663   3.529  1.00  0.00    -0.349 OA
ATOM     29  H2  UNL     1      17.445   4.894   4.074  1.00  0.00     0.219 HD
ENDBRANCH  24  28
ENDBRANCH   8  24
BRANCH   9  30
HETATM   30  C12 UNL     1      19.645   9.604   4.448  1.00  0.00     0.030 C 
BRANCH  30  31
HETATM   31  C13 UNL     1      19.749  11.087   4.613  1.00  0.00    -0.021 C 
HETATM   32  C14 UNL     1      20.761  11.387   5.759  1.00  0.00     0.009 C 
HETATM   33  C15 UNL     1      20.308  11.853   3.439  1.00  0.00     0.009 C 
ENDBRANCH  30  31
ENDBRANCH   9  30
BRANCH   4  34
HETATM   34  O1  UNL     1      18.179  10.450   1.073  1.00  0.00    -0.346 OA
ATOM     35  H1  UNL     1      19.072  10.555   1.380  1.00  0.00     0.219 HD
ENDBRANCH   4  34
BRANCH  12  36
HETATM   36  O3  UNL     1      15.831  11.129   6.459  1.00  0.00    -0.348 OA
ATOM     37  H3  UNL     1      14.947  11.055   6.800  1.00  0.00     0.219 HD
ENDBRANCH  12  36
BRANCH   1  38
HETATM   38  C4  UNL     1      14.514  10.099   0.193  1.00  0.00     0.038 C 
BRANCH  38  39
HETATM   39  C2  UNL     1      14.896  11.446  -0.323  1.00  0.00    -0.020 C 
HETATM   40  C1  UNL     1      13.896  12.515   0.093  1.00  0.00     0.009 C 
HETATM   41  C3  UNL     1      14.836  11.433  -1.857  1.00  0.00     0.009 C 
ENDBRANCH  38  39
ENDBRANCH   1  38
BRANCH  19  42
HETATM   42  C22 UNL     1      12.487   9.731   4.739  1.00  0.00     0.038 C 
BRANCH  42  43
HETATM   43  C23 UNL     1      11.687  10.204   3.604  1.00  0.00    -0.020 C 
HETATM   44  C24 UNL     1      11.979  11.568   3.066  1.00  0.00     0.009 C 
HETATM   45  C25 UNL     1      10.218  10.193   4.072  1.00  0.00     0.009 C 
ENDBRANCH  42  43
ENDBRANCH  19  42
TORSDOF 10
ENDMDL
MODEL 3
REMARK VINA RESULT: -6.554898118      2.426      7.388
REMARK  10 active torsions:
REMARK  status: ('A' for Active; 'I' for Inactive)
REMARK    1  A    between atoms: C2_2  and  C4_4 
REMARK    2  A    between atoms: C4_4  and  C5_5 
REMARK    3  A    between atoms: C6_8  and  O1_9 
REMARK    4  A    between atoms: C9_14  and  C10_15 
REMARK    5  A    between atoms: C10_15  and  O2_19 
REMARK    6  A    between atoms: C11_21  and  C12_22 
REMARK    7  A    between atoms: C12_22  and  C13_23 
REMARK    8  A    between atoms: C16_28  and  O3_29 
REMARK    9  A    between atoms: C21_37  and  C22_38 
REMARK   10  A    between atoms: C22_38  and  C23_39 
ROOT
HETATM    1  C5  UNL     1      19.470   6.974   0.002  1.00  0.00     0.176 C 
HETATM    2  N1  UNL     1      19.216   7.263  -1.372  1.00  0.00    -0.357 N 
ATOM      3  H1  UNL     1      18.569   6.611  -1.817  1.00  0.00     0.162 HD
HETATM    4  C6  UNL     1      19.681   8.262  -2.223  1.00  0.00     0.144 C 
HETATM    5  C7  UNL     1      19.486   9.710  -2.218  1.00  0.00     0.013 C 
HETATM    6  C8  UNL     1      20.517  10.440  -2.595  1.00  0.00     0.068 C 
HETATM    7 BR1  UNL     1      22.155   9.692  -3.119  1.00  0.00    -0.063 Br
HETATM    8  C9  UNL     1      18.238  10.383  -1.825  1.00  0.00     0.120 C 
HETATM    9  C11 UNL     1      17.058  10.157  -2.799  1.00  0.00     0.100 C 
HETATM   10  N3  UNL     1      16.340   8.988  -2.402  1.00  0.00    -0.367 N 
ATOM     11  H3  UNL     1      16.676   8.122  -2.821  1.00  0.00     0.161 HD
HETATM   12  C16 UNL     1      15.242   8.829  -1.526  1.00  0.00     0.134 C 
HETATM   13  C17 UNL     1      14.574   9.705  -0.617  1.00  0.00     0.157 C 
HETATM   14  C18 UNL     1      14.363  11.137  -1.148  1.00  0.00     0.041 C 
HETATM   15  N4  UNL     1      14.966   9.825   0.743  1.00  0.00    -0.343 N 
HETATM   16  C19 UNL     1      14.017  10.719   1.475  1.00  0.00     0.153 C 
HETATM   17  C20 UNL     1      15.997   9.318   1.499  1.00  0.00     0.243 C 
HETATM   18  O4  UNL     1      16.344  10.049   2.506  1.00  0.00    -0.271 OA
HETATM   19  C21 UNL     1      16.796   8.080   1.378  1.00  0.00     0.177 C 
HETATM   20  N5  UNL     1      18.162   8.344   1.748  1.00  0.00    -0.346 N 
ATOM     21  H5  UNL     1      18.320   8.761   2.665  1.00  0.00     0.163 HD
HETATM   22  C26 UNL     1      19.311   8.076   0.955  1.00  0.00     0.241 C 
HETATM   23  O5  UNL     1      20.329   8.858   1.058  1.00  0.00    -0.271 OA
ENDROOT
BRANCH   8  24
HETATM   24  C10 UNL     1      18.401  11.837  -1.656  1.00  0.00     0.119 C 
HETATM   25  N2  UNL     1      17.657  12.706  -2.257  1.00  0.00    -0.383 N 
ATOM     26  H22 UNL     1      16.930  12.338  -2.871  1.00  0.00     0.158 HD
ATOM     27  H21 UNL     1      17.770  13.713  -2.140  1.00  0.00     0.158 HD
BRANCH  24  28
HETATM   28  O2  UNL     1      19.385  12.334  -0.824  1.00  0.00    -0.349 OA
ATOM     29  H2  UNL     1      19.156  12.697   0.024  1.00  0.00     0.219 HD
ENDBRANCH  24  28
ENDBRANCH   8  24
BRANCH   9  30
HETATM   30  C12 UNL     1      17.552  10.103  -4.205  1.00  0.00     0.030 C 
BRANCH  30  31
HETATM   31  C13 UNL     1      16.480  10.165  -5.246  1.00  0.00    -0.021 C 
HETATM   32  C14 UNL     1      15.578  11.401  -4.955  1.00  0.00     0.009 C 
HETATM   33  C15 UNL     1      16.940  10.389  -6.665  1.00  0.00     0.009 C 
ENDBRANCH  30  31
ENDBRANCH   9  30
BRANCH   4  34
HETATM   34  O1  UNL     1      20.427   7.866  -3.214  1.00  0.00    -0.346 OA
ATOM     35  H1  UNL     1      20.491   6.926  -3.338  1.00  0.00     0.219 HD
ENDBRANCH   4  34
BRANCH  12  36
HETATM   36  O3  UNL     1      14.750   7.623  -1.573  1.00  0.00    -0.348 OA
ATOM     37  H3  UNL     1      14.448   7.394  -2.445  1.00  0.00     0.219 HD
ENDBRANCH  12  36
BRANCH   1  38
HETATM   38  C4  UNL     1      20.847   6.327   0.219  1.00  0.00     0.038 C 
BRANCH  38  39
HETATM   39  C2  UNL     1      20.750   4.890   0.608  1.00  0.00    -0.020 C 
HETATM   40  C1  UNL     1      20.909   4.700   2.110  1.00  0.00     0.009 C 
HETATM   41  C3  UNL     1      21.926   4.121  -0.009  1.00  0.00     0.009 C 
ENDBRANCH  38  39
ENDBRANCH   1  38
BRANCH  19  42
HETATM   42  C22 UNL     1      16.252   6.912   2.078  1.00  0.00     0.038 C 
BRANCH  42  43
HETATM   43  C23 UNL     1      16.313   6.811   3.540  1.00  0.00    -0.020 C 
HETATM   44  C24 UNL     1      16.988   5.613   4.128  1.00  0.00     0.009 C 
HETATM   45  C25 UNL     1      14.855   6.815   4.039  1.00  0.00     0.009 C 
ENDBRANCH  42  43
ENDBRANCH  19  42
TORSDOF 10
ENDMDL
MODEL 4
REMARK VINA RESULT: -6.485968240      2.493      4.415
REMARK  10 active torsions:
REMARK  status: ('A' for Active; 'I' for Inactive)
REMARK    1  A    between atoms: C2_2  and  C4_4 
REMARK    2  A    between atoms: C4_4  and  C5_5 
REMARK    3  A    between atoms: C6_8  and  O1_9 
REMARK    4  A    between atoms: C9_14  and  C10_15 
REMARK    5  A    between atoms: C10_15  and  O2_19 
REMARK    6  A    between atoms: C11_21  and  C12_22 
REMARK    7  A    between atoms: C12_22  and  C13_23 
REMARK    8  A    between atoms: C16_28  and  O3_29 
REMARK    9  A    between atoms: C21_37  and  C22_38 
REMARK   10  A    between atoms: C22_38  and  C23_39 
ROOT
HETATM    1  C5  UNL     1      19.798  10.482  -3.563  1.00  0.00     0.176 C 
HETATM    2  N1  UNL     1      18.566   9.759  -3.554  1.00  0.00    -0.357 N 
ATOM      3  H1  UNL     1      18.681   8.751  -3.448  1.00  0.00     0.162 HD
HETATM    4  C6  UNL     1      17.239  10.165  -3.661  1.00  0.00     0.144 C 
HETATM    5  C7  UNL     1      16.397  10.974  -2.784  1.00  0.00     0.013 C 
HETATM    6  C8  UNL     1      15.539  11.781  -3.376  1.00  0.00     0.068 C 
HETATM    7 BR1  UNL     1      15.381  11.904  -5.241  1.00  0.00    -0.063 Br
HETATM    8  C9  UNL     1      16.450  10.941  -1.313  1.00  0.00     0.120 C 
HETATM    9  C11 UNL     1      15.953   9.617  -0.686  1.00  0.00     0.100 C 
HETATM   10  N3  UNL     1      17.053   8.715  -0.565  1.00  0.00    -0.367 N 
ATOM     11  H3  UNL     1      17.202   8.118  -1.379  1.00  0.00     0.161 HD
HETATM   12  C16 UNL     1      17.970   8.510   0.490  1.00  0.00     0.134 C 
HETATM   13  C17 UNL     1      18.243   9.206   1.707  1.00  0.00     0.157 C 
HETATM   14  C18 UNL     1      16.988   9.697   2.456  1.00  0.00     0.041 C 
HETATM   15  N4  UNL     1      19.200  10.253   1.781  1.00  0.00    -0.343 N 
HETATM   16  C19 UNL     1      19.354  10.710   3.196  1.00  0.00     0.153 C 
HETATM   17  C20 UNL     1      19.982  10.913   0.862  1.00  0.00     0.243 C 
HETATM   18  O4  UNL     1      20.299  12.123   1.186  1.00  0.00    -0.271 OA
HETATM   19  C21 UNL     1      20.535  10.499  -0.446  1.00  0.00     0.177 C 
HETATM   20  N5  UNL     1      20.510  11.610  -1.360  1.00  0.00    -0.346 N 
ATOM     21  H5  UNL     1      20.966  12.469  -1.055  1.00  0.00     0.163 HD
HETATM   22  C26 UNL     1      19.908  11.621  -2.648  1.00  0.00     0.241 C 
HETATM   23  O5  UNL     1      19.401  12.721  -3.084  1.00  0.00    -0.271 OA
ENDROOT
BRANCH   8  24
HETATM   24  C10 UNL     1      15.692  12.040  -0.689  1.00  0.00     0.119 C 
HETATM   25  N2  UNL     1      14.726  11.845   0.147  1.00  0.00    -0.383 N 
ATOM     26  H22 UNL     1      14.500  10.874   0.366  1.00  0.00     0.158 HD
ATOM     27  H21 UNL     1      14.201  12.605   0.579  1.00  0.00     0.158 HD
BRANCH  24  28
HETATM   28  O2  UNL     1      15.998  13.353  -0.986  1.00  0.00    -0.349 OA
ATOM     29  H2  UNL     1      16.125  13.984  -0.288  1.00  0.00     0.219 HD
ENDBRANCH  24  28
ENDBRANCH   8  24
BRANCH   9  30
HETATM   30  C12 UNL     1      14.816   9.067  -1.477  1.00  0.00     0.030 C 
BRANCH  30  31
HETATM   31  C13 UNL     1      15.047   7.697  -2.032  1.00  0.00    -0.021 C 
HETATM   32  C14 UNL     1      14.452   6.654  -1.040  1.00  0.00     0.009 C 
HETATM   33  C15 UNL     1      14.356   7.379  -3.335  1.00  0.00     0.009 C 
ENDBRANCH  30  31
ENDBRANCH   9  30
BRANCH   4  34
HETATM   34  O1  UNL     1      16.605   9.767  -4.727  1.00  0.00    -0.346 OA
ATOM     35  H1  UNL     1      15.733  10.124  -4.851  1.00  0.00     0.219 HD
ENDBRANCH   4  34
BRANCH  12  36
HETATM   36  O3  UNL     1      18.715   7.458   0.293  1.00  0.00    -0.348 OA
ATOM     37  H3  UNL     1      19.631   7.686   0.182  1.00  0.00     0.219 HD
ENDBRANCH  12  36
BRANCH   1  38
HETATM   38  C4  UNL     1      20.195  10.940  -4.974  1.00  0.00     0.038 C 
BRANCH  38  39
HETATM   39  C2  UNL     1      21.394  10.220  -5.494  1.00  0.00    -0.020 C 
HETATM   40  C1  UNL     1      21.819   9.090  -4.567  1.00  0.00     0.009 C 
HETATM   41  C3  UNL     1      22.591  11.180  -5.513  1.00  0.00     0.009 C 
ENDBRANCH  38  39
ENDBRANCH   1  38
BRANCH  19  42
HETATM   42  C22 UNL     1      21.854   9.860  -0.393  1.00  0.00     0.038 C 
BRANCH  42  43
HETATM   43  C23 UNL     1      23.043  10.536  -0.924  1.00  0.00    -0.020 C 
HETATM   44  C24 UNL     1      24.026   9.714  -1.694  1.00  0.00     0.009 C 
HETATM   45  C25 UNL     1      23.785  11.131   0.289  1.00  0.00     0.009 C 
ENDBRANCH  42  43
ENDBRANCH  19  42
TORSDOF 10
ENDMDL
MODEL 5
REMARK VINA RESULT: -6.471028390      2.372      6.911
REMARK  10 active torsions:
REMARK  status: ('A' for Active; 'I' for Inactive)
REMARK    1  A    between atoms: C2_2  and  C4_4 
REMARK    2  A    between atoms: C4_4  and  C5_5 
REMARK    3  A    between atoms: C6_8  and  O1_9 
REMARK    4  A    between atoms: C9_14  and  C10_15 
REMARK    5  A    between atoms: C10_15  and  O2_19 
REMARK    6  A    between atoms: C11_21  and  C12_22 
REMARK    7  A    between atoms: C12_22  and  C13_23 
REMARK    8  A    between atoms: C16_28  and  O3_29 
REMARK    9  A    between atoms: C21_37  and  C22_38 
REMARK   10  A    between atoms: C22_38  and  C23_39 
ROOT
HETATM    1  C5  UNL     1      19.733   8.114  -1.229  1.00  0.00     0.176 C 
HETATM    2  N1  UNL     1      19.140   8.502  -2.468  1.00  0.00    -0.357 N 
ATOM      3  H1  UNL     1      18.521   7.796  -2.868  1.00  0.00     0.162 HD
HETATM    4  C6  UNL     1      19.243   9.658  -3.237  1.00  0.00     0.144 C 
HETATM    5  C7  UNL     1      18.830  11.036  -2.979  1.00  0.00     0.013 C 
HETATM    6  C8  UNL     1      19.624  11.981  -3.441  1.00  0.00     0.068 C 
HETATM    7 BR1  UNL     1      21.203  11.611  -4.384  1.00  0.00    -0.063 Br
HETATM    8  C9  UNL     1      17.609  11.419  -2.251  1.00  0.00     0.120 C 
HETATM    9  C11 UNL     1      16.294  11.089  -2.995  1.00  0.00     0.100 C 
HETATM   10  N3  UNL     1      15.874   9.771  -2.640  1.00  0.00    -0.367 N 
ATOM     11  H3  UNL     1      16.241   9.034  -3.242  1.00  0.00     0.161 HD
HETATM   12  C16 UNL     1      15.036   9.316  -1.598  1.00  0.00     0.134 C 
HETATM   13  C17 UNL     1      14.456   9.946  -0.455  1.00  0.00     0.157 C 
HETATM   14  C18 UNL     1      13.911  11.365  -0.715  1.00  0.00     0.041 C 
HETATM   15  N4  UNL     1      15.115   9.985   0.803  1.00  0.00    -0.343 N 
HETATM   16  C19 UNL     1      14.223  10.601   1.833  1.00  0.00     0.153 C 
HETATM   17  C20 UNL     1      16.354   9.595   1.256  1.00  0.00     0.243 C 
HETATM   18  O4  UNL     1      16.796  10.261   2.271  1.00  0.00    -0.271 OA
HETATM   19  C21 UNL     1      17.291   8.548   0.797  1.00  0.00     0.177 C 
HETATM   20  N5  UNL     1      18.646   9.016   0.924  1.00  0.00    -0.346 N 
ATOM     21  H5  UNL     1      18.935   9.350   1.842  1.00  0.00     0.163 HD
HETATM   22  C26 UNL     1      19.619   9.055  -0.112  1.00  0.00     0.241 C 
HETATM   23  O5  UNL     1      20.499   9.995  -0.099  1.00  0.00    -0.271 OA
ENDROOT
BRANCH   8  24
HETATM   24  C10 UNL     1      17.577  12.851  -1.904  1.00  0.00     0.119 C 
HETATM   25  N2  UNL     1      16.489  13.477  -1.594  1.00  0.00    -0.383 N 
ATOM     26  H22 UNL     1      15.629  12.928  -1.598  1.00  0.00     0.158 HD
ATOM     27  H21 UNL     1      16.466  14.468  -1.354  1.00  0.00     0.158 HD
BRANCH  24  28
HETATM   28  O2  UNL     1      18.741  13.592  -1.899  1.00  0.00    -0.349 OA
ATOM     29  H2  UNL     1      18.732  14.500  -2.179  1.00  0.00     0.219 HD
ENDBRANCH  24  28
ENDBRANCH   8  24
BRANCH   9  30
HETATM   30  C12 UNL     1      16.467  11.284  -4.462  1.00  0.00     0.030 C 
BRANCH  30  31
HETATM   31  C13 UNL     1      15.198  11.536  -5.213  1.00  0.00    -0.021 C 
HETATM   32  C14 UNL     1      14.432  12.697  -4.513  1.00  0.00     0.009 C 
HETATM   33  C15 UNL     1      15.348  12.018  -6.635  1.00  0.00     0.009 C 
ENDBRANCH  30  31
ENDBRANCH   9  30
BRANCH   4  34
HETATM   34  O1  UNL     1      19.805   9.520  -4.404  1.00  0.00    -0.346 OA
ATOM     35  H1  UNL     1      19.703   8.671  -4.817  1.00  0.00     0.219 HD
ENDBRANCH   4  34
BRANCH  12  36
HETATM   36  O3  UNL     1      14.740   8.053  -1.724  1.00  0.00    -0.348 OA
ATOM     37  H3  UNL     1      15.427   7.490  -1.384  1.00  0.00     0.219 HD
ENDBRANCH  12  36
BRANCH   1  38
HETATM   38  C4  UNL     1      21.208   7.712  -1.389  1.00  0.00     0.038 C 
BRANCH  38  39
HETATM   39  C2  UNL     1      21.378   6.260  -1.683  1.00  0.00    -0.020 C 
HETATM   40  C1  UNL     1      21.261   5.968  -3.172  1.00  0.00     0.009 C 
HETATM   41  C3  UNL     1      20.223   5.478  -1.041  1.00  0.00     0.009 C 
ENDBRANCH  38  39
ENDBRANCH   1  38
BRANCH  19  42
HETATM   42  C22 UNL     1      17.105   7.229   1.410  1.00  0.00     0.038 C 
BRANCH  42  43
HETATM   43  C23 UNL     1      16.576   7.096   2.772  1.00  0.00    -0.020 C 
HETATM   44  C24 UNL     1      17.384   6.320   3.761  1.00  0.00     0.009 C 
HETATM   45  C25 UNL     1      15.207   6.399   2.642  1.00  0.00     0.009 C 
ENDBRANCH  42  43
ENDBRANCH  19  42
TORSDOF 10
ENDMDL
