MODEL 1
REMARK VINA RESULT: -8.468277926      0.000      0.000
REMARK  7 active torsions:
REMARK  status: ('A' for Active; 'I' for Inactive)
REMARK    1  A    between atoms: C2_2  and  C3_3 
REMARK    2  A    between atoms: C3_3  and  C5_5 
REMARK    3  A    between atoms: C7_10  and  C8_11 
REMARK    4  A    between atoms: C14_23  and  C15_24 
REMARK    5  A    between atoms: C19_31  and  C20_32 
REMARK    6  A    between atoms: C20_32  and  C21_33 
REMARK    7  A    between atoms: C25_40  and  C26_41 
ROOT
HETATM    1  C5  UNL     1      17.746   7.954   3.058  1.00  0.00     0.180 C 
HETATM    2  N1  UNL     1      16.582   8.730   2.732  1.00  0.00    -0.342 N 
ATOM      3  H1  UNL     1      16.743   9.594   2.215  1.00  0.00     0.163 HD
HETATM    4  C6  UNL     1      15.256   8.431   3.045  1.00  0.00     0.266 C 
HETATM    5  O1  UNL     1      14.538   9.372   3.570  1.00  0.00    -0.266 OA
HETATM    6  C7  UNL     1      14.536   7.185   2.863  1.00  0.00     0.091 C 
HETATM    7  N2  UNL     1      14.565   6.461   1.828  1.00  0.00    -0.387 N 
ATOM      8  H2  UNL     1      13.989   5.622   1.894  1.00  0.00     0.159 HD
HETATM    9  C10 UNL     1      15.242   6.594   0.597  1.00  0.00     0.121 C 
HETATM   10  C11 UNL     1      14.769   7.760  -0.244  1.00  0.00     0.039 C 
HETATM   11  C12 UNL     1      15.787   7.970  -1.343  1.00  0.00     0.124 C 
HETATM   12  N3  UNL     1      15.137   7.942  -2.647  1.00  0.00    -0.359 N 
ATOM     13  H3  UNL     1      14.971   7.027  -3.067  1.00  0.00     0.162 HD
HETATM   14  C13 UNL     1      14.722   9.063  -3.369  1.00  0.00     0.240 C 
HETATM   15  O2  UNL     1      13.550   9.038  -3.882  1.00  0.00    -0.271 OA
HETATM   16  C14 UNL     1      15.501  10.301  -3.613  1.00  0.00     0.180 C 
HETATM   17  N4  UNL     1      16.913  10.159  -3.430  1.00  0.00    -0.346 N 
ATOM     18  H4  UNL     1      17.314   9.269  -3.724  1.00  0.00     0.163 HD
HETATM   19  C18 UNL     1      17.816  11.095  -2.895  1.00  0.00     0.241 C 
HETATM   20  O3  UNL     1      18.887  11.401  -3.528  1.00  0.00    -0.271 OA
HETATM   21  C19 UNL     1      17.631  11.808  -1.572  1.00  0.00     0.177 C 
HETATM   22  N5  UNL     1      18.980  11.920  -0.996  1.00  0.00    -0.346 N 
ATOM     23  H5  UNL     1      19.623  12.560  -1.462  1.00  0.00     0.163 HD
HETATM   24  C24 UNL     1      19.470  11.250   0.107  1.00  0.00     0.241 C 
HETATM   25  O4  UNL     1      20.364  11.815   0.827  1.00  0.00    -0.271 OA
HETATM   26  C25 UNL     1      19.061   9.880   0.582  1.00  0.00     0.180 C 
HETATM   27  N6  UNL     1      19.233   9.809   2.015  1.00  0.00    -0.346 N 
ATOM     28  H6  UNL     1      19.579  10.660   2.459  1.00  0.00     0.163 HD
HETATM   29  C29 UNL     1      18.992   8.743   2.872  1.00  0.00     0.241 C 
HETATM   30  O5  UNL     1      19.973   8.369   3.620  1.00  0.00    -0.271 OA
ENDROOT
BRANCH   1  31
HETATM   31  C3  UNL     1      17.696   7.413   4.498  1.00  0.00     0.013 C 
HETATM   32  C4  UNL     1      18.212   6.017   4.537  1.00  0.00     0.012 C 
BRANCH  31  33
HETATM   33  C2  UNL     1      18.334   8.364   5.454  1.00  0.00     0.002 C 
HETATM   34  C1  UNL     1      17.276   9.115   6.226  1.00  0.00     0.005 C 
ENDBRANCH  31  33
ENDBRANCH   1  31
BRANCH   6  35
HETATM   35  C8  UNL     1      13.659   6.750   4.023  1.00  0.00     0.133 C 
HETATM   36  C9  UNL     1      12.346   7.499   3.996  1.00  0.00     0.033 C 
HETATM   37 CL1  UNL     1      14.494   7.007   5.567  1.00  0.00    -0.119 Cl
ENDBRANCH   6  35
BRANCH  26  38
HETATM   38  C26 UNL     1      19.976   8.934  -0.172  1.00  0.00     0.009 C 
HETATM   39  C27 UNL     1      21.341   8.857   0.462  1.00  0.00     0.012 C 
HETATM   40  C28 UNL     1      19.382   7.599  -0.459  1.00  0.00     0.012 C 
ENDBRANCH  26  38
BRANCH  21  41
HETATM   41  C20 UNL     1      17.084  13.166  -1.841  1.00  0.00     0.038 C 
BRANCH  41  42
HETATM   42  C21 UNL     1      15.629  13.374  -1.676  1.00  0.00    -0.020 C 
HETATM   43  C22 UNL     1      14.851  12.322  -0.972  1.00  0.00     0.009 C 
HETATM   44  C23 UNL     1      15.353  14.693  -0.924  1.00  0.00     0.009 C 
ENDBRANCH  41  42
ENDBRANCH  21  41
BRANCH  16  45
HETATM   45  C15 UNL     1      15.254  10.650  -5.083  1.00  0.00     0.009 C 
HETATM   46  C16 UNL     1      15.064  12.118  -5.281  1.00  0.00     0.012 C 
HETATM   47  C17 UNL     1      16.413  10.199  -5.942  1.00  0.00     0.012 C 
ENDBRANCH  16  45
TORSDOF 7
ENDMDL
MODEL 2
REMARK VINA RESULT: -7.382132316      2.775      8.326
REMARK  7 active torsions:
REMARK  status: ('A' for Active; 'I' for Inactive)
REMARK    1  A    between atoms: C2_2  and  C3_3 
REMARK    2  A    between atoms: C3_3  and  C5_5 
REMARK    3  A    between atoms: C7_10  and  C8_11 
REMARK    4  A    between atoms: C14_23  and  C15_24 
REMARK    5  A    between atoms: C19_31  and  C20_32 
REMARK    6  A    between atoms: C20_32  and  C21_33 
REMARK    7  A    between atoms: C25_40  and  C26_41 
ROOT
HETATM    1  C5  UNL     1      15.941  10.423  -1.457  1.00  0.00     0.180 C 
HETATM    2  N1  UNL     1      17.155  10.803  -0.791  1.00  0.00    -0.342 N 
ATOM      3  H1  UNL     1      17.146  10.761   0.229  1.00  0.00     0.163 HD
HETATM    4  C6  UNL     1      18.345  11.224  -1.384  1.00  0.00     0.266 C 
HETATM    5  O1  UNL     1      18.901  12.296  -0.916  1.00  0.00    -0.266 OA
HETATM    6  C7  UNL     1      19.078  10.621  -2.480  1.00  0.00     0.091 C 
HETATM    7  N2  UNL     1      19.325   9.389  -2.613  1.00  0.00    -0.387 N 
ATOM      8  H2  UNL     1      19.856   9.162  -3.455  1.00  0.00     0.159 HD
HETATM    9  C10 UNL     1      19.007   8.267  -1.819  1.00  0.00     0.121 C 
HETATM   10  C11 UNL     1      19.697   8.250  -0.472  1.00  0.00     0.039 C 
HETATM   11  C12 UNL     1      19.016   7.198   0.374  1.00  0.00     0.124 C 
HETATM   12  N3  UNL     1      19.994   6.242   0.879  1.00  0.00    -0.359 N 
ATOM     13  H3  UNL     1      20.260   5.476   0.261  1.00  0.00     0.162 HD
HETATM   14  C13 UNL     1      20.596   6.289   2.138  1.00  0.00     0.240 C 
HETATM   15  O2  UNL     1      21.863   6.118   2.197  1.00  0.00    -0.271 OA
HETATM   16  C14 UNL     1      19.921   6.518   3.438  1.00  0.00     0.180 C 
HETATM   17  N4  UNL     1      18.511   6.274   3.425  1.00  0.00    -0.346 N 
ATOM     18  H4  UNL     1      18.198   5.494   2.847  1.00  0.00     0.163 HD
HETATM   19  C18 UNL     1      17.503   6.976   4.110  1.00  0.00     0.241 C 
HETATM   20  O3  UNL     1      16.646   6.350   4.827  1.00  0.00    -0.271 OA
HETATM   21  C19 UNL     1      17.329   8.480   4.076  1.00  0.00     0.177 C 
HETATM   22  N5  UNL     1      15.876   8.705   4.087  1.00  0.00    -0.346 N 
ATOM     23  H5  UNL     1      15.387   8.484   4.955  1.00  0.00     0.163 HD
HETATM   24  C24 UNL     1      15.101   9.185   3.050  1.00  0.00     0.241 C 
HETATM   25  O4  UNL     1      14.050   9.860   3.324  1.00  0.00    -0.271 OA
HETATM   26  C25 UNL     1      15.357   8.999   1.577  1.00  0.00     0.180 C 
HETATM   27  N6  UNL     1      14.804  10.124   0.858  1.00  0.00    -0.346 N 
ATOM     28  H6  UNL     1      14.357  10.837   1.435  1.00  0.00     0.163 HD
HETATM   29  C29 UNL     1      14.797  10.369  -0.509  1.00  0.00     0.241 C 
HETATM   30  O5  UNL     1      13.647  10.583  -1.052  1.00  0.00    -0.271 OA
ENDROOT
BRANCH   1  31
HETATM   31  C3  UNL     1      15.596  11.372  -2.618  1.00  0.00     0.013 C 
HETATM   32  C4  UNL     1      16.082  12.746  -2.314  1.00  0.00     0.012 C 
BRANCH  31  33
HETATM   33  C2  UNL     1      16.037  10.806  -3.926  1.00  0.00     0.002 C 
HETATM   34  C1  UNL     1      15.864   9.306  -3.929  1.00  0.00     0.005 C 
ENDBRANCH  31  33
ENDBRANCH   1  31
BRANCH   6  35
HETATM   35  C8  UNL     1      19.606  11.580  -3.532  1.00  0.00     0.133 C 
HETATM   36  C9  UNL     1      19.479  10.968  -4.908  1.00  0.00     0.033 C 
HETATM   37 CL1  UNL     1      21.293  12.012  -3.192  1.00  0.00    -0.119 Cl
ENDBRANCH   6  35
BRANCH  26  38
HETATM   38  C26 UNL     1      14.673   7.687   1.241  1.00  0.00     0.009 C 
HETATM   39  C27 UNL     1      15.428   6.922   0.185  1.00  0.00     0.012 C 
HETATM   40  C28 UNL     1      14.309   6.859   2.424  1.00  0.00     0.012 C 
ENDBRANCH  26  38
BRANCH  21  41
HETATM   41  C20 UNL     1      17.938   9.053   5.307  1.00  0.00     0.038 C 
BRANCH  41  42
HETATM   42  C21 UNL     1      17.032   9.545   6.367  1.00  0.00    -0.020 C 
HETATM   43  C22 UNL     1      16.856   8.701   7.578  1.00  0.00     0.009 C 
HETATM   44  C23 UNL     1      17.487  10.931   6.868  1.00  0.00     0.009 C 
ENDBRANCH  41  42
ENDBRANCH  21  41
BRANCH  16  45
HETATM   45  C15 UNL     1      20.558   5.516   4.405  1.00  0.00     0.009 C 
HETATM   46  C16 UNL     1      20.536   6.013   5.813  1.00  0.00     0.012 C 
HETATM   47  C17 UNL     1      19.835   4.190   4.356  1.00  0.00     0.012 C 
ENDBRANCH  16  45
TORSDOF 7
ENDMDL
MODEL 3
REMARK VINA RESULT: -7.245030940      2.968      5.940
REMARK  7 active torsions:
REMARK  status: ('A' for Active; 'I' for Inactive)
REMARK    1  A    between atoms: C2_2  and  C3_3 
REMARK    2  A    between atoms: C3_3  and  C5_5 
REMARK    3  A    between atoms: C7_10  and  C8_11 
REMARK    4  A    between atoms: C14_23  and  C15_24 
REMARK    5  A    between atoms: C19_31  and  C20_32 
REMARK    6  A    between atoms: C20_32  and  C21_33 
REMARK    7  A    between atoms: C25_40  and  C26_41 
ROOT
HETATM    1  C5  UNL     1      19.416   6.131   3.369  1.00  0.00     0.180 C 
HETATM    2  N1  UNL     1      19.395   5.990   1.940  1.00  0.00    -0.342 N 
ATOM      3  H1  UNL     1      18.505   6.178   1.478  1.00  0.00     0.163 HD
HETATM    4  C6  UNL     1      20.458   5.624   1.114  1.00  0.00     0.266 C 
HETATM    5  O1  UNL     1      20.241   4.701   0.233  1.00  0.00    -0.266 OA
HETATM    6  C7  UNL     1      21.813   6.141   1.093  1.00  0.00     0.091 C 
HETATM    7  N2  UNL     1      22.139   7.360   1.148  1.00  0.00    -0.387 N 
ATOM      8  H2  UNL     1      23.146   7.521   1.119  1.00  0.00     0.159 HD
HETATM    9  C10 UNL     1      21.374   8.542   1.241  1.00  0.00     0.121 C 
HETATM   10  C11 UNL     1      20.536   8.832   0.015  1.00  0.00     0.039 C 
HETATM   11  C12 UNL     1      19.544   9.912   0.386  1.00  0.00     0.124 C 
HETATM   12  N3  UNL     1      19.648  11.035  -0.538  1.00  0.00    -0.359 N 
ATOM     13  H3  UNL     1      20.372  11.728  -0.351  1.00  0.00     0.162 HD
HETATM   14  C13 UNL     1      18.839  11.239  -1.657  1.00  0.00     0.240 C 
HETATM   15  O2  UNL     1      19.413  11.558  -2.755  1.00  0.00    -0.271 OA
HETATM   16  C14 UNL     1      17.361  11.126  -1.718  1.00  0.00     0.180 C 
HETATM   17  N4  UNL     1      16.708  11.206  -0.448  1.00  0.00    -0.346 N 
ATOM     18  H4  UNL     1      17.117  11.854   0.225  1.00  0.00     0.163 HD
HETATM   19  C18 UNL     1      15.571  10.502  -0.012  1.00  0.00     0.241 C 
HETATM   20  O3  UNL     1      14.577  11.124   0.502  1.00  0.00    -0.271 OA
HETATM   21  C19 UNL     1      15.407   8.998  -0.098  1.00  0.00     0.177 C 
HETATM   22  N5  UNL     1      14.676   8.615   1.120  1.00  0.00    -0.346 N 
ATOM     23  H5  UNL     1      13.699   8.904   1.175  1.00  0.00     0.163 HD
HETATM   24  C24 UNL     1      15.171   7.907   2.197  1.00  0.00     0.241 C 
HETATM   25  O4  UNL     1      14.373   7.164   2.867  1.00  0.00    -0.271 OA
HETATM   26  C25 UNL     1      16.592   7.905   2.696  1.00  0.00     0.180 C 
HETATM   27  N6  UNL     1      16.868   6.632   3.322  1.00  0.00    -0.346 N 
ATOM     28  H6  UNL     1      16.097   5.965   3.321  1.00  0.00     0.163 HD
HETATM   29  C29 UNL     1      18.039   6.193   3.927  1.00  0.00     0.241 C 
HETATM   30  O5  UNL     1      17.940   5.774   5.143  1.00  0.00    -0.271 OA
ENDROOT
BRANCH   1  31
HETATM   31  C3  UNL     1      20.191   4.991   4.052  1.00  0.00     0.013 C 
HETATM   32  C4  UNL     1      20.850   5.492   5.289  1.00  0.00     0.012 C 
BRANCH  31  33
HETATM   33  C2  UNL     1      19.335   3.782   4.222  1.00  0.00     0.002 C 
HETATM   34  C1  UNL     1      20.179   2.599   4.632  1.00  0.00     0.005 C 
ENDBRANCH  31  33
ENDBRANCH   1  31
BRANCH   6  35
HETATM   35  C8  UNL     1      22.916   5.105   0.965  1.00  0.00     0.133 C 
HETATM   36  C9  UNL     1      23.280   4.560   2.327  1.00  0.00     0.033 C 
HETATM   37 CL1  UNL     1      24.339   5.803   0.169  1.00  0.00    -0.119 Cl
ENDBRANCH   6  35
BRANCH  26  38
HETATM   38  C26 UNL     1      16.650   9.069   3.667  1.00  0.00     0.009 C 
HETATM   39  C27 UNL     1      16.041   8.713   4.998  1.00  0.00     0.012 C 
HETATM   40  C28 UNL     1      17.988   9.711   3.781  1.00  0.00     0.012 C 
ENDBRANCH  26  38
BRANCH  21  41
HETATM   41  C20 UNL     1      14.587   8.681  -1.299  1.00  0.00     0.038 C 
BRANCH  41  42
HETATM   42  C21 UNL     1      15.043   7.588  -2.183  1.00  0.00    -0.020 C 
HETATM   43  C22 UNL     1      14.658   7.645  -3.617  1.00  0.00     0.009 C 
HETATM   44  C23 UNL     1      16.582   7.473  -2.152  1.00  0.00     0.009 C 
ENDBRANCH  41  42
ENDBRANCH  21  41
BRANCH  16  45
HETATM   45  C15 UNL     1      16.900  12.322  -2.555  1.00  0.00     0.009 C 
HETATM   46  C16 UNL     1      15.748  11.972  -3.437  1.00  0.00     0.012 C 
HETATM   47  C17 UNL     1      16.487  13.471  -1.665  1.00  0.00     0.012 C 
ENDBRANCH  16  45
TORSDOF 7
ENDMDL
MODEL 4
REMARK VINA RESULT: -7.016876253      3.038      8.112
REMARK  7 active torsions:
REMARK  status: ('A' for Active; 'I' for Inactive)
REMARK    1  A    between atoms: C2_2  and  C3_3 
REMARK    2  A    between atoms: C3_3  and  C5_5 
REMARK    3  A    between atoms: C7_10  and  C8_11 
REMARK    4  A    between atoms: C14_23  and  C15_24 
REMARK    5  A    between atoms: C19_31  and  C20_32 
REMARK    6  A    between atoms: C20_32  and  C21_33 
REMARK    7  A    between atoms: C25_40  and  C26_41 
ROOT
HETATM    1  C5  UNL     1      15.632  10.289  -0.187  1.00  0.00     0.180 C 
HETATM    2  N1  UNL     1      17.024  10.593  -0.006  1.00  0.00    -0.342 N 
ATOM      3  H1  UNL     1      17.390  10.497   0.941  1.00  0.00     0.163 HD
HETATM    4  C6  UNL     1      17.930  11.007  -0.982  1.00  0.00     0.266 C 
HETATM    5  O1  UNL     1      18.672  12.034  -0.714  1.00  0.00    -0.266 OA
HETATM    6  C7  UNL     1      18.175  10.441  -2.294  1.00  0.00     0.091 C 
HETATM    7  N2  UNL     1      18.294   9.211  -2.557  1.00  0.00    -0.387 N 
ATOM      8  H2  UNL     1      18.463   9.013  -3.543  1.00  0.00     0.159 HD
HETATM    9  C10 UNL     1      18.236   8.059  -1.744  1.00  0.00     0.121 C 
HETATM   10  C11 UNL     1      19.374   7.947  -0.753  1.00  0.00     0.039 C 
HETATM   11  C12 UNL     1      19.002   6.873   0.246  1.00  0.00     0.124 C 
HETATM   12  N3  UNL     1      20.049   5.861   0.313  1.00  0.00    -0.359 N 
ATOM     13  H3  UNL     1      20.029   5.121  -0.388  1.00  0.00     0.162 HD
HETATM   14  C13 UNL     1      21.075   5.820   1.259  1.00  0.00     0.240 C 
HETATM   15  O2  UNL     1      22.264   5.606   0.837  1.00  0.00    -0.271 OA
HETATM   16  C14 UNL     1      20.941   6.000   2.726  1.00  0.00     0.180 C 
HETATM   17  N4  UNL     1      19.615   5.802   3.228  1.00  0.00    -0.346 N 
ATOM     18  H4  UNL     1      19.073   5.065   2.778  1.00  0.00     0.163 HD
HETATM   19  C18 UNL     1      18.969   6.498   4.265  1.00  0.00     0.241 C 
HETATM   20  O3  UNL     1      18.407   5.863   5.224  1.00  0.00    -0.271 OA
HETATM   21  C19 UNL     1      18.869   8.007   4.355  1.00  0.00     0.177 C 
HETATM   22  N5  UNL     1      17.536   8.278   4.914  1.00  0.00    -0.346 N 
ATOM     23  H5  UNL     1      17.392   8.026   5.892  1.00  0.00     0.163 HD
HETATM   24  C24 UNL     1      16.458   8.837   4.258  1.00  0.00     0.241 C 
HETATM   25  O4  UNL     1      15.618   9.530   4.928  1.00  0.00    -0.271 OA
HETATM   26  C25 UNL     1      16.141   8.723   2.790  1.00  0.00     0.180 C 
HETATM   27  N6  UNL     1      15.418   9.902   2.372  1.00  0.00    -0.346 N 
ATOM     28  H6  UNL     1      15.252  10.597   3.100  1.00  0.00     0.163 HD
HETATM   29  C29 UNL     1      14.919  10.221   1.115  1.00  0.00     0.241 C 
HETATM   30  O5  UNL     1      13.662  10.500   1.047  1.00  0.00    -0.271 OA
ENDROOT
BRANCH   1  31
HETATM   31  C3  UNL     1      14.931  11.309  -1.100  1.00  0.00     0.013 C 
HETATM   32  C4  UNL     1      15.585  12.641  -0.974  1.00  0.00     0.012 C 
BRANCH  31  33
HETATM   33  C2  UNL     1      14.795  10.786  -2.490  1.00  0.00     0.002 C 
HETATM   34  C1  UNL     1      14.581   9.291  -2.465  1.00  0.00     0.005 C 
ENDBRANCH  31  33
ENDBRANCH   1  31
BRANCH   6  35
HETATM   35  C8  UNL     1      18.323  11.438  -3.430  1.00  0.00     0.133 C 
HETATM   36  C9  UNL     1      17.703  10.888  -4.694  1.00  0.00     0.033 C 
HETATM   37 CL1  UNL     1      20.033  11.834  -3.693  1.00  0.00    -0.119 Cl
ENDBRANCH   6  35
BRANCH  26  38
HETATM   38  C26 UNL     1      15.317   7.453   2.682  1.00  0.00     0.009 C 
HETATM   39  C27 UNL     1      13.912   7.658   3.185  1.00  0.00     0.012 C 
HETATM   40  C28 UNL     1      15.378   6.789   1.350  1.00  0.00     0.012 C 
ENDBRANCH  26  38
BRANCH  21  41
HETATM   41  C20 UNL     1      19.918   8.494   5.292  1.00  0.00     0.038 C 
BRANCH  41  42
HETATM   42  C21 UNL     1      20.936   9.430   4.770  1.00  0.00    -0.020 C 
HETATM   43  C22 UNL     1      22.367   9.057   4.919  1.00  0.00     0.009 C 
HETATM   44  C23 UNL     1      20.711   9.691   3.266  1.00  0.00     0.009 C 
ENDBRANCH  41  42
ENDBRANCH  21  41
BRANCH  16  45
HETATM   45  C15 UNL     1      21.839   4.928   3.347  1.00  0.00     0.009 C 
HETATM   46  C16 UNL     1      22.453   5.392   4.627  1.00  0.00     0.012 C 
HETATM   47  C17 UNL     1      21.055   3.667   3.624  1.00  0.00     0.012 C 
ENDBRANCH  16  45
TORSDOF 7
ENDMDL
MODEL 5
REMARK VINA RESULT: -6.948784136      2.598      5.853
REMARK  7 active torsions:
REMARK  status: ('A' for Active; 'I' for Inactive)
REMARK    1  A    between atoms: C2_2  and  C3_3 
REMARK    2  A    between atoms: C3_3  and  C5_5 
REMARK    3  A    between atoms: C7_10  and  C8_11 
REMARK    4  A    between atoms: C14_23  and  C15_24 
REMARK    5  A    between atoms: C19_31  and  C20_32 
REMARK    6  A    between atoms: C20_32  and  C21_33 
REMARK    7  A    between atoms: C25_40  and  C26_41 
ROOT
HETATM    1  C5  UNL     1      15.394   8.788   4.059  1.00  0.00     0.180 C 
HETATM    2  N1  UNL     1      16.666   8.139   3.912  1.00  0.00    -0.342 N 
ATOM      3  H1  UNL     1      16.818   7.628   3.042  1.00  0.00     0.163 HD
HETATM    4  C6  UNL     1      17.718   8.130   4.828  1.00  0.00     0.266 C 
HETATM    5  O1  UNL     1      18.263   6.987   5.104  1.00  0.00    -0.266 OA
HETATM    6  C7  UNL     1      18.314   9.244   5.540  1.00  0.00     0.091 C 
HETATM    7  N2  UNL     1      18.624  10.361   5.037  1.00  0.00    -0.387 N 
ATOM      8  H2  UNL     1      19.032  11.016   5.703  1.00  0.00     0.159 HD
HETATM    9  C10 UNL     1      18.511  10.873   3.727  1.00  0.00     0.121 C 
HETATM   10  C11 UNL     1      19.401  10.182   2.717  1.00  0.00     0.039 C 
HETATM   11  C12 UNL     1      18.934  10.600   1.340  1.00  0.00     0.124 C 
HETATM   12  N3  UNL     1      20.043  11.159   0.577  1.00  0.00    -0.359 N 
ATOM     13  H3  UNL     1      20.264  12.143   0.727  1.00  0.00     0.162 HD
HETATM   14  C13 UNL     1      20.828  10.459  -0.342  1.00  0.00     0.240 C 
HETATM   15  O2  UNL     1      22.097  10.602  -0.269  1.00  0.00    -0.271 OA
HETATM   16  C14 UNL     1      20.346   9.553  -1.413  1.00  0.00     0.180 C 
HETATM   17  N4  UNL     1      18.972   9.732  -1.769  1.00  0.00    -0.346 N 
ATOM     18  H4  UNL     1      18.629  10.693  -1.757  1.00  0.00     0.163 HD
HETATM   19  C18 UNL     1      18.035   8.749  -2.133  1.00  0.00     0.241 C 
HETATM   20  O3  UNL     1      17.345   8.872  -3.205  1.00  0.00    -0.271 OA
HETATM   21  C19 UNL     1      17.752   7.494  -1.333  1.00  0.00     0.177 C 
HETATM   22  N5  UNL     1      16.306   7.263  -1.467  1.00  0.00    -0.346 N 
ATOM     23  H5  UNL     1      15.974   6.973  -2.387  1.00  0.00     0.163 HD
HETATM   24  C24 UNL     1      15.349   7.397  -0.481  1.00  0.00     0.241 C 
HETATM   25  O4  UNL     1      14.308   6.655  -0.525  1.00  0.00    -0.271 OA
HETATM   26  C25 UNL     1      15.386   8.349   0.685  1.00  0.00     0.180 C 
HETATM   27  N6  UNL     1      14.651   7.772   1.787  1.00  0.00    -0.346 N 
ATOM     28  H6  UNL     1      14.250   6.851   1.613  1.00  0.00     0.163 HD
HETATM   29  C29 UNL     1      14.417   8.298   3.051  1.00  0.00     0.241 C 
HETATM   30  O5  UNL     1      13.184   8.381   3.423  1.00  0.00    -0.271 OA
ENDROOT
BRANCH   1  31
HETATM   31  C3  UNL     1      14.808   8.602   5.469  1.00  0.00     0.013 C 
HETATM   32  C4  UNL     1      13.862   9.709   5.780  1.00  0.00     0.012 C 
BRANCH  31  33
HETATM   33  C2  UNL     1      14.269   7.222   5.651  1.00  0.00     0.002 C 
HETATM   34  C1  UNL     1      14.672   6.680   7.002  1.00  0.00     0.005 C 
ENDBRANCH  31  33
ENDBRANCH   1  31
BRANCH   6  35
HETATM   35  C8  UNL     1      18.604   9.011   7.012  1.00  0.00     0.133 C 
HETATM   36  C9  UNL     1      17.430   9.456   7.854  1.00  0.00     0.033 C 
HETATM   37 CL1  UNL     1      20.082   9.864   7.499  1.00  0.00    -0.119 Cl
ENDBRANCH   6  35
BRANCH  26  38
HETATM   38  C26 UNL     1      14.753   9.620   0.151  1.00  0.00     0.009 C 
HETATM   39  C27 UNL     1      15.467  10.849   0.653  1.00  0.00     0.012 C 
HETATM   40  C28 UNL     1      14.528   9.627  -1.320  1.00  0.00     0.012 C 
ENDBRANCH  26  38
BRANCH  21  41
HETATM   41  C20 UNL     1      18.502   6.364  -1.947  1.00  0.00     0.038 C 
BRANCH  41  42
HETATM   42  C21 UNL     1      19.534   5.689  -1.131  1.00  0.00    -0.020 C 
HETATM   43  C22 UNL     1      20.905   5.579  -1.693  1.00  0.00     0.009 C 
HETATM   44  C23 UNL     1      19.681   6.386   0.238  1.00  0.00     0.009 C 
ENDBRANCH  41  42
ENDBRANCH  21  41
BRANCH  16  45
HETATM   45  C15 UNL     1      21.194   9.894  -2.641  1.00  0.00     0.009 C 
HETATM   46  C16 UNL     1      21.351   8.721  -3.551  1.00  0.00     0.012 C 
HETATM   47  C17 UNL     1      20.569  11.026  -3.425  1.00  0.00     0.012 C 
ENDBRANCH  16  45
TORSDOF 7
ENDMDL
