MODEL 1
REMARK VINA RESULT: -7.905902290      0.000      0.000
REMARK  9 active torsions:
REMARK  status: ('A' for Active; 'I' for Inactive)
REMARK    1  A    between atoms: C2_2  and  C3_4 
REMARK    2  A    between atoms: C3_4  and  C4_5 
REMARK    3  A    between atoms: C4_5  and  C5_6 
REMARK    4  A    between atoms: C7_11  and  C8_12 
REMARK    5  A    between atoms: C8_12  and  C9_13 
REMARK    6  A    between atoms: C13_25  and  C14_26 
REMARK    7  A    between atoms: C18_33  and  C19_34 
REMARK    8  A    between atoms: C22_39  and  O5_40 
REMARK    9  A    between atoms: C23_42  and  C24_43 
ROOT
HETATM    1  C5  UNL     1      15.185  11.246  -0.525  1.00  0.00     0.026 C 
HETATM    2  N1  UNL     1      16.057  10.697   0.447  1.00  0.00    -0.328 N 
ATOM      3  H1  UNL     1      16.614  11.391   0.945  1.00  0.00     0.168 HD
HETATM    4  C6  UNL     1      16.297   9.366   0.851  1.00  0.00     0.245 C 
HETATM    5  O2  UNL     1      17.215   9.146   1.735  1.00  0.00    -0.271 OA
HETATM    6  C7  UNL     1      15.667   8.105   0.440  1.00  0.00     0.182 C 
HETATM    7  N4  UNL     1      16.558   7.023   0.114  1.00  0.00    -0.346 N 
ATOM      8  H4  UNL     1      16.088   6.135  -0.061  1.00  0.00     0.163 HD
HETATM    9  C12 UNL     1      17.947   6.966  -0.007  1.00  0.00     0.241 C 
HETATM   10  O3  UNL     1      18.579   6.368   0.942  1.00  0.00    -0.271 OA
HETATM   11  C13 UNL     1      18.842   7.485  -1.065  1.00  0.00     0.180 C 
HETATM   12  N5  UNL     1      19.685   8.562  -0.586  1.00  0.00    -0.346 N 
ATOM     13  H5  UNL     1      20.186   8.375   0.282  1.00  0.00     0.163 HD
HETATM   14  C17 UNL     1      19.907   9.819  -1.147  1.00  0.00     0.241 C 
HETATM   15  O4  UNL     1      21.143  10.193  -1.145  1.00  0.00    -0.271 OA
HETATM   16  C18 UNL     1      18.954  10.783  -1.739  1.00  0.00     0.179 C 
HETATM   17  N6  UNL     1      17.918  10.239  -2.547  1.00  0.00    -0.357 N 
ATOM     18  H6  UNL     1      18.267   9.731  -3.360  1.00  0.00     0.162 HD
HETATM   19  C22 UNL     1      16.526  10.251  -2.465  1.00  0.00     0.145 C 
HETATM   20  C23 UNL     1      15.556  11.214  -1.967  1.00  0.00     0.019 C 
ENDROOT
BRANCH   6  21
HETATM   21  C8  UNL     1      14.679   7.758   1.552  1.00  0.00     0.095 C 
BRANCH  21  22
HETATM   22  C9  UNL     1      15.245   7.443   2.843  1.00  0.00     0.046 A 
HETATM   23  N2  UNL     1      16.214   6.509   3.095  1.00  0.00    -0.353 N 
HETATM   24  C10 UNL     1      16.538   6.505   4.383  1.00  0.00     0.181 A 
ATOM     25  H2  UNL     1      16.631   5.901   2.390  1.00  0.00     0.166 HD
HETATM   26  N3  UNL     1      15.794   7.425   4.984  1.00  0.00    -0.345 N 
HETATM   27  C11 UNL     1      14.991   8.015   4.059  1.00  0.00     0.103 A 
ATOM     28  H3  UNL     1      15.820   7.653   5.978  1.00  0.00     0.167 HD
HETATM   29 BR1  UNL     1      13.723   9.352   4.544  1.00  0.00    -0.029 Br
ENDBRANCH  21  22
ENDBRANCH   6  21
BRANCH   1  30
HETATM   30  C4  UNL     1      13.708  11.254  -0.237  1.00  0.00     0.088 C 
BRANCH  30  31
HETATM   31  C3  UNL     1      13.208  11.642   1.072  1.00  0.00     0.029 C 
BRANCH  31  32
HETATM   32  C2  UNL     1      12.776  12.953   1.462  1.00  0.00     0.142 C 
HETATM   33  C1  UNL     1      12.853  14.033   0.382  1.00  0.00     0.095 C 
HETATM   34  O1  UNL     1      12.367  13.314   2.511  1.00  0.00    -0.294 OA
ENDBRANCH  31  32
ENDBRANCH  30  31
ENDBRANCH   1  30
BRANCH  11  35
HETATM   35  C14 UNL     1      19.741   6.314  -1.524  1.00  0.00     0.009 C 
HETATM   36  C15 UNL     1      18.848   5.261  -2.145  1.00  0.00     0.012 C 
HETATM   37  C16 UNL     1      20.759   6.685  -2.533  1.00  0.00     0.012 C 
ENDBRANCH  11  35
BRANCH  20  38
HETATM   38  C24 UNL     1      15.596  12.571  -2.644  1.00  0.00     0.017 C 
HETATM   39  C25 UNL     1      15.755  13.753  -1.790  1.00  0.00     0.015 C 
HETATM   40  C26 UNL     1      14.500  12.814  -3.648  1.00  0.00     0.015 C 
ENDBRANCH  20  38
BRANCH  19  41
HETATM   41  O5  UNL     1      16.036   9.130  -2.963  1.00  0.00    -0.346 OA
ATOM     42  H5  UNL     1      15.125   9.034  -2.709  1.00  0.00     0.219 HD
ENDBRANCH  19  41
BRANCH  16  43
HETATM   43  C19 UNL     1      19.753  11.689  -2.728  1.00  0.00     0.009 C 
HETATM   44  C20 UNL     1      19.413  13.147  -2.512  1.00  0.00     0.012 C 
HETATM   45  C21 UNL     1      19.592  11.228  -4.137  1.00  0.00     0.012 C 
ENDBRANCH  16  43
TORSDOF 9
ENDMDL
MODEL 2
REMARK VINA RESULT: -7.897849719      2.331      6.038
REMARK  9 active torsions:
REMARK  status: ('A' for Active; 'I' for Inactive)
REMARK    1  A    between atoms: C2_2  and  C3_4 
REMARK    2  A    between atoms: C3_4  and  C4_5 
REMARK    3  A    between atoms: C4_5  and  C5_6 
REMARK    4  A    between atoms: C7_11  and  C8_12 
REMARK    5  A    between atoms: C8_12  and  C9_13 
REMARK    6  A    between atoms: C13_25  and  C14_26 
REMARK    7  A    between atoms: C18_33  and  C19_34 
REMARK    8  A    between atoms: C22_39  and  O5_40 
REMARK    9  A    between atoms: C23_42  and  C24_43 
ROOT
HETATM    1  C5  UNL     1      19.238   7.818  -0.677  1.00  0.00     0.026 C 
HETATM    2  N1  UNL     1      18.152   7.525  -1.538  1.00  0.00    -0.328 N 
ATOM      3  H1  UNL     1      18.418   7.032  -2.390  1.00  0.00     0.168 HD
HETATM    4  C6  UNL     1      16.770   7.793  -1.434  1.00  0.00     0.245 C 
HETATM    5  O2  UNL     1      16.001   7.461  -2.420  1.00  0.00    -0.271 OA
HETATM    6  C7  UNL     1      15.985   8.409  -0.356  1.00  0.00     0.182 C 
HETATM    7  N4  UNL     1      15.051   9.430  -0.751  1.00  0.00    -0.346 N 
ATOM      8  H4  UNL     1      14.449   9.757   0.004  1.00  0.00     0.163 HD
HETATM    9  C12 UNL     1      14.819  10.054  -1.977  1.00  0.00     0.241 C 
HETATM   10  O3  UNL     1      13.744   9.714  -2.597  1.00  0.00    -0.271 OA
HETATM   11  C13 UNL     1      15.614  11.068  -2.704  1.00  0.00     0.180 C 
HETATM   12  N5  UNL     1      16.171  10.544  -3.935  1.00  0.00    -0.346 N 
ATOM     13  H5  UNL     1      15.510  10.063  -4.546  1.00  0.00     0.163 HD
HETATM   14  C17 UNL     1      17.483  10.605  -4.401  1.00  0.00     0.241 C 
HETATM   15  O4  UNL     1      17.591  10.902  -5.653  1.00  0.00    -0.271 OA
HETATM   16  C18 UNL     1      18.761  10.385  -3.689  1.00  0.00     0.179 C 
HETATM   17  N6  UNL     1      18.854  10.908  -2.371  1.00  0.00    -0.357 N 
ATOM     18  H6  UNL     1      18.740  11.922  -2.333  1.00  0.00     0.162 HD
HETATM   19  C22 UNL     1      19.067  10.333  -1.118  1.00  0.00     0.145 C 
HETATM   20  C23 UNL     1      19.829   9.185  -0.656  1.00  0.00     0.019 C 
ENDROOT
BRANCH   6  21
HETATM   21  C8  UNL     1      15.329   7.248   0.389  1.00  0.00     0.095 C 
BRANCH  21  22
HETATM   22  C9  UNL     1      14.863   7.522   1.729  1.00  0.00     0.046 A 
HETATM   23  N2  UNL     1      13.688   7.085   2.281  1.00  0.00    -0.353 N 
HETATM   24  C10 UNL     1      13.589   7.480   3.545  1.00  0.00     0.181 A 
ATOM     25  H2  UNL     1      12.986   6.532   1.789  1.00  0.00     0.166 HD
HETATM   26  N3  UNL     1      14.683   8.172   3.834  1.00  0.00    -0.345 N 
HETATM   27  C11 UNL     1      15.481   8.212   2.733  1.00  0.00     0.103 A 
ATOM     28  H3  UNL     1      14.892   8.603   4.734  1.00  0.00     0.167 HD
HETATM   29 BR1  UNL     1      17.127   9.172   2.728  1.00  0.00    -0.029 Br
ENDBRANCH  21  22
ENDBRANCH   6  21
BRANCH   1  30
HETATM   30  C4  UNL     1      19.364   7.039   0.605  1.00  0.00     0.088 C 
BRANCH  30  31
HETATM   31  C3  UNL     1      20.330   5.960   0.727  1.00  0.00     0.029 C 
BRANCH  31  32
HETATM   32  C2  UNL     1      20.573   4.924  -0.236  1.00  0.00     0.142 C 
HETATM   33  C1  UNL     1      22.013   4.416  -0.322  1.00  0.00     0.095 C 
HETATM   34  O1  UNL     1      19.809   4.409  -0.975  1.00  0.00    -0.294 OA
ENDBRANCH  31  32
ENDBRANCH  30  31
ENDBRANCH   1  30
BRANCH  11  35
HETATM   35  C14 UNL     1      14.665  12.240  -3.046  1.00  0.00     0.009 C 
HETATM   36  C15 UNL     1      15.128  13.453  -2.265  1.00  0.00     0.012 C 
HETATM   37  C16 UNL     1      14.647  12.615  -4.478  1.00  0.00     0.012 C 
ENDBRANCH  11  35
BRANCH  20  38
HETATM   38  C24 UNL     1      21.315   9.239  -0.959  1.00  0.00     0.017 C 
HETATM   39  C25 UNL     1      21.845   8.287  -1.941  1.00  0.00     0.015 C 
HETATM   40  C26 UNL     1      22.210   9.271   0.251  1.00  0.00     0.015 C 
ENDBRANCH  20  38
BRANCH  19  41
HETATM   41  O5  UNL     1      18.420  11.018  -0.192  1.00  0.00    -0.346 OA
ATOM     42  H5  UNL     1      18.803  10.852   0.661  1.00  0.00     0.219 HD
ENDBRANCH  19  41
BRANCH  16  43
HETATM   43  C19 UNL     1      19.873  11.153  -4.469  1.00  0.00     0.009 C 
HETATM   44  C20 UNL     1      20.850  10.186  -5.101  1.00  0.00     0.012 C 
HETATM   45  C21 UNL     1      20.513  12.195  -3.616  1.00  0.00     0.012 C 
ENDBRANCH  16  43
TORSDOF 9
ENDMDL
MODEL 3
REMARK VINA RESULT: -7.546688302      2.571      5.349
REMARK  9 active torsions:
REMARK  status: ('A' for Active; 'I' for Inactive)
REMARK    1  A    between atoms: C2_2  and  C3_4 
REMARK    2  A    between atoms: C3_4  and  C4_5 
REMARK    3  A    between atoms: C4_5  and  C5_6 
REMARK    4  A    between atoms: C7_11  and  C8_12 
REMARK    5  A    between atoms: C8_12  and  C9_13 
REMARK    6  A    between atoms: C13_25  and  C14_26 
REMARK    7  A    between atoms: C18_33  and  C19_34 
REMARK    8  A    between atoms: C22_39  and  O5_40 
REMARK    9  A    between atoms: C23_42  and  C24_43 
ROOT
HETATM    1  C5  UNL     1      18.678   8.168  -0.592  1.00  0.00     0.026 C 
HETATM    2  N1  UNL     1      17.818   7.696  -1.614  1.00  0.00    -0.328 N 
ATOM      3  H1  UNL     1      18.290   7.154  -2.337  1.00  0.00     0.168 HD
HETATM    4  C6  UNL     1      16.428   7.840  -1.815  1.00  0.00     0.245 C 
HETATM    5  O2  UNL     1      15.907   7.348  -2.891  1.00  0.00    -0.271 OA
HETATM    6  C7  UNL     1      15.395   8.475  -0.988  1.00  0.00     0.182 C 
HETATM    7  N4  UNL     1      14.490   9.363  -1.668  1.00  0.00    -0.346 N 
ATOM      8  H4  UNL     1      13.722   9.700  -1.088  1.00  0.00     0.163 HD
HETATM    9  C12 UNL     1      14.470   9.847  -2.977  1.00  0.00     0.241 C 
HETATM   10  O3  UNL     1      13.574   9.351  -3.757  1.00  0.00    -0.271 OA
HETATM   11  C13 UNL     1      15.321  10.861  -3.639  1.00  0.00     0.180 C 
HETATM   12  N5  UNL     1      16.157  10.281  -4.670  1.00  0.00    -0.346 N 
ATOM     13  H5  UNL     1      15.674   9.686  -5.343  1.00  0.00     0.163 HD
HETATM   14  C17 UNL     1      17.529  10.423  -4.871  1.00  0.00     0.241 C 
HETATM   15  O4  UNL     1      17.871  10.613  -6.102  1.00  0.00    -0.271 OA
HETATM   16  C18 UNL     1      18.645  10.391  -3.901  1.00  0.00     0.179 C 
HETATM   17  N6  UNL     1      18.424  11.040  -2.655  1.00  0.00    -0.357 N 
ATOM     18  H6  UNL     1      18.231  12.037  -2.751  1.00  0.00     0.162 HD
HETATM   19  C22 UNL     1      18.416  10.605  -1.330  1.00  0.00     0.145 C 
HETATM   20  C23 UNL     1      19.150   9.581  -0.604  1.00  0.00     0.019 C 
ENDROOT
BRANCH   6  21
HETATM   21  C8  UNL     1      14.687   7.331  -0.265  1.00  0.00     0.095 C 
BRANCH  21  22
HETATM   22  C9  UNL     1      14.809   7.303   1.175  1.00  0.00     0.046 A 
HETATM   23  N2  UNL     1      15.058   6.198   1.943  1.00  0.00    -0.353 N 
HETATM   24  C10 UNL     1      15.153   6.530   3.226  1.00  0.00     0.181 A 
ATOM     25  H2  UNL     1      15.159   5.249   1.581  1.00  0.00     0.166 HD
HETATM   26  N3  UNL     1      14.968   7.841   3.312  1.00  0.00    -0.345 N 
HETATM   27  C11 UNL     1      14.754   8.339   2.065  1.00  0.00     0.103 A 
ATOM     28  H3  UNL     1      14.984   8.387   4.174  1.00  0.00     0.167 HD
HETATM   29 BR1  UNL     1      14.384  10.186   1.776  1.00  0.00    -0.029 Br
ENDBRANCH  21  22
ENDBRANCH   6  21
BRANCH   1  30
HETATM   30  C4  UNL     1      18.594   7.526   0.767  1.00  0.00     0.088 C 
BRANCH  30  31
HETATM   31  C3  UNL     1      18.290   8.321   1.946  1.00  0.00     0.029 C 
BRANCH  31  32
HETATM   32  C2  UNL     1      18.695   8.034   3.292  1.00  0.00     0.142 C 
HETATM   33  C1  UNL     1      20.163   7.648   3.481  1.00  0.00     0.095 C 
HETATM   34  O1  UNL     1      18.046   8.055   4.279  1.00  0.00    -0.294 OA
ENDBRANCH  31  32
ENDBRANCH  30  31
ENDBRANCH   1  30
BRANCH  11  35
HETATM   35  C14 UNL     1      14.379  11.901  -4.287  1.00  0.00     0.009 C 
HETATM   36  C15 UNL     1      14.558  13.211  -3.548  1.00  0.00     0.012 C 
HETATM   37  C16 UNL     1      14.647  12.160  -5.720  1.00  0.00     0.012 C 
ENDBRANCH  11  35
BRANCH  20  38
HETATM   38  C24 UNL     1      20.657   9.748  -0.611  1.00  0.00     0.017 C 
HETATM   39  C25 UNL     1      21.452   8.728  -1.303  1.00  0.00     0.015 C 
HETATM   40  C26 UNL     1      21.271  10.043   0.732  1.00  0.00     0.015 C 
ENDBRANCH  20  38
BRANCH  19  41
HETATM   41  O5  UNL     1      17.543  11.308  -0.631  1.00  0.00    -0.346 OA
ATOM     42  H5  UNL     1      17.876  11.458   0.246  1.00  0.00     0.219 HD
ENDBRANCH  19  41
BRANCH  16  43
HETATM   43  C19 UNL     1      19.834  11.187  -4.524  1.00  0.00     0.009 C 
HETATM   44  C20 UNL     1      20.892  10.243  -5.052  1.00  0.00     0.012 C 
HETATM   45  C21 UNL     1      20.354  12.216  -3.578  1.00  0.00     0.012 C 
ENDBRANCH  16  43
TORSDOF 9
ENDMDL
MODEL 4
REMARK VINA RESULT: -7.463867393      1.475      1.813
REMARK  9 active torsions:
REMARK  status: ('A' for Active; 'I' for Inactive)
REMARK    1  A    between atoms: C2_2  and  C3_4 
REMARK    2  A    between atoms: C3_4  and  C4_5 
REMARK    3  A    between atoms: C4_5  and  C5_6 
REMARK    4  A    between atoms: C7_11  and  C8_12 
REMARK    5  A    between atoms: C8_12  and  C9_13 
REMARK    6  A    between atoms: C13_25  and  C14_26 
REMARK    7  A    between atoms: C18_33  and  C19_34 
REMARK    8  A    between atoms: C22_39  and  O5_40 
REMARK    9  A    between atoms: C23_42  and  C24_43 
ROOT
HETATM    1  C5  UNL     1      14.729  11.308   0.270  1.00  0.00     0.026 C 
HETATM    2  N1  UNL     1      15.753  10.918   1.167  1.00  0.00    -0.328 N 
ATOM      3  H1  UNL     1      16.326  11.691   1.506  1.00  0.00     0.168 HD
HETATM    4  C6  UNL     1      16.127   9.656   1.677  1.00  0.00     0.245 C 
HETATM    5  O2  UNL     1      17.164   9.584   2.446  1.00  0.00    -0.271 OA
HETATM    6  C7  UNL     1      15.530   8.327   1.495  1.00  0.00     0.182 C 
HETATM    7  N4  UNL     1      16.437   7.259   1.170  1.00  0.00    -0.346 N 
ATOM      8  H4  UNL     1      16.005   6.335   1.159  1.00  0.00     0.163 HD
HETATM    9  C12 UNL     1      17.799   7.255   0.868  1.00  0.00     0.241 C 
HETATM   10  O3  UNL     1      18.586   6.802   1.781  1.00  0.00    -0.271 OA
HETATM   11  C13 UNL     1      18.514   7.689  -0.352  1.00  0.00     0.180 C 
HETATM   12  N5  UNL     1      19.342   8.853  -0.113  1.00  0.00    -0.346 N 
ATOM     13  H5  UNL     1      19.963   8.792   0.693  1.00  0.00     0.163 HD
HETATM   14  C17 UNL     1      19.410  10.046  -0.833  1.00  0.00     0.241 C 
HETATM   15  O4  UNL     1      20.610  10.475  -1.041  1.00  0.00    -0.271 OA
HETATM   16  C18 UNL     1      18.329  10.887  -1.391  1.00  0.00     0.179 C 
HETATM   17  N6  UNL     1      17.233  10.204  -1.985  1.00  0.00    -0.357 N 
ATOM     18  H6  UNL     1      17.505   9.623  -2.778  1.00  0.00     0.162 HD
HETATM   19  C22 UNL     1      15.865  10.160  -1.716  1.00  0.00     0.145 C 
HETATM   20  C23 UNL     1      14.911  11.126  -1.197  1.00  0.00     0.019 C 
ENDROOT
BRANCH   6  21
HETATM   21  C8  UNL     1      14.719   8.065   2.763  1.00  0.00     0.095 C 
BRANCH  21  22
HETATM   22  C9  UNL     1      15.393   8.295   4.020  1.00  0.00     0.046 A 
HETATM   23  N2  UNL     1      15.344   9.442   4.766  1.00  0.00    -0.353 N 
HETATM   24  C10 UNL     1      16.042   9.303   5.887  1.00  0.00     0.181 A 
ATOM     25  H2  UNL     1      14.840  10.288   4.498  1.00  0.00     0.166 HD
HETATM   26  N3  UNL     1      16.551   8.078   5.890  1.00  0.00    -0.345 N 
HETATM   27  C11 UNL     1      16.167   7.439   4.753  1.00  0.00     0.103 A 
ATOM     28  H3  UNL     1      17.135   7.680   6.625  1.00  0.00     0.167 HD
HETATM   29 BR1  UNL     1      16.751   5.669   4.355  1.00  0.00    -0.029 Br
ENDBRANCH  21  22
ENDBRANCH   6  21
BRANCH   1  30
HETATM   30  C4  UNL     1      13.304  11.279   0.754  1.00  0.00     0.088 C 
BRANCH  30  31
HETATM   31  C3  UNL     1      12.950  11.827   2.053  1.00  0.00     0.029 C 
BRANCH  31  32
HETATM   32  C2  UNL     1      12.429  11.095   3.171  1.00  0.00     0.142 C 
HETATM   33  C1  UNL     1      10.988  10.602   3.035  1.00  0.00     0.095 C 
HETATM   34  O1  UNL     1      12.964  10.821   4.189  1.00  0.00    -0.294 OA
ENDBRANCH  31  32
ENDBRANCH  30  31
ENDBRANCH   1  30
BRANCH  11  35
HETATM   35  C14 UNL     1      19.417   6.517  -0.800  1.00  0.00     0.009 C 
HETATM   36  C15 UNL     1      18.640   5.690  -1.802  1.00  0.00     0.012 C 
HETATM   37  C16 UNL     1      20.680   6.933  -1.451  1.00  0.00     0.012 C 
ENDBRANCH  11  35
BRANCH  20  38
HETATM   38  C24 UNL     1      14.777  12.396  -2.017  1.00  0.00     0.017 C 
HETATM   39  C25 UNL     1      14.946  12.289  -3.471  1.00  0.00     0.015 C 
HETATM   40  C26 UNL     1      15.561  13.573  -1.500  1.00  0.00     0.015 C 
ENDBRANCH  20  38
BRANCH  19  41
HETATM   41  O5  UNL     1      15.386   8.966  -2.017  1.00  0.00    -0.346 OA
ATOM     42  H5  UNL     1      14.526   8.855  -1.628  1.00  0.00     0.219 HD
ENDBRANCH  19  41
BRANCH  16  43
HETATM   43  C19 UNL     1      18.934  11.709  -2.572  1.00  0.00     0.009 C 
HETATM   44  C20 UNL     1      18.794  13.194  -2.318  1.00  0.00     0.012 C 
HETATM   45  C21 UNL     1      18.383  11.261  -3.883  1.00  0.00     0.012 C 
ENDBRANCH  16  43
TORSDOF 9
ENDMDL
MODEL 5
REMARK VINA RESULT: -7.370170981      2.800      6.226
REMARK  9 active torsions:
REMARK  status: ('A' for Active; 'I' for Inactive)
REMARK    1  A    between atoms: C2_2  and  C3_4 
REMARK    2  A    between atoms: C3_4  and  C4_5 
REMARK    3  A    between atoms: C4_5  and  C5_6 
REMARK    4  A    between atoms: C7_11  and  C8_12 
REMARK    5  A    between atoms: C8_12  and  C9_13 
REMARK    6  A    between atoms: C13_25  and  C14_26 
REMARK    7  A    between atoms: C18_33  and  C19_34 
REMARK    8  A    between atoms: C22_39  and  O5_40 
REMARK    9  A    between atoms: C23_42  and  C24_43 
ROOT
HETATM    1  C5  UNL     1      14.197  10.984  -0.873  1.00  0.00     0.026 C 
HETATM    2  N1  UNL     1      14.320   9.589  -1.088  1.00  0.00    -0.328 N 
ATOM      3  H1  UNL     1      13.435   9.084  -1.054  1.00  0.00     0.168 HD
HETATM    4  C6  UNL     1      15.443   8.771  -1.340  1.00  0.00     0.245 C 
HETATM    5  O2  UNL     1      15.266   7.494  -1.434  1.00  0.00    -0.271 OA
HETATM    6  C7  UNL     1      16.859   9.109  -1.530  1.00  0.00     0.182 C 
HETATM    7  N4  UNL     1      17.808   8.322  -0.788  1.00  0.00    -0.346 N 
ATOM      8  H4  UNL     1      18.781   8.510  -1.026  1.00  0.00     0.163 HD
HETATM    9  C12 UNL     1      17.640   7.348   0.197  1.00  0.00     0.241 C 
HETATM   10  O3  UNL     1      17.858   6.130  -0.159  1.00  0.00    -0.271 OA
HETATM   11  C13 UNL     1      17.247   7.476   1.618  1.00  0.00     0.180 C 
HETATM   12  N5  UNL     1      15.951   6.885   1.880  1.00  0.00    -0.346 N 
ATOM     13  H5  UNL     1      15.822   5.936   1.531  1.00  0.00     0.163 HD
HETATM   14  C17 UNL     1      14.854   7.433   2.545  1.00  0.00     0.241 C 
HETATM   15  O4  UNL     1      14.274   6.627   3.370  1.00  0.00    -0.271 OA
HETATM   16  C18 UNL     1      14.257   8.783   2.451  1.00  0.00     0.179 C 
HETATM   17  N6  UNL     1      15.163   9.874   2.353  1.00  0.00    -0.357 N 
ATOM     18  H6  UNL     1      15.785   9.953   3.158  1.00  0.00     0.162 HD
HETATM   19  C22 UNL     1      15.384  10.861   1.392  1.00  0.00     0.145 C 
HETATM   20  C23 UNL     1      14.520  11.566   0.459  1.00  0.00     0.019 C 
ENDROOT
BRANCH   6  21
HETATM   21  C8  UNL     1      17.091   9.068  -3.039  1.00  0.00     0.095 C 
BRANCH  21  22
HETATM   22  C9  UNL     1      18.194   9.853  -3.544  1.00  0.00     0.046 A 
HETATM   23  N2  UNL     1      19.423   9.993  -2.956  1.00  0.00    -0.353 N 
HETATM   24  C10 UNL     1      20.218  10.748  -3.705  1.00  0.00     0.181 A 
ATOM     25  H2  UNL     1      19.690   9.574  -2.065  1.00  0.00     0.166 HD
HETATM   26  N3  UNL     1      19.529  11.108  -4.780  1.00  0.00    -0.345 N 
HETATM   27  C11 UNL     1      18.282  10.571  -4.704  1.00  0.00     0.103 A 
ATOM     28  H3  UNL     1      19.877  11.693  -5.540  1.00  0.00     0.167 HD
HETATM   29 BR1  UNL     1      16.964  10.913  -6.038  1.00  0.00    -0.029 Br
ENDBRANCH  21  22
ENDBRANCH   6  21
BRANCH   1  30
HETATM   30  C4  UNL     1      14.386  11.908  -2.046  1.00  0.00     0.088 C 
BRANCH  30  31
HETATM   31  C3  UNL     1      15.717  12.338  -2.446  1.00  0.00     0.029 C 
BRANCH  31  32
HETATM   32  C2  UNL     1      16.536  13.304  -1.774  1.00  0.00     0.142 C 
HETATM   33  C1  UNL     1      18.042  13.037  -1.798  1.00  0.00     0.095 C 
HETATM   34  O1  UNL     1      16.204  14.282  -1.200  1.00  0.00    -0.294 OA
ENDBRANCH  31  32
ENDBRANCH  30  31
ENDBRANCH   1  30
BRANCH  11  35
HETATM   35  C14 UNL     1      18.312   6.736   2.460  1.00  0.00     0.009 C 
HETATM   36  C15 UNL     1      19.549   7.609   2.511  1.00  0.00     0.012 C 
HETATM   37  C16 UNL     1      17.905   6.462   3.856  1.00  0.00     0.012 C 
ENDBRANCH  11  35
BRANCH  20  38
HETATM   38  C24 UNL     1      13.390  12.349   1.101  1.00  0.00     0.017 C 
HETATM   39  C25 UNL     1      12.023  11.850   0.913  1.00  0.00     0.015 C 
HETATM   40  C26 UNL     1      13.425  13.834   0.857  1.00  0.00     0.015 C 
ENDBRANCH  20  38
BRANCH  19  41
HETATM   41  O5  UNL     1      16.663  11.189   1.368  1.00  0.00    -0.346 OA
ATOM     42  H5  UNL     1      16.814  11.858   0.712  1.00  0.00     0.219 HD
ENDBRANCH  19  41
BRANCH  16  43
HETATM   43  C19 UNL     1      13.496   9.056   3.786  1.00  0.00     0.009 C 
HETATM   44  C20 UNL     1      12.226   9.837   3.528  1.00  0.00     0.012 C 
HETATM   45  C21 UNL     1      14.393   9.672   4.806  1.00  0.00     0.012 C 
ENDBRANCH  16  43
TORSDOF 9
ENDMDL
