MODEL 1
REMARK VINA RESULT: -7.372994104      0.000      0.000
REMARK  7 active torsions:
REMARK  status: ('A' for Active; 'I' for Inactive)
REMARK    1  A    between atoms: N1_1  and  N2_4 
REMARK    2  A    between atoms: N2_4  and  C1_5 
REMARK    3  A    between atoms: C4_8  and  C5_9 
REMARK    4  A    between atoms: C8_16  and  C9_17 
REMARK    5  A    between atoms: C9_17  and  C10_18 
REMARK    6  A    between atoms: C10_18  and  C11_19 
REMARK    7  A    between atoms: C11_19  and  N5_20 
ROOT
HETATM    1  C1  UNL     1      16.356  10.025  23.567  1.00  0.00     0.137 C 
HETATM    2  C2  UNL     1      15.104   9.580  23.176  1.00  0.00     0.048 C 
HETATM    3  C3  UNL     1      14.324   8.656  23.865  1.00  0.00     0.018 C 
HETATM    4  C4  UNL     1      14.679   7.745  24.844  1.00  0.00     0.005 C 
HETATM    5  C6  UNL     1      15.977   7.437  25.189  1.00  0.00     0.015 C 
HETATM    6  C7  UNL     1      17.074   8.301  25.165  1.00  0.00     0.011 C 
HETATM    7  C8  UNL     1      17.284   9.459  24.423  1.00  0.00    -0.015 C 
ENDROOT
BRANCH   7   8
HETATM    8  C9  UNL     1      18.611  10.114  24.578  1.00  0.00     0.044 C 
BRANCH   8   9
HETATM    9  C10 UNL     1      19.154   9.929  25.974  1.00  0.00     0.032 C 
BRANCH   9  10
HETATM   10  C11 UNL     1      20.324  10.876  26.133  1.00  0.00     0.230 C 
BRANCH  10  11
HETATM   11  N5  UNL     1      20.837  10.772  27.477  1.00  0.00    -0.079 N 
ATOM     12  H53 UNL     1      21.161  11.669  27.839  1.00  0.00     0.274 HD
ATOM     13  H52 UNL     1      20.101  10.599  28.161  1.00  0.00     0.274 HD
ATOM     14  H51 UNL     1      21.565  10.058  27.503  1.00  0.00     0.274 HD
ENDBRANCH  10  11
ENDBRANCH   9  10
ENDBRANCH   8   9
ENDBRANCH   7   8
BRANCH   1  15
HETATM   15  N2  UNL     1      16.705  11.124  23.062  1.00  0.00    -0.333 NA
BRANCH  15  16
HETATM   16  N1  UNL     1      17.100  12.009  22.302  1.00  0.00    -0.280 N 
ATOM     17  H12 UNL     1      18.060  11.962  22.642  1.00  0.00     0.191 HD
ATOM     18  H11 UNL     1      17.163  12.741  21.594  1.00  0.00     0.191 HD
ENDBRANCH  15  16
ENDBRANCH   1  15
BRANCH   4  19
HETATM   19  C5  UNL     1      13.594   7.087  25.534  1.00  0.00     0.120 C 
HETATM   20  N3  UNL     1      12.411   6.985  25.080  1.00  0.00    -0.387 N 
ATOM     21  H32 UNL     1      12.231   7.398  24.165  1.00  0.00     0.157 HD
ATOM     22  H31 UNL     1      11.645   6.520  25.567  1.00  0.00     0.157 HD
HETATM   23  N4  UNL     1      13.845   6.510  26.813  1.00  0.00    -0.082 NA
ENDBRANCH   4  19
TORSDOF 7
ENDMDL
MODEL 2
REMARK VINA RESULT: -7.281262483      1.168      1.168
REMARK  7 active torsions:
REMARK  status: ('A' for Active; 'I' for Inactive)
REMARK    1  A    between atoms: N1_1  and  N2_4 
REMARK    2  A    between atoms: N2_4  and  C1_5 
REMARK    3  A    between atoms: C4_8  and  C5_9 
REMARK    4  A    between atoms: C8_16  and  C9_17 
REMARK    5  A    between atoms: C9_17  and  C10_18 
REMARK    6  A    between atoms: C10_18  and  C11_19 
REMARK    7  A    between atoms: C11_19  and  N5_20 
ROOT
HETATM    1  C1  UNL     1      16.033   9.793  23.421  1.00  0.00     0.137 C 
HETATM    2  C2  UNL     1      14.820   9.154  23.226  1.00  0.00     0.048 C 
HETATM    3  C3  UNL     1      14.255   8.216  24.085  1.00  0.00     0.018 C 
HETATM    4  C4  UNL     1      14.836   7.466  25.093  1.00  0.00     0.005 C 
HETATM    5  C6  UNL     1      16.194   7.364  25.304  1.00  0.00     0.015 C 
HETATM    6  C7  UNL     1      17.151   8.354  25.070  1.00  0.00     0.011 C 
HETATM    7  C8  UNL     1      17.118   9.444  24.206  1.00  0.00    -0.015 C 
ENDROOT
BRANCH   7   8
HETATM    8  C9  UNL     1      18.350  10.275  24.139  1.00  0.00     0.044 C 
BRANCH   8   9
HETATM    9  C10 UNL     1      19.194  10.105  25.379  1.00  0.00     0.032 C 
BRANCH   9  10
HETATM   10  C11 UNL     1      20.632  10.365  24.986  1.00  0.00     0.230 C 
BRANCH  10  11
HETATM   11  N5  UNL     1      20.929   9.642  23.773  1.00  0.00    -0.079 N 
ATOM     12  H53 UNL     1      21.002   8.637  23.930  1.00  0.00     0.274 HD
ATOM     13  H52 UNL     1      20.141   9.629  23.126  1.00  0.00     0.274 HD
ATOM     14  H51 UNL     1      21.771  10.031  23.350  1.00  0.00     0.274 HD
ENDBRANCH  10  11
ENDBRANCH   9  10
ENDBRANCH   8   9
ENDBRANCH   7   8
BRANCH   1  15
HETATM   15  N2  UNL     1      16.170  10.868  22.780  1.00  0.00    -0.333 NA
BRANCH  15  16
HETATM   16  N1  UNL     1      16.475  11.723  21.948  1.00  0.00    -0.280 N 
ATOM     17  H12 UNL     1      17.280  11.197  21.608  1.00  0.00     0.191 HD
ATOM     18  H11 UNL     1      16.507  12.558  21.363  1.00  0.00     0.191 HD
ENDBRANCH  15  16
ENDBRANCH   1  15
BRANCH   4  19
HETATM   19  C5  UNL     1      13.934   6.753  25.966  1.00  0.00     0.120 C 
HETATM   20  N3  UNL     1      12.686   6.985  26.055  1.00  0.00    -0.387 N 
ATOM     21  H32 UNL     1      12.313   7.726  25.463  1.00  0.00     0.157 HD
ATOM     22  H31 UNL     1      12.049   6.481  26.672  1.00  0.00     0.157 HD
HETATM   23  N4  UNL     1      14.457   5.717  26.793  1.00  0.00    -0.082 NA
ENDBRANCH   4  19
TORSDOF 7
ENDMDL
MODEL 3
REMARK VINA RESULT: -6.824995786      0.937      1.073
REMARK  7 active torsions:
REMARK  status: ('A' for Active; 'I' for Inactive)
REMARK    1  A    between atoms: N1_1  and  N2_4 
REMARK    2  A    between atoms: N2_4  and  C1_5 
REMARK    3  A    between atoms: C4_8  and  C5_9 
REMARK    4  A    between atoms: C8_16  and  C9_17 
REMARK    5  A    between atoms: C9_17  and  C10_18 
REMARK    6  A    between atoms: C10_18  and  C11_19 
REMARK    7  A    between atoms: C11_19  and  N5_20 
ROOT
HETATM    1  C1  UNL     1      16.937  10.873  23.229  1.00  0.00     0.137 C 
HETATM    2  C2  UNL     1      15.685  10.564  22.725  1.00  0.00     0.048 C 
HETATM    3  C3  UNL     1      14.791   9.656  23.284  1.00  0.00     0.018 C 
HETATM    4  C4  UNL     1      15.007   8.644  24.204  1.00  0.00     0.005 C 
HETATM    5  C6  UNL     1      16.251   8.205  24.602  1.00  0.00     0.015 C 
HETATM    6  C7  UNL     1      17.410   8.976  24.719  1.00  0.00     0.011 C 
HETATM    7  C8  UNL     1      17.759  10.168  24.091  1.00  0.00    -0.015 C 
ENDROOT
BRANCH   7   8
HETATM    8  C9  UNL     1      19.118  10.697  24.382  1.00  0.00     0.044 C 
BRANCH   8   9
HETATM    9  C10 UNL     1      19.210  11.226  25.793  1.00  0.00     0.032 C 
BRANCH   9  10
HETATM   10  C11 UNL     1      20.601  10.917  26.301  1.00  0.00     0.230 C 
BRANCH  10  11
HETATM   11  N5  UNL     1      20.526  10.558  27.697  1.00  0.00    -0.079 N 
ATOM     12  H53 UNL     1      19.671  10.897  28.138  1.00  0.00     0.274 HD
ATOM     13  H52 UNL     1      20.371   9.560  27.833  1.00  0.00     0.274 HD
ATOM     14  H51 UNL     1      21.365  10.889  28.173  1.00  0.00     0.274 HD
ENDBRANCH  10  11
ENDBRANCH   9  10
ENDBRANCH   8   9
ENDBRANCH   7   8
BRANCH   1  15
HETATM   15  N2  UNL     1      17.403  11.976  22.841  1.00  0.00    -0.333 NA
BRANCH  15  16
HETATM   16  N1  UNL     1      17.846  12.906  22.165  1.00  0.00    -0.280 N 
ATOM     17  H12 UNL     1      18.258  13.379  22.969  1.00  0.00     0.191 HD
ATOM     18  H11 UNL     1      18.094  13.535  21.402  1.00  0.00     0.191 HD
ENDBRANCH  15  16
ENDBRANCH   1  15
BRANCH   4  19
HETATM   19  C5  UNL     1      13.830   8.026  24.768  1.00  0.00     0.120 C 
HETATM   20  N3  UNL     1      12.643   8.238  24.364  1.00  0.00    -0.387 N 
ATOM     21  H32 UNL     1      12.531   8.890  23.587  1.00  0.00     0.157 HD
ATOM     22  H31 UNL     1      11.812   7.801  24.762  1.00  0.00     0.157 HD
HETATM   23  N4  UNL     1      13.988   7.115  25.852  1.00  0.00    -0.082 NA
ENDBRANCH   4  19
TORSDOF 7
ENDMDL
MODEL 4
REMARK VINA RESULT: -6.810248490      1.921      5.529
REMARK  7 active torsions:
REMARK  status: ('A' for Active; 'I' for Inactive)
REMARK    1  A    between atoms: N1_1  and  N2_4 
REMARK    2  A    between atoms: N2_4  and  C1_5 
REMARK    3  A    between atoms: C4_8  and  C5_9 
REMARK    4  A    between atoms: C8_16  and  C9_17 
REMARK    5  A    between atoms: C9_17  and  C10_18 
REMARK    6  A    between atoms: C10_18  and  C11_19 
REMARK    7  A    between atoms: C11_19  and  N5_20 
ROOT
HETATM    1  C1  UNL     1      15.547   9.032  23.658  1.00  0.00     0.137 C 
HETATM    2  C2  UNL     1      16.026  10.290  23.334  1.00  0.00     0.048 C 
HETATM    3  C3  UNL     1      17.321  10.745  23.562  1.00  0.00     0.018 C 
HETATM    4  C4  UNL     1      18.301  10.256  24.408  1.00  0.00     0.005 C 
HETATM    5  C6  UNL     1      18.089   9.296  25.374  1.00  0.00     0.015 C 
HETATM    6  C7  UNL     1      17.183   8.235  25.311  1.00  0.00     0.011 C 
HETATM    7  C8  UNL     1      16.014   8.100  24.568  1.00  0.00    -0.015 C 
ENDROOT
BRANCH   7   8
HETATM    8  C9  UNL     1      15.228   6.856  24.791  1.00  0.00     0.044 C 
BRANCH   8   9
HETATM    9  C10 UNL     1      14.932   6.649  26.256  1.00  0.00     0.032 C 
BRANCH   9  10
HETATM   10  C11 UNL     1      13.429   6.695  26.424  1.00  0.00     0.230 C 
BRANCH  10  11
HETATM   11  N5  UNL     1      12.809   6.753  25.123  1.00  0.00    -0.079 N 
ATOM     12  H53 UNL     1      12.058   7.442  25.081  1.00  0.00     0.274 HD
ATOM     13  H52 UNL     1      13.421   7.165  24.419  1.00  0.00     0.274 HD
ATOM     14  H51 UNL     1      12.493   5.818  24.862  1.00  0.00     0.274 HD
ENDBRANCH  10  11
ENDBRANCH   9  10
ENDBRANCH   8   9
ENDBRANCH   7   8
BRANCH   1  15
HETATM   15  N2  UNL     1      14.521   8.678  23.021  1.00  0.00    -0.333 NA
BRANCH  15  16
HETATM   16  N1  UNL     1      13.741   8.265  22.161  1.00  0.00    -0.280 N 
ATOM     17  H12 UNL     1      13.489   7.435  22.698  1.00  0.00     0.191 HD
ATOM     18  H11 UNL     1      13.176   8.151  21.320  1.00  0.00     0.191 HD
ENDBRANCH  15  16
ENDBRANCH   1  15
BRANCH   4  19
HETATM   19  C5  UNL     1      19.625  10.807  24.245  1.00  0.00     0.120 C 
HETATM   20  N3  UNL     1      20.600  10.189  23.710  1.00  0.00    -0.387 N 
ATOM     21  H32 UNL     1      20.417   9.241  23.378  1.00  0.00     0.157 HD
ATOM     22  H31 UNL     1      21.535  10.577  23.595  1.00  0.00     0.157 HD
HETATM   23  N4  UNL     1      19.880  12.130  24.709  1.00  0.00    -0.082 NA
ENDBRANCH   4  19
TORSDOF 7
ENDMDL
MODEL 5
REMARK VINA RESULT: -6.785439487      1.574      5.608
REMARK  7 active torsions:
REMARK  status: ('A' for Active; 'I' for Inactive)
REMARK    1  A    between atoms: N1_1  and  N2_4 
REMARK    2  A    between atoms: N2_4  and  C1_5 
REMARK    3  A    between atoms: C4_8  and  C5_9 
REMARK    4  A    between atoms: C8_16  and  C9_17 
REMARK    5  A    between atoms: C9_17  and  C10_18 
REMARK    6  A    between atoms: C10_18  and  C11_19 
REMARK    7  A    between atoms: C11_19  and  N5_20 
ROOT
HETATM    1  C1  UNL     1      16.445  10.283  23.357  1.00  0.00     0.137 C 
HETATM    2  C2  UNL     1      17.386  11.297  23.281  1.00  0.00     0.048 C 
HETATM    3  C3  UNL     1      18.704  11.210  23.718  1.00  0.00     0.018 C 
HETATM    4  C4  UNL     1      19.298  10.310  24.585  1.00  0.00     0.005 C 
HETATM    5  C6  UNL     1      18.607   9.408  25.366  1.00  0.00     0.015 C 
HETATM    6  C7  UNL     1      17.405   8.774  25.044  1.00  0.00     0.011 C 
HETATM    7  C8  UNL     1      16.398   9.159  24.163  1.00  0.00    -0.015 C 
ENDROOT
BRANCH   7   8
HETATM    8  C9  UNL     1      15.197   8.285  24.107  1.00  0.00     0.044 C 
BRANCH   8   9
HETATM    9  C10 UNL     1      15.034   7.495  25.383  1.00  0.00     0.032 C 
BRANCH   9  10
HETATM   10  C11 UNL     1      14.087   6.351  25.088  1.00  0.00     0.230 C 
BRANCH  10  11
HETATM   11  N5  UNL     1      12.736   6.853  25.050  1.00  0.00    -0.079 N 
ATOM     12  H53 UNL     1      12.141   6.318  24.417  1.00  0.00     0.274 HD
ATOM     13  H52 UNL     1      12.228   6.667  25.915  1.00  0.00     0.274 HD
ATOM     14  H51 UNL     1      12.755   7.846  24.818  1.00  0.00     0.274 HD
ENDBRANCH  10  11
ENDBRANCH   9  10
ENDBRANCH   8   9
ENDBRANCH   7   8
BRANCH   1  15
HETATM   15  N2  UNL     1      15.476  10.403  22.563  1.00  0.00    -0.333 NA
BRANCH  15  16
HETATM   16  N1  UNL     1      14.770  10.507  21.559  1.00  0.00    -0.280 N 
ATOM     17  H12 UNL     1      14.913   9.536  21.280  1.00  0.00     0.191 HD
ATOM     18  H11 UNL     1      14.159  10.851  20.818  1.00  0.00     0.191 HD
ENDBRANCH  15  16
ENDBRANCH   1  15
BRANCH   4  19
HETATM   19  C5  UNL     1      20.740  10.339  24.656  1.00  0.00     0.120 C 
HETATM   20  N3  UNL     1      21.512   9.786  23.809  1.00  0.00    -0.387 N 
ATOM     21  H32 UNL     1      21.067   9.294  23.033  1.00  0.00     0.157 HD
ATOM     22  H31 UNL     1      22.530   9.806  23.858  1.00  0.00     0.157 HD
HETATM   23  N4  UNL     1      21.360  11.026  25.739  1.00  0.00    -0.082 NA
ENDBRANCH   4  19
TORSDOF 7
ENDMDL
