MODEL 1
REMARK VINA RESULT: -7.608987470      0.000      0.000
REMARK  6 active torsions:
REMARK  status: ('A' for Active; 'I' for Inactive)
REMARK    1  A    between atoms: C2_2  and  C3_3 
REMARK    2  A    between atoms: C3_3  and  N1_5 
REMARK    3  A    between atoms: N1_5  and  C5_7 
REMARK    4  A    between atoms: C6_10  and  S1_11 
REMARK    5  A    between atoms: S1_11  and  C7_12 
REMARK    6  A    between atoms: C7_12  and  C8_13 
ROOT
HETATM    1  C5  UNL     1      82.726   3.618  59.362  1.00  0.00     0.163 A 
HETATM    2  N2  UNL     1      83.614   2.898  60.053  1.00  0.00    -0.316 N 
ATOM      3  H2  UNL     1      83.391   2.533  60.979  1.00  0.00     0.170 HD
HETATM    4  C6  UNL     1      84.776   2.680  59.505  1.00  0.00     0.152 A 
HETATM    5  N3  UNL     1      85.009   3.181  58.296  1.00  0.00    -0.304 N 
ATOM      6  H3  UNL     1      85.855   3.103  57.731  1.00  0.00     0.176 HD
HETATM    7  S2  UNL     1      83.575   3.973  57.923  1.00  0.00     0.024 SA
ENDROOT
BRANCH   4   8
HETATM    8  S1  UNL     1      86.093   1.723  60.323  1.00  0.00    -0.089 SA
BRANCH   8   9
HETATM    9  C7  UNL     1      87.449   2.881  60.658  1.00  0.00     0.121 C 
BRANCH   9  10
HETATM   10  C8  UNL     1      88.070   2.475  61.952  1.00  0.00    -0.047 A 
HETATM   11  C9  UNL     1      87.296   2.060  63.025  1.00  0.00     0.011 A 
HETATM   12  C10 UNL     1      87.875   1.685  64.217  1.00  0.00     0.044 A 
HETATM   13  C11 UNL     1      89.258   1.716  64.374  1.00  0.00     0.133 A 
HETATM   14  F1  UNL     1      89.755   1.332  65.579  1.00  0.00    -0.205 F 
HETATM   15  C12 UNL     1      90.046   2.126  63.323  1.00  0.00     0.050 A 
HETATM   16 BR1  UNL     1      91.929   2.154  63.574  1.00  0.00    -0.048 Br
HETATM   17  C13 UNL     1      89.442   2.494  62.144  1.00  0.00     0.030 A 
ENDBRANCH   9  10
ENDBRANCH   8   9
ENDBRANCH   4   8
BRANCH   1  18
HETATM   18  N1  UNL     1      81.509   3.941  59.740  1.00  0.00    -0.365 N 
ATOM     19  H1  UNL     1      80.838   3.203  59.948  1.00  0.00     0.162 HD
BRANCH  18  20
HETATM   20  C3  UNL     1      81.110   5.307  59.865  1.00  0.00     0.079 C 
HETATM   21  C4  UNL     1      80.263   5.755  58.708  1.00  0.00     0.032 C 
BRANCH  20  22
HETATM   22  C2  UNL     1      80.348   5.451  61.173  1.00  0.00     0.020 C 
HETATM   23  C1  UNL     1      78.852   5.279  60.933  1.00  0.00     0.007 C 
ENDBRANCH  20  22
ENDBRANCH  18  20
ENDBRANCH   1  18
TORSDOF 6
ENDMDL
MODEL 2
REMARK VINA RESULT: -7.588753979      1.114      1.407
REMARK  6 active torsions:
REMARK  status: ('A' for Active; 'I' for Inactive)
REMARK    1  A    between atoms: C2_2  and  C3_3 
REMARK    2  A    between atoms: C3_3  and  N1_5 
REMARK    3  A    between atoms: N1_5  and  C5_7 
REMARK    4  A    between atoms: C6_10  and  S1_11 
REMARK    5  A    between atoms: S1_11  and  C7_12 
REMARK    6  A    between atoms: C7_12  and  C8_13 
ROOT
HETATM    1  C5  UNL     1      82.696   3.358  60.354  1.00  0.00     0.163 A 
HETATM    2  N2  UNL     1      83.861   2.796  60.685  1.00  0.00    -0.316 N 
ATOM      3  H2  UNL     1      84.170   2.754  61.657  1.00  0.00     0.170 HD
HETATM    4  C6  UNL     1      84.592   2.302  59.725  1.00  0.00     0.152 A 
HETATM    5  N3  UNL     1      84.138   2.386  58.479  1.00  0.00    -0.304 N 
ATOM      6  H3  UNL     1      84.579   2.053  57.621  1.00  0.00     0.176 HD
HETATM    7  S2  UNL     1      82.662   3.169  58.656  1.00  0.00     0.024 SA
ENDROOT
BRANCH   4   8
HETATM    8  S1  UNL     1      86.206   1.510  60.016  1.00  0.00    -0.089 SA
BRANCH   8   9
HETATM    9  C7  UNL     1      87.359   2.829  60.486  1.00  0.00     0.121 C 
BRANCH   9  10
HETATM   10  C8  UNL     1      87.942   2.459  61.808  1.00  0.00    -0.047 A 
HETATM   11  C9  UNL     1      87.134   2.113  62.881  1.00  0.00     0.011 A 
HETATM   12  C10 UNL     1      87.678   1.771  64.100  1.00  0.00     0.044 A 
HETATM   13  C11 UNL     1      89.058   1.766  64.283  1.00  0.00     0.133 A 
HETATM   14  F1  UNL     1      89.520   1.418  65.513  1.00  0.00    -0.205 F 
HETATM   15  C12 UNL     1      89.878   2.107  63.233  1.00  0.00     0.050 A 
HETATM   16 BR1  UNL     1      91.757   2.087  63.522  1.00  0.00    -0.048 Br
HETATM   17  C13 UNL     1      89.310   2.443  62.027  1.00  0.00     0.030 A 
ENDBRANCH   9  10
ENDBRANCH   8   9
ENDBRANCH   4   8
BRANCH   1  18
HETATM   18  N1  UNL     1      81.824   3.905  61.172  1.00  0.00    -0.365 N 
ATOM     19  H1  UNL     1      81.193   3.305  61.703  1.00  0.00     0.162 HD
BRANCH  18  20
HETATM   20  C3  UNL     1      81.744   5.322  61.330  1.00  0.00     0.079 C 
HETATM   21  C4  UNL     1      80.343   5.832  61.144  1.00  0.00     0.032 C 
BRANCH  20  22
HETATM   22  C2  UNL     1      82.257   5.664  62.721  1.00  0.00     0.020 C 
HETATM   23  C1  UNL     1      81.885   7.098  63.081  1.00  0.00     0.007 C 
ENDBRANCH  20  22
ENDBRANCH  18  20
ENDBRANCH   1  18
TORSDOF 6
ENDMDL
MODEL 3
REMARK VINA RESULT: -7.548317746      1.002      1.308
REMARK  6 active torsions:
REMARK  status: ('A' for Active; 'I' for Inactive)
REMARK    1  A    between atoms: C2_2  and  C3_3 
REMARK    2  A    between atoms: C3_3  and  N1_5 
REMARK    3  A    between atoms: N1_5  and  C5_7 
REMARK    4  A    between atoms: C6_10  and  S1_11 
REMARK    5  A    between atoms: S1_11  and  C7_12 
REMARK    6  A    between atoms: C7_12  and  C8_13 
ROOT
HETATM    1  C5  UNL     1      82.797   3.937  59.969  1.00  0.00     0.163 A 
HETATM    2  N2  UNL     1      83.973   3.425  60.343  1.00  0.00    -0.316 N 
ATOM      3  H2  UNL     1      84.456   3.766  61.174  1.00  0.00     0.170 HD
HETATM    4  C6  UNL     1      84.482   2.474  59.611  1.00  0.00     0.152 A 
HETATM    5  N3  UNL     1      83.805   2.071  58.541  1.00  0.00    -0.304 N 
ATOM      6  H3  UNL     1      84.058   1.346  57.869  1.00  0.00     0.176 HD
HETATM    7  S2  UNL     1      82.433   3.040  58.561  1.00  0.00     0.024 SA
ENDROOT
BRANCH   4   8
HETATM    8  S1  UNL     1      86.078   1.680  59.987  1.00  0.00    -0.089 SA
BRANCH   8   9
HETATM    9  C7  UNL     1      87.201   2.996  60.532  1.00  0.00     0.121 C 
BRANCH   9  10
HETATM   10  C8  UNL     1      87.811   2.555  61.819  1.00  0.00    -0.047 A 
HETATM   11  C9  UNL     1      87.028   2.127  62.880  1.00  0.00     0.011 A 
HETATM   12  C10 UNL     1      87.598   1.719  64.066  1.00  0.00     0.044 A 
HETATM   13  C11 UNL     1      88.980   1.727  64.228  1.00  0.00     0.133 A 
HETATM   14  F1  UNL     1      89.468   1.311  65.426  1.00  0.00    -0.205 F 
HETATM   15  C12 UNL     1      89.777   2.149  63.188  1.00  0.00     0.050 A 
HETATM   16 BR1  UNL     1      91.661   2.144  63.447  1.00  0.00    -0.048 Br
HETATM   17  C13 UNL     1      89.183   2.550  62.015  1.00  0.00     0.030 A 
ENDBRANCH   9  10
ENDBRANCH   8   9
ENDBRANCH   4   8
BRANCH   1  18
HETATM   18  N1  UNL     1      82.126   4.892  60.573  1.00  0.00    -0.365 N 
ATOM     19  H1  UNL     1      82.329   5.865  60.346  1.00  0.00     0.162 HD
BRANCH  18  20
HETATM   20  C3  UNL     1      81.119   4.593  61.540  1.00  0.00     0.079 C 
HETATM   21  C4  UNL     1      81.659   4.618  62.943  1.00  0.00     0.032 C 
BRANCH  20  22
HETATM   22  C2  UNL     1      80.002   5.613  61.380  1.00  0.00     0.020 C 
HETATM   23  C1  UNL     1      78.774   4.956  60.758  1.00  0.00     0.007 C 
ENDBRANCH  20  22
ENDBRANCH  18  20
ENDBRANCH   1  18
TORSDOF 6
ENDMDL
MODEL 4
REMARK VINA RESULT: -7.427961135      1.609      1.971
REMARK  6 active torsions:
REMARK  status: ('A' for Active; 'I' for Inactive)
REMARK    1  A    between atoms: C2_2  and  C3_3 
REMARK    2  A    between atoms: C3_3  and  N1_5 
REMARK    3  A    between atoms: N1_5  and  C5_7 
REMARK    4  A    between atoms: C6_10  and  S1_11 
REMARK    5  A    between atoms: S1_11  and  C7_12 
REMARK    6  A    between atoms: C7_12  and  C8_13 
ROOT
HETATM    1  C5  UNL     1      83.146   3.620  59.738  1.00  0.00     0.163 A 
HETATM    2  N2  UNL     1      84.049   2.805  60.291  1.00  0.00    -0.316 N 
ATOM      3  H2  UNL     1      83.938   2.467  61.248  1.00  0.00     0.170 HD
HETATM    4  C6  UNL     1      85.075   2.456  59.568  1.00  0.00     0.152 A 
HETATM    5  N3  UNL     1      85.165   2.928  58.329  1.00  0.00    -0.304 N 
ATOM      6  H3  UNL     1      85.894   2.755  57.637  1.00  0.00     0.176 HD
HETATM    7  S2  UNL     1      83.786   3.876  58.175  1.00  0.00     0.024 SA
ENDROOT
BRANCH   4   8
HETATM    8  S1  UNL     1      86.393   1.358  60.182  1.00  0.00    -0.089 SA
BRANCH   8   9
HETATM    9  C7  UNL     1      87.809   2.416  60.588  1.00  0.00     0.121 C 
BRANCH   9  10
HETATM   10  C8  UNL     1      88.176   2.142  62.007  1.00  0.00    -0.047 A 
HETATM   11  C9  UNL     1      89.477   2.301  62.460  1.00  0.00     0.011 A 
HETATM   12  C10 UNL     1      89.810   2.048  63.772  1.00  0.00     0.044 A 
HETATM   13  C11 UNL     1      88.843   1.624  64.679  1.00  0.00     0.133 A 
HETATM   14  F1  UNL     1      89.246   1.394  65.956  1.00  0.00    -0.205 F 
HETATM   15  C12 UNL     1      87.545   1.459  64.252  1.00  0.00     0.050 A 
HETATM   16 BR1  UNL     1      86.252   0.880  65.519  1.00  0.00    -0.048 Br
HETATM   17  C13 UNL     1      87.240   1.719  62.937  1.00  0.00     0.030 A 
ENDBRANCH   9  10
ENDBRANCH   8   9
ENDBRANCH   4   8
BRANCH   1  18
HETATM   18  N1  UNL     1      82.050   4.078  60.300  1.00  0.00    -0.365 N 
ATOM     19  H1  UNL     1      82.102   4.496  61.229  1.00  0.00     0.162 HD
BRANCH  18  20
HETATM   20  C3  UNL     1      80.789   4.004  59.635  1.00  0.00     0.079 C 
HETATM   21  C4  UNL     1      79.967   2.839  60.113  1.00  0.00     0.032 C 
BRANCH  20  22
HETATM   22  C2  UNL     1      80.054   5.312  59.881  1.00  0.00     0.020 C 
HETATM   23  C1  UNL     1      78.828   5.073  60.755  1.00  0.00     0.007 C 
ENDBRANCH  20  22
ENDBRANCH  18  20
ENDBRANCH   1  18
TORSDOF 6
ENDMDL
MODEL 5
REMARK VINA RESULT: -7.391523015      1.730      2.211
REMARK  6 active torsions:
REMARK  status: ('A' for Active; 'I' for Inactive)
REMARK    1  A    between atoms: C2_2  and  C3_3 
REMARK    2  A    between atoms: C3_3  and  N1_5 
REMARK    3  A    between atoms: N1_5  and  C5_7 
REMARK    4  A    between atoms: C6_10  and  S1_11 
REMARK    5  A    between atoms: S1_11  and  C7_12 
REMARK    6  A    between atoms: C7_12  and  C8_13 
ROOT
HETATM    1  C5  UNL     1      82.627   3.399  60.357  1.00  0.00     0.163 A 
HETATM    2  N2  UNL     1      83.795   2.833  60.673  1.00  0.00    -0.316 N 
ATOM      3  H2  UNL     1      84.109   2.778  61.642  1.00  0.00     0.170 HD
HETATM    4  C6  UNL     1      84.519   2.352  59.703  1.00  0.00     0.152 A 
HETATM    5  N3  UNL     1      84.058   2.451  58.460  1.00  0.00    -0.304 N 
ATOM      6  H3  UNL     1      84.494   2.130  57.596  1.00  0.00     0.176 HD
HETATM    7  S2  UNL     1      82.583   3.232  58.657  1.00  0.00     0.024 SA
ENDROOT
BRANCH   4   8
HETATM    8  S1  UNL     1      86.136   1.556  59.973  1.00  0.00    -0.089 SA
BRANCH   8   9
HETATM    9  C7  UNL     1      87.286   2.866  60.476  1.00  0.00     0.121 C 
BRANCH   9  10
HETATM   10  C8  UNL     1      87.864   2.468  61.792  1.00  0.00    -0.047 A 
HETATM   11  C9  UNL     1      89.220   2.593  62.052  1.00  0.00     0.011 A 
HETATM   12  C10 UNL     1      89.747   2.225  63.271  1.00  0.00     0.044 A 
HETATM   13  C11 UNL     1      88.926   1.718  64.274  1.00  0.00     0.133 A 
HETATM   14  F1  UNL     1      89.519   1.377  65.448  1.00  0.00    -0.205 F 
HETATM   15  C12 UNL     1      87.577   1.585  64.037  1.00  0.00     0.050 A 
HETATM   16 BR1  UNL     1      86.489   0.889  65.432  1.00  0.00    -0.048 Br
HETATM   17  C13 UNL     1      87.077   1.959  62.813  1.00  0.00     0.030 A 
ENDBRANCH   9  10
ENDBRANCH   8   9
ENDBRANCH   4   8
BRANCH   1  18
HETATM   18  N1  UNL     1      81.760   3.934  61.187  1.00  0.00    -0.365 N 
ATOM     19  H1  UNL     1      81.135   3.328  61.716  1.00  0.00     0.162 HD
BRANCH  18  20
HETATM   20  C3  UNL     1      81.678   5.349  61.362  1.00  0.00     0.079 C 
HETATM   21  C4  UNL     1      80.263   5.848  61.267  1.00  0.00     0.032 C 
BRANCH  20  22
HETATM   22  C2  UNL     1      82.273   5.686  62.720  1.00  0.00     0.020 C 
HETATM   23  C1  UNL     1      81.844   7.084  63.152  1.00  0.00     0.007 C 
ENDBRANCH  20  22
ENDBRANCH  18  20
ENDBRANCH   1  18
TORSDOF 6
ENDMDL
