MODEL 1
REMARK VINA RESULT: -6.720885895      0.000      0.000
REMARK  7 active torsions:
REMARK  status: ('A' for Active; 'I' for Inactive)
REMARK    1  A    between atoms: S1_2  and  C2_3 
REMARK    2  A    between atoms: C6_7  and  O1_8 
REMARK    3  A    between atoms: C6_7  and  C7_10 
REMARK    4  A    between atoms: C7_10  and  C8_11 
REMARK    5  A    between atoms: C8_11  and  C9_12 
REMARK    6  A    between atoms: C9_12  and  C11_14 
REMARK    7  A    between atoms: C11_14  and  N1_15 
ROOT
HETATM    1  C9  UNL     1      21.937  28.687  19.457  1.00  0.00     0.000 C 
HETATM    2  C10 UNL     1      21.722  27.349  20.065  1.00  0.00     0.011 C 
ENDROOT
BRANCH   1   3
HETATM    3  C8  UNL     1      22.247  29.767  20.499  1.00  0.00     0.009 C 
BRANCH   3   4
HETATM    4  C7  UNL     1      23.481  30.523  20.166  1.00  0.00     0.038 C 
BRANCH   4   5
HETATM    5  C6  UNL     1      23.366  31.930  20.685  1.00  0.00     0.059 C 
HETATM    6  C5  UNL     1      22.371  32.105  21.773  1.00  0.00     0.038 C 
HETATM    7  C4  UNL     1      22.972  32.395  23.130  1.00  0.00     0.004 C 
HETATM    8  C3  UNL     1      23.979  33.491  23.153  1.00  0.00     0.015 C 
HETATM    9  C2  UNL     1      24.427  33.808  21.765  1.00  0.00     0.049 C 
HETATM   10  C17 UNL     1      24.741  32.491  21.073  1.00  0.00     0.053 C 
BRANCH   9  11
HETATM   11  S1  UNL     1      25.825  34.948  21.702  1.00  0.00    -0.169 SA
HETATM   12  C1  UNL     1      26.987  34.534  20.393  1.00  0.00     0.090 C 
ENDBRANCH   9  11
BRANCH   5  13
HETATM   13  O1  UNL     1      22.996  32.710  19.559  1.00  0.00    -0.390 OA
ATOM     14  H1  UNL     1      23.422  32.377  18.778  1.00  0.00     0.210 HD
ENDBRANCH   5  13
ENDBRANCH   4   5
ENDBRANCH   3   4
ENDBRANCH   1   3
BRANCH   1  15
HETATM   15  C11 UNL     1      20.843  29.198  18.592  1.00  0.00     0.143 C 
BRANCH  15  16
HETATM   16  N1  UNL     1      21.275  29.691  17.309  1.00  0.00    -0.250 N 
HETATM   17  C12 UNL     1      21.676  28.887  16.315  1.00  0.00     0.336 A 
HETATM   18  O2  UNL     1      21.670  27.663  16.506  1.00  0.00    -0.246 OA
HETATM   19  N2  UNL     1      22.085  29.361  15.113  1.00  0.00    -0.255 N 
HETATM   20  C13 UNL     1      22.516  28.482  14.045  1.00  0.00     0.166 C 
HETATM   21  C14 UNL     1      22.098  30.686  14.887  1.00  0.00     0.336 A 
HETATM   22  O3  UNL     1      22.481  31.143  13.759  1.00  0.00    -0.246 OA
HETATM   23  N3  UNL     1      21.700  31.509  15.871  1.00  0.00    -0.255 N 
HETATM   24  C15 UNL     1      21.722  32.931  15.614  1.00  0.00     0.166 C 
HETATM   25  C16 UNL     1      21.297  31.013  17.060  1.00  0.00     0.336 A 
HETATM   26  O4  UNL     1      20.938  31.878  17.932  1.00  0.00    -0.246 OA
ENDBRANCH  15  16
ENDBRANCH   1  15
TORSDOF 7
ENDMDL
MODEL 2
REMARK VINA RESULT: -6.714387301      2.741      5.249
REMARK  7 active torsions:
REMARK  status: ('A' for Active; 'I' for Inactive)
REMARK    1  A    between atoms: S1_2  and  C2_3 
REMARK    2  A    between atoms: C6_7  and  O1_8 
REMARK    3  A    between atoms: C6_7  and  C7_10 
REMARK    4  A    between atoms: C7_10  and  C8_11 
REMARK    5  A    between atoms: C8_11  and  C9_12 
REMARK    6  A    between atoms: C9_12  and  C11_14 
REMARK    7  A    between atoms: C11_14  and  N1_15 
ROOT
HETATM    1  C9  UNL     1      21.783  29.837  15.871  1.00  0.00     0.000 C 
HETATM    2  C10 UNL     1      21.589  29.157  14.564  1.00  0.00     0.011 C 
ENDROOT
BRANCH   1   3
HETATM    3  C8  UNL     1      22.550  31.158  15.741  1.00  0.00     0.009 C 
BRANCH   3   4
HETATM    4  C7  UNL     1      23.993  30.997  16.050  1.00  0.00     0.038 C 
BRANCH   4   5
HETATM    5  C6  UNL     1      24.405  32.012  17.080  1.00  0.00     0.059 C 
HETATM    6  C5  UNL     1      25.756  32.590  16.867  1.00  0.00     0.038 C 
HETATM    7  C4  UNL     1      25.757  34.043  16.448  1.00  0.00     0.004 C 
HETATM    8  C3  UNL     1      24.922  34.943  17.290  1.00  0.00     0.015 C 
HETATM    9  C2  UNL     1      23.992  34.141  18.137  1.00  0.00     0.049 C 
HETATM   10  C17 UNL     1      23.337  33.102  17.240  1.00  0.00     0.053 C 
BRANCH   9  11
HETATM   11  S1  UNL     1      22.768  35.140  19.010  1.00  0.00    -0.169 SA
HETATM   12  C1  UNL     1      21.761  34.160  20.133  1.00  0.00     0.090 C 
ENDBRANCH   9  11
BRANCH   5  13
HETATM   13  O1  UNL     1      24.362  31.321  18.318  1.00  0.00    -0.390 OA
ATOM     14  H1  UNL     1      23.465  31.092  18.532  1.00  0.00     0.210 HD
ENDBRANCH   5  13
ENDBRANCH   4   5
ENDBRANCH   3   4
ENDBRANCH   1   3
BRANCH   1  15
HETATM   15  C11 UNL     1      22.441  29.038  16.935  1.00  0.00     0.143 C 
BRANCH  15  16
HETATM   16  N1  UNL     1      21.591  28.715  18.053  1.00  0.00    -0.250 N 
HETATM   17  C12 UNL     1      21.182  29.626  18.947  1.00  0.00     0.336 A 
HETATM   18  O2  UNL     1      21.547  30.801  18.803  1.00  0.00    -0.246 OA
HETATM   19  N2  UNL     1      20.387  29.311  19.998  1.00  0.00    -0.255 N 
HETATM   20  C13 UNL     1      19.950  30.303  20.958  1.00  0.00     0.166 C 
HETATM   21  C14 UNL     1      19.980  28.041  20.170  1.00  0.00     0.336 A 
HETATM   22  O3  UNL     1      19.232  27.733  21.157  1.00  0.00    -0.246 OA
HETATM   23  N3  UNL     1      20.380  27.113  19.286  1.00  0.00    -0.255 N 
HETATM   24  C15 UNL     1      19.937  25.751  19.486  1.00  0.00     0.166 C 
HETATM   25  C16 UNL     1      21.173  27.451  18.247  1.00  0.00     0.336 A 
HETATM   26  O4  UNL     1      21.498  26.496  17.460  1.00  0.00    -0.246 OA
ENDBRANCH  15  16
ENDBRANCH   1  15
TORSDOF 7
ENDMDL
MODEL 3
REMARK VINA RESULT: -6.713964039      2.759      4.837
REMARK  7 active torsions:
REMARK  status: ('A' for Active; 'I' for Inactive)
REMARK    1  A    between atoms: S1_2  and  C2_3 
REMARK    2  A    between atoms: C6_7  and  O1_8 
REMARK    3  A    between atoms: C6_7  and  C7_10 
REMARK    4  A    between atoms: C7_10  and  C8_11 
REMARK    5  A    between atoms: C8_11  and  C9_12 
REMARK    6  A    between atoms: C9_12  and  C11_14 
REMARK    7  A    between atoms: C11_14  and  N1_15 
ROOT
HETATM    1  C9  UNL     1      21.794  29.810  15.886  1.00  0.00     0.000 C 
HETATM    2  C10 UNL     1      21.588  29.148  14.572  1.00  0.00     0.011 C 
ENDROOT
BRANCH   1   3
HETATM    3  C8  UNL     1      22.566  31.128  15.768  1.00  0.00     0.009 C 
BRANCH   3   4
HETATM    4  C7  UNL     1      24.008  30.960  16.086  1.00  0.00     0.038 C 
BRANCH   4   5
HETATM    5  C6  UNL     1      24.426  31.996  17.093  1.00  0.00     0.059 C 
HETATM    6  C5  UNL     1      25.791  32.541  16.884  1.00  0.00     0.038 C 
HETATM    7  C4  UNL     1      25.828  33.980  16.424  1.00  0.00     0.004 C 
HETATM    8  C3  UNL     1      25.000  34.921  17.229  1.00  0.00     0.015 C 
HETATM    9  C2  UNL     1      24.042  34.162  18.084  1.00  0.00     0.049 C 
HETATM   10  C17 UNL     1      23.378  33.111  17.207  1.00  0.00     0.053 C 
BRANCH   9  11
HETATM   11  S1  UNL     1      22.827  35.209  18.911  1.00  0.00    -0.169 SA
HETATM   12  C1  UNL     1      21.742  34.272  19.997  1.00  0.00     0.090 C 
ENDBRANCH   9  11
BRANCH   5  13
HETATM   13  O1  UNL     1      24.351  31.341  18.349  1.00  0.00    -0.390 OA
ATOM     14  H1  UNL     1      25.217  31.274  18.734  1.00  0.00     0.210 HD
ENDBRANCH   5  13
ENDBRANCH   4   5
ENDBRANCH   3   4
ENDBRANCH   1   3
BRANCH   1  15
HETATM   15  C11 UNL     1      22.456  28.994  16.935  1.00  0.00     0.143 C 
BRANCH  15  16
HETATM   16  N1  UNL     1      21.604  28.637  18.043  1.00  0.00    -0.250 N 
HETATM   17  C12 UNL     1      21.165  27.389  18.253  1.00  0.00     0.336 A 
HETATM   18  O2  UNL     1      21.509  26.500  17.463  1.00  0.00    -0.246 OA
HETATM   19  N2  UNL     1      20.360  27.065  19.294  1.00  0.00    -0.255 N 
HETATM   20  C13 UNL     1      19.891  25.713  19.512  1.00  0.00     0.166 C 
HETATM   21  C14 UNL     1      19.976  28.017  20.162  1.00  0.00     0.336 A 
HETATM   22  O3  UNL     1      19.218  27.723  21.146  1.00  0.00    -0.246 OA
HETATM   23  N3  UNL     1      20.405  29.274  19.969  1.00  0.00    -0.255 N 
HETATM   24  C15 UNL     1      19.982  30.287  20.909  1.00  0.00     0.166 C 
HETATM   25  C16 UNL     1      21.207  29.573  18.923  1.00  0.00     0.336 A 
HETATM   26  O4  UNL     1      21.562  30.799  18.826  1.00  0.00    -0.246 OA
ENDBRANCH  15  16
ENDBRANCH   1  15
TORSDOF 7
ENDMDL
MODEL 4
REMARK VINA RESULT: -6.711574009      0.667      2.193
REMARK  7 active torsions:
REMARK  status: ('A' for Active; 'I' for Inactive)
REMARK    1  A    between atoms: S1_2  and  C2_3 
REMARK    2  A    between atoms: C6_7  and  O1_8 
REMARK    3  A    between atoms: C6_7  and  C7_10 
REMARK    4  A    between atoms: C7_10  and  C8_11 
REMARK    5  A    between atoms: C8_11  and  C9_12 
REMARK    6  A    between atoms: C9_12  and  C11_14 
REMARK    7  A    between atoms: C11_14  and  N1_15 
ROOT
HETATM    1  C9  UNL     1      21.853  28.534  19.455  1.00  0.00     0.000 C 
HETATM    2  C10 UNL     1      21.583  27.209  20.069  1.00  0.00     0.011 C 
ENDROOT
BRANCH   1   3
HETATM    3  C8  UNL     1      22.213  29.604  20.492  1.00  0.00     0.009 C 
BRANCH   3   4
HETATM    4  C7  UNL     1      23.426  30.368  20.104  1.00  0.00     0.038 C 
BRANCH   4   5
HETATM    5  C6  UNL     1      23.341  31.764  20.659  1.00  0.00     0.059 C 
HETATM    6  C5  UNL     1      22.245  31.971  21.638  1.00  0.00     0.038 C 
HETATM    7  C4  UNL     1      22.707  32.180  23.062  1.00  0.00     0.004 C 
HETATM    8  C3  UNL     1      23.772  33.206  23.235  1.00  0.00     0.015 C 
HETATM    9  C2  UNL     1      24.390  33.535  21.918  1.00  0.00     0.049 C 
HETATM   10  C17 UNL     1      24.697  32.221  21.216  1.00  0.00     0.053 C 
BRANCH   9  11
HETATM   11  S1  UNL     1      25.854  34.582  22.049  1.00  0.00    -0.169 SA
HETATM   12  C1  UNL     1      26.399  34.786  23.751  1.00  0.00     0.090 C 
ENDBRANCH   9  11
BRANCH   5  13
HETATM   13  O1  UNL     1      23.148  32.600  19.530  1.00  0.00    -0.390 OA
ATOM     14  H1  UNL     1      23.431  32.152  18.741  1.00  0.00     0.210 HD
ENDBRANCH   5  13
ENDBRANCH   4   5
ENDBRANCH   3   4
ENDBRANCH   1   3
BRANCH   1  15
HETATM   15  C11 UNL     1      20.780  29.088  18.592  1.00  0.00     0.143 C 
BRANCH  15  16
HETATM   16  N1  UNL     1      21.242  29.651  17.347  1.00  0.00    -0.250 N 
HETATM   17  C12 UNL     1      21.272  30.969  17.109  1.00  0.00     0.336 A 
HETATM   18  O2  UNL     1      20.891  31.740  18.000  1.00  0.00    -0.246 OA
HETATM   19  N2  UNL     1      21.704  31.487  15.933  1.00  0.00    -0.255 N 
HETATM   20  C13 UNL     1      21.734  32.914  15.686  1.00  0.00     0.166 C 
HETATM   21  C14 UNL     1      22.123  30.665  14.955  1.00  0.00     0.336 A 
HETATM   22  O3  UNL     1      22.531  31.143  13.844  1.00  0.00    -0.246 OA
HETATM   23  N3  UNL     1      22.099  29.341  15.174  1.00  0.00    -0.255 N 
HETATM   24  C15 UNL     1      22.550  28.471  14.112  1.00  0.00     0.166 C 
HETATM   25  C16 UNL     1      21.664  28.848  16.354  1.00  0.00     0.336 A 
HETATM   26  O4  UNL     1      21.681  27.573  16.465  1.00  0.00    -0.246 OA
ENDBRANCH  15  16
ENDBRANCH   1  15
TORSDOF 7
ENDMDL
MODEL 5
REMARK VINA RESULT: -6.704755790      3.408      4.980
REMARK  7 active torsions:
REMARK  status: ('A' for Active; 'I' for Inactive)
REMARK    1  A    between atoms: S1_2  and  C2_3 
REMARK    2  A    between atoms: C6_7  and  O1_8 
REMARK    3  A    between atoms: C6_7  and  C7_10 
REMARK    4  A    between atoms: C7_10  and  C8_11 
REMARK    5  A    between atoms: C8_11  and  C9_12 
REMARK    6  A    between atoms: C9_12  and  C11_14 
REMARK    7  A    between atoms: C11_14  and  N1_15 
ROOT
HETATM    1  C9  UNL     1      22.000  31.488  20.554  1.00  0.00     0.000 C 
HETATM    2  C10 UNL     1      21.944  31.741  22.017  1.00  0.00     0.011 C 
ENDROOT
BRANCH   1   3
HETATM    3  C8  UNL     1      22.394  32.734  19.753  1.00  0.00     0.009 C 
BRANCH   3   4
HETATM    4  C7  UNL     1      21.720  33.957  20.260  1.00  0.00     0.038 C 
BRANCH   4   5
HETATM    5  C6  UNL     1      20.612  34.348  19.323  1.00  0.00     0.059 C 
HETATM    6  C5  UNL     1      19.245  34.124  19.858  1.00  0.00     0.038 C 
HETATM    7  C4  UNL     1      18.482  35.389  20.176  1.00  0.00     0.004 C 
HETATM    8  C3  UNL     1      18.464  36.406  19.088  1.00  0.00     0.015 C 
HETATM    9  C2  UNL     1      19.507  36.089  18.070  1.00  0.00     0.049 C 
HETATM   10  C17 UNL     1      20.797  35.785  18.816  1.00  0.00     0.053 C 
BRANCH   9  11
HETATM   11  S1  UNL     1      19.734  37.392  16.841  1.00  0.00    -0.169 SA
HETATM   12  C1  UNL     1      19.663  36.764  15.158  1.00  0.00     0.090 C 
ENDBRANCH   9  11
BRANCH   5  13
HETATM   13  O1  UNL     1      20.814  33.558  18.161  1.00  0.00    -0.390 OA
ATOM     14  H1  UNL     1      21.192  34.088  17.469  1.00  0.00     0.210 HD
ENDBRANCH   5  13
ENDBRANCH   4   5
ENDBRANCH   3   4
ENDBRANCH   1   3
BRANCH   1  15
HETATM   15  C11 UNL     1      20.771  30.927  19.938  1.00  0.00     0.143 C 
BRANCH  15  16
HETATM   16  N1  UNL     1      20.964  29.677  19.246  1.00  0.00    -0.250 N 
HETATM   17  C12 UNL     1      20.647  28.490  19.780  1.00  0.00     0.336 A 
HETATM   18  O2  UNL     1      20.160  28.466  20.919  1.00  0.00    -0.246 OA
HETATM   19  N2  UNL     1      20.837  27.321  19.124  1.00  0.00    -0.255 N 
HETATM   20  C13 UNL     1      20.489  26.043  19.710  1.00  0.00     0.166 C 
HETATM   21  C14 UNL     1      21.364  27.328  17.886  1.00  0.00     0.336 A 
HETATM   22  O3  UNL     1      21.548  26.232  17.259  1.00  0.00    -0.246 OA
HETATM   23  N3  UNL     1      21.690  28.507  17.334  1.00  0.00    -0.255 N 
HETATM   24  C15 UNL     1      22.258  28.499  16.004  1.00  0.00     0.166 C 
HETATM   25  C16 UNL     1      21.491  29.660  18.008  1.00  0.00     0.336 A 
HETATM   26  O4  UNL     1      21.833  30.731  17.396  1.00  0.00    -0.246 OA
ENDBRANCH  15  16
ENDBRANCH   1  15
TORSDOF 7
ENDMDL
