MODEL 1
REMARK VINA RESULT: -5.726168101      0.000      0.000
REMARK  11 active torsions:
REMARK  status: ('A' for Active; 'I' for Inactive)
REMARK    1  A    between atoms: N1_1  and  C1_4 
REMARK    2  A    between atoms: C2_7  and  O1_8 
REMARK    3  A    between atoms: O1_8  and  C3_9 
REMARK    4  A    between atoms: C3_9  and  C4_10 
REMARK    5  A    between atoms: C4_10  and  C5_11 
REMARK    6  A    between atoms: C5_11  and  N3_12 
REMARK    7  A    between atoms: C7_17  and  N4_18 
REMARK    8  A    between atoms: N4_18  and  C8_20 
REMARK    9  A    between atoms: C8_20  and  C9_21 
REMARK   10  A    between atoms: C9_21  and  N5_22 
REMARK   11  A    between atoms: C12_25  and  C13_26 
ROOT
HETATM    1  C1  UNL     1     -10.581  10.587  70.182  1.00  0.00     0.679 A 
HETATM    2  N2  UNL     1     -11.095   9.835  71.087  1.00  0.00    -0.171 N 
ATOM      3  H2  UNL     1     -11.144   8.829  70.927  1.00  0.00     0.186 HD
HETATM    4  C2  UNL     1     -11.604  10.375  72.322  1.00  0.00     0.161 A 
HETATM    5  C6  UNL     1     -11.440  11.739  72.438  1.00  0.00     0.105 A 
HETATM    6  C7  UNL     1     -10.852  12.453  71.412  1.00  0.00     0.121 A 
HETATM    7  N8  UNL     1     -10.427  11.906  70.268  1.00  0.00    -0.177 N 
ATOM      8  H8  UNL     1     -10.015  12.459  69.517  1.00  0.00     0.185 HD
ENDROOT
BRANCH   6   9
HETATM    9  N4  UNL     1     -10.393  13.613  71.785  1.00  0.00    -0.375 N 
ATOM     10  H4  UNL     1     -10.632  14.398  71.179  1.00  0.00     0.161 HD
BRANCH   9  11
HETATM   11  C8  UNL     1      -9.608  13.932  72.919  1.00  0.00     0.137 C 
BRANCH  11  12
HETATM   12  C9  UNL     1      -8.141  13.875  72.620  1.00  0.00     0.129 C 
BRANCH  12  13
HETATM   13  N5  UNL     1      -7.497  14.682  71.651  1.00  0.00    -0.232 NA
HETATM   14  C10 UNL     1      -6.054  14.454  71.617  1.00  0.00     0.111 C 
HETATM   15  C11 UNL     1      -5.961  12.966  71.548  1.00  0.00     0.047 C 
HETATM   16  C12 UNL     1      -6.994  12.740  70.499  1.00  0.00     0.183 C 
HETATM   17  N7  UNL     1      -7.840  13.907  70.407  1.00  0.00    -0.151 NA
BRANCH  16  18
HETATM   18  C13 UNL     1      -6.555  12.128  69.264  1.00  0.00     0.251 C 
HETATM   19  N6  UNL     1      -7.545  11.550  68.376  1.00  0.00    -0.061 NA
HETATM   20  O2  UNL     1      -5.350  12.034  68.921  1.00  0.00    -0.275 OA
ENDBRANCH  16  18
ENDBRANCH  12  13
ENDBRANCH  11  12
ENDBRANCH   9  11
ENDBRANCH   6   9
BRANCH   4  21
HETATM   21  O1  UNL     1     -12.188   9.441  73.038  1.00  0.00    -0.335 OA
BRANCH  21  22
HETATM   22  C3  UNL     1     -12.742   8.579  73.746  1.00  0.00     0.179 C 
BRANCH  22  23
HETATM   23  C4  UNL     1     -12.966   7.164  73.405  1.00  0.00     0.054 C 
BRANCH  23  24
HETATM   24  C5  UNL     1     -11.774   6.333  73.874  1.00  0.00     0.231 C 
BRANCH  24  25
HETATM   25  N3  UNL     1     -10.539   6.978  73.837  1.00  0.00    -0.079 N 
ATOM     26  H33 UNL     1     -10.504   7.619  73.045  1.00  0.00     0.274 HD
ATOM     27  H32 UNL     1     -10.469   7.640  74.609  1.00  0.00     0.274 HD
ATOM     28  H31 UNL     1      -9.723   6.366  73.827  1.00  0.00     0.274 HD
ENDBRANCH  24  25
ENDBRANCH  23  24
ENDBRANCH  22  23
ENDBRANCH  21  22
ENDBRANCH   4  21
BRANCH   1  29
HETATM   29  N1  UNL     1      -9.932   9.995  69.138  1.00  0.00    -0.234 N 
ATOM     30  H12 UNL     1      -9.810   8.985  69.220  1.00  0.00     0.174 HD
ATOM     31  H11 UNL     1      -9.764  10.546  68.296  1.00  0.00     0.174 HD
ENDBRANCH   1  29
TORSDOF 11
ENDMDL
MODEL 2
REMARK VINA RESULT: -5.562661526      6.288      8.266
REMARK  11 active torsions:
REMARK  status: ('A' for Active; 'I' for Inactive)
REMARK    1  A    between atoms: N1_1  and  C1_4 
REMARK    2  A    between atoms: C2_7  and  O1_8 
REMARK    3  A    between atoms: O1_8  and  C3_9 
REMARK    4  A    between atoms: C3_9  and  C4_10 
REMARK    5  A    between atoms: C4_10  and  C5_11 
REMARK    6  A    between atoms: C5_11  and  N3_12 
REMARK    7  A    between atoms: C7_17  and  N4_18 
REMARK    8  A    between atoms: N4_18  and  C8_20 
REMARK    9  A    between atoms: C8_20  and  C9_21 
REMARK   10  A    between atoms: C9_21  and  N5_22 
REMARK   11  A    between atoms: C12_25  and  C13_26 
ROOT
HETATM    1  C1  UNL     1      -4.675   8.645  76.583  1.00  0.00     0.679 A 
HETATM    2  N2  UNL     1      -3.512   8.845  77.088  1.00  0.00    -0.171 N 
ATOM      3  H2  UNL     1      -3.018   8.066  77.523  1.00  0.00     0.186 HD
HETATM    4  C2  UNL     1      -2.885  10.142  77.055  1.00  0.00     0.161 A 
HETATM    5  C6  UNL     1      -3.631  11.100  76.402  1.00  0.00     0.105 A 
HETATM    6  C7  UNL     1      -4.865  10.773  75.873  1.00  0.00     0.121 A 
HETATM    7  N8  UNL     1      -5.418   9.558  75.962  1.00  0.00    -0.177 N 
ATOM      8  H8  UNL     1      -6.340   9.347  75.582  1.00  0.00     0.185 HD
ENDROOT
BRANCH   6   9
HETATM    9  N4  UNL     1      -5.276  11.606  74.961  1.00  0.00    -0.375 N 
ATOM     10  H4  UNL     1      -4.554  12.192  74.541  1.00  0.00     0.161 HD
BRANCH   9  11
HETATM   11  C8  UNL     1      -6.589  11.808  74.474  1.00  0.00     0.137 C 
BRANCH  11  12
HETATM   12  C9  UNL     1      -6.626  12.797  73.350  1.00  0.00     0.129 C 
BRANCH  12  13
HETATM   13  N5  UNL     1      -7.766  13.047  72.549  1.00  0.00    -0.232 NA
HETATM   14  C10 UNL     1      -7.603  14.235  71.714  1.00  0.00     0.111 C 
HETATM   15  C11 UNL     1      -6.268  14.010  71.085  1.00  0.00     0.047 C 
HETATM   16  C12 UNL     1      -6.456  12.583  70.699  1.00  0.00     0.183 C 
HETATM   17  N7  UNL     1      -7.544  12.024  71.467  1.00  0.00    -0.151 NA
BRANCH  16  18
HETATM   18  C13 UNL     1      -6.397  12.270  69.287  1.00  0.00     0.251 C 
HETATM   19  N6  UNL     1      -7.477  11.507  68.692  1.00  0.00    -0.061 NA
HETATM   20  O2  UNL     1      -5.442  12.594  68.540  1.00  0.00    -0.275 OA
ENDBRANCH  16  18
ENDBRANCH  12  13
ENDBRANCH  11  12
ENDBRANCH   9  11
ENDBRANCH   6   9
BRANCH   4  21
HETATM   21  O1  UNL     1      -1.760  10.138  77.733  1.00  0.00    -0.335 OA
BRANCH  21  22
HETATM   22  C3  UNL     1      -0.675  10.143  78.344  1.00  0.00     0.179 C 
BRANCH  22  23
HETATM   23  C4  UNL     1      -0.411  10.717  79.675  1.00  0.00     0.054 C 
BRANCH  23  24
HETATM   24  C5  UNL     1       0.910  11.482  79.646  1.00  0.00     0.231 C 
BRANCH  24  25
HETATM   25  N3  UNL     1       2.005  10.813  80.191  1.00  0.00    -0.079 N 
ATOM     26  H33 UNL     1       1.915   9.810  80.031  1.00  0.00     0.274 HD
ATOM     27  H32 UNL     1       2.842  11.010  79.644  1.00  0.00     0.274 HD
ATOM     28  H31 UNL     1       2.184  10.994  81.179  1.00  0.00     0.274 HD
ENDBRANCH  24  25
ENDBRANCH  23  24
ENDBRANCH  22  23
ENDBRANCH  21  22
ENDBRANCH   4  21
BRANCH   1  29
HETATM   29  N1  UNL     1      -5.116   7.359  76.461  1.00  0.00    -0.234 N 
ATOM     30  H12 UNL     1      -4.615   6.673  77.027  1.00  0.00     0.174 HD
ATOM     31  H11 UNL     1      -5.990   7.191  75.962  1.00  0.00     0.174 HD
ENDBRANCH   1  29
TORSDOF 11
ENDMDL
MODEL 3
REMARK VINA RESULT: -5.508911910      5.168      8.932
REMARK  11 active torsions:
REMARK  status: ('A' for Active; 'I' for Inactive)
REMARK    1  A    between atoms: N1_1  and  C1_4 
REMARK    2  A    between atoms: C2_7  and  O1_8 
REMARK    3  A    between atoms: O1_8  and  C3_9 
REMARK    4  A    between atoms: C3_9  and  C4_10 
REMARK    5  A    between atoms: C4_10  and  C5_11 
REMARK    6  A    between atoms: C5_11  and  N3_12 
REMARK    7  A    between atoms: C7_17  and  N4_18 
REMARK    8  A    between atoms: N4_18  and  C8_20 
REMARK    9  A    between atoms: C8_20  and  C9_21 
REMARK   10  A    between atoms: C9_21  and  N5_22 
REMARK   11  A    between atoms: C12_25  and  C13_26 
ROOT
HETATM    1  C1  UNL     1      -8.338   9.172  77.426  1.00  0.00     0.679 A 
HETATM    2  N2  UNL     1      -7.054   9.153  77.454  1.00  0.00    -0.171 N 
ATOM      3  H2  UNL     1      -6.575   9.327  78.338  1.00  0.00     0.186 HD
HETATM    4  C2  UNL     1      -6.274   8.891  76.272  1.00  0.00     0.161 A 
HETATM    5  C6  UNL     1      -7.036   8.628  75.153  1.00  0.00     0.105 A 
HETATM    6  C7  UNL     1      -8.415   8.652  75.236  1.00  0.00     0.121 A 
HETATM    7  N8  UNL     1      -9.092   8.936  76.355  1.00  0.00    -0.177 N 
ATOM      8  H8  UNL     1     -10.110   8.968  76.385  1.00  0.00     0.185 HD
ENDROOT
BRANCH   6   9
HETATM    9  N4  UNL     1      -9.004   8.012  74.268  1.00  0.00    -0.375 N 
ATOM     10  H4  UNL     1      -9.006   6.995  74.349  1.00  0.00     0.161 HD
BRANCH   9  11
HETATM   11  C8  UNL     1      -9.641   8.537  73.118  1.00  0.00     0.137 C 
BRANCH  11  12
HETATM   12  C9  UNL     1     -11.054   8.059  72.991  1.00  0.00     0.129 C 
BRANCH  12  13
HETATM   13  N5  UNL     1     -12.156   8.654  73.651  1.00  0.00    -0.232 NA
HETATM   14  C10 UNL     1     -13.424   8.032  73.276  1.00  0.00     0.111 C 
HETATM   15  C11 UNL     1     -13.135   6.578  73.442  1.00  0.00     0.047 C 
HETATM   16  C12 UNL     1     -12.455   6.649  74.766  1.00  0.00     0.183 C 
HETATM   17  N7  UNL     1     -12.021   8.005  75.004  1.00  0.00    -0.151 NA
BRANCH  16  18
HETATM   18  C13 UNL     1     -13.076   5.938  75.863  1.00  0.00     0.251 C 
HETATM   19  N6  UNL     1     -14.153   6.578  76.594  1.00  0.00    -0.061 NA
HETATM   20  O2  UNL     1     -12.716   4.800  76.250  1.00  0.00    -0.275 OA
ENDBRANCH  16  18
ENDBRANCH  12  13
ENDBRANCH  11  12
ENDBRANCH   9  11
ENDBRANCH   6   9
BRANCH   4  21
HETATM   21  O1  UNL     1      -4.992   9.041  76.513  1.00  0.00    -0.335 OA
BRANCH  21  22
HETATM   22  C3  UNL     1      -3.769   9.148  76.727  1.00  0.00     0.179 C 
BRANCH  22  23
HETATM   23  C4  UNL     1      -3.023  10.390  76.997  1.00  0.00     0.054 C 
BRANCH  23  24
HETATM   24  C5  UNL     1      -1.688  10.048  77.654  1.00  0.00     0.231 C 
BRANCH  24  25
HETATM   25  N3  UNL     1      -1.768   9.521  78.942  1.00  0.00    -0.079 N 
ATOM     26  H33 UNL     1      -1.372  10.178  79.613  1.00  0.00     0.274 HD
ATOM     27  H32 UNL     1      -2.739   9.507  79.253  1.00  0.00     0.274 HD
ATOM     28  H31 UNL     1      -1.349   8.599  79.067  1.00  0.00     0.274 HD
ENDBRANCH  24  25
ENDBRANCH  23  24
ENDBRANCH  22  23
ENDBRANCH  21  22
ENDBRANCH   4  21
BRANCH   1  29
HETATM   29  N1  UNL     1      -9.012   9.216  78.612  1.00  0.00    -0.234 N 
ATOM     30  H12 UNL     1     -10.028   9.254  78.532  1.00  0.00     0.174 HD
ATOM     31  H11 UNL     1      -8.491   9.045  79.472  1.00  0.00     0.174 HD
ENDBRANCH   1  29
TORSDOF 11
ENDMDL
MODEL 4
REMARK VINA RESULT: -5.473449388      5.554      7.879
REMARK  11 active torsions:
REMARK  status: ('A' for Active; 'I' for Inactive)
REMARK    1  A    between atoms: N1_1  and  C1_4 
REMARK    2  A    between atoms: C2_7  and  O1_8 
REMARK    3  A    between atoms: O1_8  and  C3_9 
REMARK    4  A    between atoms: C3_9  and  C4_10 
REMARK    5  A    between atoms: C4_10  and  C5_11 
REMARK    6  A    between atoms: C5_11  and  N3_12 
REMARK    7  A    between atoms: C7_17  and  N4_18 
REMARK    8  A    between atoms: N4_18  and  C8_20 
REMARK    9  A    between atoms: C8_20  and  C9_21 
REMARK   10  A    between atoms: C9_21  and  N5_22 
REMARK   11  A    between atoms: C12_25  and  C13_26 
ROOT
HETATM    1  C1  UNL     1      -5.463   6.933  75.653  1.00  0.00     0.679 A 
HETATM    2  N2  UNL     1      -4.491   7.680  76.035  1.00  0.00    -0.171 N 
ATOM      3  H2  UNL     1      -3.576   7.259  76.196  1.00  0.00     0.186 HD
HETATM    4  C2  UNL     1      -4.659   9.096  76.243  1.00  0.00     0.161 A 
HETATM    5  C6  UNL     1      -5.928   9.550  75.950  1.00  0.00     0.105 A 
HETATM    6  C7  UNL     1      -6.897   8.664  75.522  1.00  0.00     0.121 A 
HETATM    7  N8  UNL     1      -6.697   7.349  75.379  1.00  0.00    -0.177 N 
ATOM      8  H8  UNL     1      -7.436   6.712  75.082  1.00  0.00     0.185 HD
ENDROOT
BRANCH   6   9
HETATM    9  N4  UNL     1      -7.890   9.239  74.906  1.00  0.00    -0.375 N 
ATOM     10  H4  UNL     1      -7.810  10.249  74.787  1.00  0.00     0.161 HD
BRANCH   9  11
HETATM   11  C8  UNL     1      -9.064   8.650  74.378  1.00  0.00     0.137 C 
BRANCH  11  12
HETATM   12  C9  UNL     1      -9.181   8.859  72.899  1.00  0.00     0.129 C 
BRANCH  12  13
HETATM   13  N5  UNL     1     -10.303   8.470  72.129  1.00  0.00    -0.232 NA
HETATM   14  C10 UNL     1     -11.417   9.405  72.270  1.00  0.00     0.111 C 
HETATM   15  C11 UNL     1     -10.763  10.727  72.043  1.00  0.00     0.047 C 
HETATM   16  C12 UNL     1      -9.961  10.361  70.842  1.00  0.00     0.183 C 
HETATM   17  N7  UNL     1      -9.846   8.924  70.768  1.00  0.00    -0.151 NA
BRANCH  16  18
HETATM   18  C13 UNL     1     -10.247  11.078  69.618  1.00  0.00     0.251 C 
HETATM   19  N6  UNL     1      -9.219  11.166  68.599  1.00  0.00    -0.061 NA
HETATM   20  O2  UNL     1     -11.334  11.665  69.389  1.00  0.00    -0.275 OA
ENDBRANCH  16  18
ENDBRANCH  12  13
ENDBRANCH  11  12
ENDBRANCH   9  11
ENDBRANCH   6   9
BRANCH   4  21
HETATM   21  O1  UNL     1      -3.570   9.629  76.746  1.00  0.00    -0.335 OA
BRANCH  21  22
HETATM   22  C3  UNL     1      -2.559  10.157  77.246  1.00  0.00     0.179 C 
BRANCH  22  23
HETATM   23  C4  UNL     1      -1.298   9.487  77.610  1.00  0.00     0.054 C 
BRANCH  23  24
HETATM   24  C5  UNL     1      -0.561  10.321  78.654  1.00  0.00     0.231 C 
BRANCH  24  25
HETATM   25  N3  UNL     1      -1.126  10.326  79.929  1.00  0.00    -0.079 N 
ATOM     26  H33 UNL     1      -1.424   9.384  80.181  1.00  0.00     0.274 HD
ATOM     27  H32 UNL     1      -0.402  10.480  80.630  1.00  0.00     0.274 HD
ATOM     28  H31 UNL     1      -1.893  10.983  80.068  1.00  0.00     0.274 HD
ENDBRANCH  24  25
ENDBRANCH  23  24
ENDBRANCH  22  23
ENDBRANCH  21  22
ENDBRANCH   4  21
BRANCH   1  29
HETATM   29  N1  UNL     1      -5.186   5.651  75.275  1.00  0.00    -0.234 N 
ATOM     30  H12 UNL     1      -4.521   5.559  74.507  1.00  0.00     0.174 HD
ATOM     31  H11 UNL     1      -5.517   4.889  75.867  1.00  0.00     0.174 HD
ENDBRANCH   1  29
TORSDOF 11
ENDMDL
MODEL 5
REMARK VINA RESULT: -5.434105364      2.184      7.393
REMARK  11 active torsions:
REMARK  status: ('A' for Active; 'I' for Inactive)
REMARK    1  A    between atoms: N1_1  and  C1_4 
REMARK    2  A    between atoms: C2_7  and  O1_8 
REMARK    3  A    between atoms: O1_8  and  C3_9 
REMARK    4  A    between atoms: C3_9  and  C4_10 
REMARK    5  A    between atoms: C4_10  and  C5_11 
REMARK    6  A    between atoms: C5_11  and  N3_12 
REMARK    7  A    between atoms: C7_17  and  N4_18 
REMARK    8  A    between atoms: N4_18  and  C8_20 
REMARK    9  A    between atoms: C8_20  and  C9_21 
REMARK   10  A    between atoms: C9_21  and  N5_22 
REMARK   11  A    between atoms: C12_25  and  C13_26 
ROOT
HETATM    1  C1  UNL     1      -8.445  11.901  69.283  1.00  0.00     0.679 A 
HETATM    2  N2  UNL     1      -8.342  12.923  70.054  1.00  0.00    -0.171 N 
ATOM      3  H2  UNL     1      -7.687  13.665  69.810  1.00  0.00     0.186 HD
HETATM    4  C2  UNL     1      -9.129  13.048  71.255  1.00  0.00     0.161 A 
HETATM    5  C6  UNL     1     -10.008  12.003  71.451  1.00  0.00     0.105 A 
HETATM    6  C7  UNL     1     -10.055  10.961  70.546  1.00  0.00     0.121 A 
HETATM    7  N8  UNL     1      -9.275  10.876  69.462  1.00  0.00    -0.177 N 
ATOM      8  H8  UNL     1      -9.315  10.085  68.820  1.00  0.00     0.185 HD
ENDROOT
BRANCH   6   9
HETATM    9  N4  UNL     1     -11.158  10.272  70.605  1.00  0.00    -0.375 N 
ATOM     10  H4  UNL     1     -11.283   9.576  69.871  1.00  0.00     0.161 HD
BRANCH   9  11
HETATM   11  C8  UNL     1     -12.206  10.359  71.553  1.00  0.00     0.137 C 
BRANCH  11  12
HETATM   12  C9  UNL     1     -12.140   9.258  72.566  1.00  0.00     0.129 C 
BRANCH  12  13
HETATM   13  N5  UNL     1     -11.209   8.193  72.521  1.00  0.00    -0.232 NA
HETATM   14  C10 UNL     1     -10.443   8.078  73.760  1.00  0.00     0.111 C 
HETATM   15  C11 UNL     1     -11.507   8.112  74.805  1.00  0.00     0.047 C 
HETATM   16  C12 UNL     1     -12.455   7.154  74.170  1.00  0.00     0.183 C 
HETATM   17  N7  UNL     1     -12.139   7.034  72.767  1.00  0.00    -0.151 NA
BRANCH  16  18
HETATM   18  C13 UNL     1     -12.751   5.940  74.900  1.00  0.00     0.251 C 
HETATM   19  N6  UNL     1     -13.913   5.908  75.768  1.00  0.00    -0.061 NA
HETATM   20  O2  UNL     1     -12.039   4.907  74.856  1.00  0.00    -0.275 OA
ENDBRANCH  16  18
ENDBRANCH  12  13
ENDBRANCH  11  12
ENDBRANCH   9  11
ENDBRANCH   6   9
BRANCH   4  21
HETATM   21  O1  UNL     1      -8.770  14.107  71.943  1.00  0.00    -0.335 OA
BRANCH  21  22
HETATM   22  C3  UNL     1      -8.466  15.115  72.609  1.00  0.00     0.179 C 
BRANCH  22  23
HETATM   23  C4  UNL     1      -7.490  16.156  72.243  1.00  0.00     0.054 C 
BRANCH  23  24
HETATM   24  C5  UNL     1      -6.182  15.498  71.812  1.00  0.00     0.231 C 
BRANCH  24  25
HETATM   25  N3  UNL     1      -6.059  15.240  70.448  1.00  0.00    -0.079 N 
ATOM     26  H33 UNL     1      -6.501  15.986  69.911  1.00  0.00     0.274 HD
ATOM     27  H32 UNL     1      -5.089  15.359  70.157  1.00  0.00     0.274 HD
ATOM     28  H31 UNL     1      -6.408  14.333  70.137  1.00  0.00     0.274 HD
ENDBRANCH  24  25
ENDBRANCH  23  24
ENDBRANCH  22  23
ENDBRANCH  21  22
ENDBRANCH   4  21
BRANCH   1  29
HETATM   29  N1  UNL     1      -7.832  11.944  68.064  1.00  0.00    -0.234 N 
ATOM     30  H12 UNL     1      -8.455  12.088  67.270  1.00  0.00     0.174 HD
ATOM     31  H11 UNL     1      -6.813  11.997  68.036  1.00  0.00     0.174 HD
ENDBRANCH   1  29
TORSDOF 11
ENDMDL
