MODEL 1
REMARK VINA RESULT: -8.483220957      0.000      0.000
REMARK  6 active torsions:
REMARK  status: ('A' for Active; 'I' for Inactive)
REMARK       I    between atoms: C2_2  and  N1_4 
REMARK    1  A    between atoms: N1_4  and  C3_6 
REMARK    2  A    between atoms: C4_7  and  N2_8 
REMARK    3  A    between atoms: N2_8  and  C5_10 
REMARK    4  A    between atoms: C8_19  and  N5_20 
REMARK    5  A    between atoms: C11_25  and  N7_26 
REMARK    6  A    between atoms: N8_29  and  N9_30 
ROOT
HETATM    1  C3  UNL     1     -17.852  -4.618  23.705  1.00  0.00     0.150 A 
HETATM    2  C4  UNL     1     -18.495  -4.777  22.493  1.00  0.00     0.151 A 
HETATM    3  N6  UNL     1     -19.506  -3.923  22.264  1.00  0.00    -0.173 N 
ATOM      4  H6  UNL     1     -20.018  -3.993  21.385  1.00  0.00     0.186 HD
HETATM    5  C11 UNL     1     -19.874  -2.967  23.158  1.00  0.00     0.701 A 
HETATM    6  N8  UNL     1     -19.242  -2.811  24.348  1.00  0.00    -0.052 N 
HETATM    7  C12 UNL     1     -18.227  -3.648  24.610  1.00  0.00     0.312 A 
HETATM    8  O4  UNL     1     -17.634  -3.511  25.712  1.00  0.00    -0.263 OA
ENDROOT
BRANCH   2   9
HETATM    9  N2  UNL     1     -18.126  -5.773  21.556  1.00  0.00    -0.350 N 
ATOM     10  H2  UNL     1     -17.130  -5.818  21.338  1.00  0.00     0.163 HD
BRANCH   9  11
HETATM   11  C5  UNL     1     -18.933  -6.708  20.885  1.00  0.00     0.219 C 
HETATM   12  N3  UNL     1     -18.813  -8.039  21.509  1.00  0.00    -0.319 N 
HETATM   13  C6  UNL     1     -19.454  -9.165  20.968  1.00  0.00     0.324 C 
ATOM     14  H3  UNL     1     -18.251  -8.145  22.353  1.00  0.00     0.166 HD
HETATM   15  O2  UNL     1     -19.445 -10.246  21.599  1.00  0.00    -0.247 OA
HETATM   16  N4  UNL     1     -20.087  -8.992  19.702  1.00  0.00    -0.277 N 
HETATM   17  C7  UNL     1     -20.052  -7.742  19.055  1.00  0.00     0.252 C 
ATOM     18  H4  UNL     1     -20.566  -9.778  19.263  1.00  0.00     0.173 HD
HETATM   19  O3  UNL     1     -20.942  -7.445  18.238  1.00  0.00    -0.271 OA
HETATM   20  C8  UNL     1     -18.897  -6.855  19.431  1.00  0.00     0.214 C 
BRANCH  20  21
HETATM   21  N5  UNL     1     -18.806  -5.728  18.592  1.00  0.00    -0.406 N 
HETATM   22  C9  UNL     1     -17.502  -5.252  18.260  1.00  0.00     0.143 C 
HETATM   23  C10 UNL     1     -19.658  -4.629  18.880  1.00  0.00     0.143 C 
ENDBRANCH  20  21
ENDBRANCH   9  11
ENDBRANCH   2   9
BRANCH   1  24
HETATM   24  N1  UNL     1     -16.773  -5.459  24.058  1.00  0.00    -0.320 N 
HETATM   25  C2  UNL     1     -17.027  -6.780  24.464  1.00  0.00     0.218 C 
HETATM   26  C1  UNL     1     -15.921  -7.684  24.840  1.00  0.00     0.117 C 
HETATM   27  O1  UNL     1     -18.203  -7.238  24.520  1.00  0.00    -0.274 OA
ATOM     28  H1  UNL     1     -15.816  -5.108  24.020  1.00  0.00     0.169 HD
ENDBRANCH   1  24
BRANCH   5  29
HETATM   29  N7  UNL     1     -20.848  -2.158  22.915  1.00  0.00    -0.233 N 
ATOM     30  H72 UNL     1     -21.282  -2.234  21.995  1.00  0.00     0.174 HD
ATOM     31  H71 UNL     1     -21.162  -1.481  23.609  1.00  0.00     0.174 HD
ENDBRANCH   5  29
BRANCH   6  32
HETATM   32  N9  UNL     1     -19.646  -1.813  25.252  1.00  0.00    -0.321 N 
ATOM     33  H92 UNL     1     -19.848  -0.859  24.956  1.00  0.00     0.178 HD
ATOM     34  H91 UNL     1     -19.749  -2.019  26.246  1.00  0.00     0.178 HD
ENDBRANCH   6  32
TORSDOF 6
ENDMDL
MODEL 2
REMARK VINA RESULT: -8.346252457      2.112      3.688
REMARK  6 active torsions:
REMARK  status: ('A' for Active; 'I' for Inactive)
REMARK       I    between atoms: C2_2  and  N1_4 
REMARK    1  A    between atoms: N1_4  and  C3_6 
REMARK    2  A    between atoms: C4_7  and  N2_8 
REMARK    3  A    between atoms: N2_8  and  C5_10 
REMARK    4  A    between atoms: C8_19  and  N5_20 
REMARK    5  A    between atoms: C11_25  and  N7_26 
REMARK    6  A    between atoms: N8_29  and  N9_30 
ROOT
HETATM    1  C3  UNL     1     -17.538  -6.531  23.842  1.00  0.00     0.150 A 
HETATM    2  C4  UNL     1     -17.252  -6.685  22.500  1.00  0.00     0.151 A 
HETATM    3  N6  UNL     1     -16.117  -7.350  22.229  1.00  0.00    -0.173 N 
ATOM      4  H6  UNL     1     -15.854  -7.494  21.254  1.00  0.00     0.186 HD
HETATM    5  C11 UNL     1     -15.305  -7.839  23.202  1.00  0.00     0.701 A 
HETATM    6  N8  UNL     1     -15.586  -7.687  24.520  1.00  0.00    -0.052 N 
HETATM    7  C12 UNL     1     -16.712  -7.027  24.828  1.00  0.00     0.312 A 
HETATM    8  O4  UNL     1     -16.983  -6.882  26.049  1.00  0.00    -0.263 OA
ENDROOT
BRANCH   2   9
HETATM    9  N2  UNL     1     -18.088  -6.175  21.476  1.00  0.00    -0.350 N 
ATOM     10  H2  UNL     1     -17.948  -5.189  21.251  1.00  0.00     0.163 HD
BRANCH   9  11
HETATM   11  C5  UNL     1     -19.080  -6.830  20.726  1.00  0.00     0.219 C 
HETATM   12  N3  UNL     1     -19.159  -8.254  21.104  1.00  0.00    -0.319 N 
HETATM   13  C6  UNL     1     -20.015  -9.144  20.436  1.00  0.00     0.324 C 
ATOM     14  H3  UNL     1     -18.579  -8.600  21.868  1.00  0.00     0.166 HD
HETATM   15  O2  UNL     1     -20.160 -10.309  20.872  1.00  0.00    -0.247 OA
HETATM   16  N4  UNL     1     -20.676  -8.645  19.275  1.00  0.00    -0.277 N 
HETATM   17  C7  UNL     1     -20.460  -7.320  18.849  1.00  0.00     0.252 C 
ATOM     18  H4  UNL     1     -21.308  -9.250  18.752  1.00  0.00     0.173 HD
HETATM   19  O3  UNL     1     -21.328  -6.741  18.172  1.00  0.00    -0.271 OA
HETATM   20  C8  UNL     1     -19.150  -6.715  19.271  1.00  0.00     0.214 C 
BRANCH  20  21
HETATM   21  N5  UNL     1     -18.910  -5.485  18.630  1.00  0.00    -0.406 N 
HETATM   22  C9  UNL     1     -17.569  -5.191  18.238  1.00  0.00     0.143 C 
HETATM   23  C10 UNL     1     -19.508  -4.327  19.195  1.00  0.00     0.143 C 
ENDBRANCH  20  21
ENDBRANCH   9  11
ENDBRANCH   2   9
BRANCH   1  24
HETATM   24  N1  UNL     1     -18.706  -5.848  24.251  1.00  0.00    -0.320 N 
HETATM   25  C2  UNL     1     -19.930  -6.537  24.304  1.00  0.00     0.218 C 
HETATM   26  C1  UNL     1     -21.168  -5.851  24.728  1.00  0.00     0.117 C 
HETATM   27  O1  UNL     1     -20.013  -7.758  23.992  1.00  0.00    -0.274 OA
ATOM     28  H1  UNL     1     -18.660  -4.862  24.507  1.00  0.00     0.169 HD
ENDBRANCH   1  24
BRANCH   5  29
HETATM   29  N7  UNL     1     -14.220  -8.474  22.916  1.00  0.00    -0.233 N 
ATOM     30  H72 UNL     1     -13.837  -8.322  21.983  1.00  0.00     0.174 HD
ATOM     31  H71 UNL     1     -13.774  -9.095  23.591  1.00  0.00     0.174 HD
ENDBRANCH   5  29
BRANCH   6  32
HETATM   32  N9  UNL     1     -14.725  -8.204  25.504  1.00  0.00    -0.321 N 
ATOM     33  H92 UNL     1     -14.094  -7.611  26.042  1.00  0.00     0.178 HD
ATOM     34  H91 UNL     1     -14.707  -9.203  25.710  1.00  0.00     0.178 HD
ENDBRANCH   6  32
TORSDOF 6
ENDMDL
MODEL 3
REMARK VINA RESULT: -8.089113316      2.676      5.882
REMARK  6 active torsions:
REMARK  status: ('A' for Active; 'I' for Inactive)
REMARK       I    between atoms: C2_2  and  N1_4 
REMARK    1  A    between atoms: N1_4  and  C3_6 
REMARK    2  A    between atoms: C4_7  and  N2_8 
REMARK    3  A    between atoms: N2_8  and  C5_10 
REMARK    4  A    between atoms: C8_19  and  N5_20 
REMARK    5  A    between atoms: C11_25  and  N7_26 
REMARK    6  A    between atoms: N8_29  and  N9_30 
ROOT
HETATM    1  C3  UNL     1     -17.323  -6.773  21.025  1.00  0.00     0.150 A 
HETATM    2  C4  UNL     1     -17.031  -6.076  22.181  1.00  0.00     0.151 A 
HETATM    3  N6  UNL     1     -15.920  -6.472  22.823  1.00  0.00    -0.173 N 
ATOM      4  H6  UNL     1     -15.654  -5.994  23.683  1.00  0.00     0.186 HD
HETATM    5  C11 UNL     1     -15.136  -7.486  22.371  1.00  0.00     0.701 A 
HETATM    6  N8  UNL     1     -15.423  -8.170  21.236  1.00  0.00    -0.052 N 
HETATM    7  C12 UNL     1     -16.526  -7.801  20.569  1.00  0.00     0.312 A 
HETATM    8  O4  UNL     1     -16.802  -8.430  19.513  1.00  0.00    -0.263 OA
ENDROOT
BRANCH   2   9
HETATM    9  N2  UNL     1     -17.844  -5.022  22.665  1.00  0.00    -0.350 N 
ATOM     10  H2  UNL     1     -17.563  -4.085  22.373  1.00  0.00     0.163 HD
BRANCH   9  11
HETATM   11  C5  UNL     1     -18.982  -5.081  23.489  1.00  0.00     0.219 C 
HETATM   12  N3  UNL     1     -19.361  -6.483  23.749  1.00  0.00    -0.319 N 
HETATM   13  C6  UNL     1     -20.517  -6.808  24.476  1.00  0.00     0.324 C 
ATOM     14  H3  UNL     1     -18.770  -7.233  23.393  1.00  0.00     0.166 HD
HETATM   15  O2  UNL     1     -20.733  -7.998  24.797  1.00  0.00    -0.247 OA
HETATM   16  N4  UNL     1     -21.389  -5.728  24.805  1.00  0.00    -0.277 N 
HETATM   17  C7  UNL     1     -21.075  -4.414  24.407  1.00  0.00     0.252 C 
ATOM     18  H4  UNL     1     -22.244  -5.909  25.331  1.00  0.00     0.173 HD
HETATM   19  O3  UNL     1     -21.531  -3.450  25.047  1.00  0.00    -0.271 OA
HETATM   20  C8  UNL     1     -20.185  -4.303  23.199  1.00  0.00     0.214 C 
BRANCH  20  21
HETATM   21  N5  UNL     1     -20.096  -2.979  22.733  1.00  0.00    -0.406 N 
HETATM   22  C9  UNL     1     -19.495  -2.012  23.595  1.00  0.00     0.143 C 
HETATM   23  C10 UNL     1     -21.250  -2.422  22.121  1.00  0.00     0.143 C 
ENDBRANCH  20  21
ENDBRANCH   9  11
ENDBRANCH   2   9
BRANCH   1  24
HETATM   24  N1  UNL     1     -18.467  -6.447  20.263  1.00  0.00    -0.320 N 
HETATM   25  C2  UNL     1     -18.350  -5.558  19.180  1.00  0.00     0.218 C 
HETATM   26  C1  UNL     1     -19.528  -5.198  18.364  1.00  0.00     0.117 C 
HETATM   27  O1  UNL     1     -17.241  -5.040  18.870  1.00  0.00    -0.274 OA
ATOM     28  H1  UNL     1     -19.373  -6.854  20.497  1.00  0.00     0.169 HD
ENDBRANCH   1  24
BRANCH   5  29
HETATM   29  N7  UNL     1     -14.073  -7.848  23.006  1.00  0.00    -0.233 N 
ATOM     30  H72 UNL     1     -13.617  -7.132  23.572  1.00  0.00     0.174 HD
ATOM     31  H71 UNL     1     -13.713  -8.800  22.941  1.00  0.00     0.174 HD
ENDBRANCH   5  29
BRANCH   6  32
HETATM   32  N9  UNL     1     -14.592  -9.214  20.795  1.00  0.00    -0.321 N 
ATOM     33  H92 UNL     1     -13.913  -9.667  21.407  1.00  0.00     0.178 HD
ATOM     34  H91 UNL     1     -14.644  -9.554  19.835  1.00  0.00     0.178 HD
ENDBRANCH   6  32
TORSDOF 6
ENDMDL
MODEL 4
REMARK VINA RESULT: -7.980447706      1.599      1.848
REMARK  6 active torsions:
REMARK  status: ('A' for Active; 'I' for Inactive)
REMARK       I    between atoms: C2_2  and  N1_4 
REMARK    1  A    between atoms: N1_4  and  C3_6 
REMARK    2  A    between atoms: C4_7  and  N2_8 
REMARK    3  A    between atoms: N2_8  and  C5_10 
REMARK    4  A    between atoms: C8_19  and  N5_20 
REMARK    5  A    between atoms: C11_25  and  N7_26 
REMARK    6  A    between atoms: N8_29  and  N9_30 
ROOT
HETATM    1  C3  UNL     1     -19.995  -4.222  23.597  1.00  0.00     0.150 A 
HETATM    2  C4  UNL     1     -20.374  -4.746  22.378  1.00  0.00     0.151 A 
HETATM    3  N6  UNL     1     -21.603  -4.399  21.962  1.00  0.00    -0.173 N 
ATOM      4  H6  UNL     1     -21.937  -4.758  21.068  1.00  0.00     0.186 HD
HETATM    5  C11 UNL     1     -22.419  -3.589  22.686  1.00  0.00     0.701 A 
HETATM    6  N8  UNL     1     -22.046  -3.074  23.884  1.00  0.00    -0.052 N 
HETATM    7  C12 UNL     1     -20.824  -3.400  24.331  1.00  0.00     0.312 A 
HETATM    8  O4  UNL     1     -20.468  -2.927  25.441  1.00  0.00    -0.263 OA
ENDROOT
BRANCH   2   9
HETATM    9  N2  UNL     1     -19.535  -5.597  21.617  1.00  0.00    -0.350 N 
ATOM     10  H2  UNL     1     -18.547  -5.345  21.612  1.00  0.00     0.163 HD
BRANCH   9  11
HETATM   11  C5  UNL     1     -19.868  -6.739  20.868  1.00  0.00     0.219 C 
HETATM   12  N3  UNL     1     -19.469  -7.965  21.586  1.00  0.00    -0.319 N 
HETATM   13  C6  UNL     1     -19.614  -9.235  21.008  1.00  0.00     0.324 C 
ATOM     14  H3  UNL     1     -19.078  -7.887  22.525  1.00  0.00     0.166 HD
HETATM   15  O2  UNL     1     -19.397 -10.258  21.696  1.00  0.00    -0.247 OA
HETATM   16  N4  UNL     1     -20.010  -9.273  19.638  1.00  0.00    -0.277 N 
HETATM   17  C7  UNL     1     -20.236  -8.075  18.931  1.00  0.00     0.252 C 
ATOM     18  H4  UNL     1     -20.129 -10.170  19.169  1.00  0.00     0.173 HD
HETATM   19  O3  UNL     1     -20.997  -8.074  17.947  1.00  0.00    -0.271 OA
HETATM   20  C8  UNL     1     -19.506  -6.870  19.457  1.00  0.00     0.214 C 
BRANCH  20  21
HETATM   21  N5  UNL     1     -19.604  -5.774  18.581  1.00  0.00    -0.406 N 
HETATM   22  C9  UNL     1     -18.462  -4.929  18.446  1.00  0.00     0.143 C 
HETATM   23  C10 UNL     1     -20.780  -4.981  18.656  1.00  0.00     0.143 C 
ENDBRANCH  20  21
ENDBRANCH   9  11
ENDBRANCH   2   9
BRANCH   1  24
HETATM   24  N1  UNL     1     -18.724  -4.517  24.139  1.00  0.00    -0.320 N 
HETATM   25  C2  UNL     1     -18.479  -5.790  24.682  1.00  0.00     0.218 C 
HETATM   26  C1  UNL     1     -17.161  -6.129  25.256  1.00  0.00     0.117 C 
HETATM   27  O1  UNL     1     -19.373  -6.683  24.698  1.00  0.00    -0.274 OA
ATOM     28  H1  UNL     1     -17.988  -3.810  24.136  1.00  0.00     0.169 HD
ENDBRANCH   1  24
BRANCH   5  29
HETATM   29  N7  UNL     1     -23.595  -3.270  22.265  1.00  0.00    -0.233 N 
ATOM     30  H72 UNL     1     -24.042  -3.926  21.625  1.00  0.00     0.174 HD
ATOM     31  H71 UNL     1     -24.049  -2.405  22.561  1.00  0.00     0.174 HD
ENDBRANCH   5  29
BRANCH   6  32
HETATM   32  N9  UNL     1     -22.913  -2.238  24.610  1.00  0.00    -0.321 N 
ATOM     33  H92 UNL     1     -22.999  -1.241  24.415  1.00  0.00     0.178 HD
ATOM     34  H91 UNL     1     -23.489  -2.612  25.363  1.00  0.00     0.178 HD
ENDBRANCH   6  32
TORSDOF 6
ENDMDL
MODEL 5
REMARK VINA RESULT: -7.942019914      2.221      3.703
REMARK  6 active torsions:
REMARK  status: ('A' for Active; 'I' for Inactive)
REMARK       I    between atoms: C2_2  and  N1_4 
REMARK    1  A    between atoms: N1_4  and  C3_6 
REMARK    2  A    between atoms: C4_7  and  N2_8 
REMARK    3  A    between atoms: N2_8  and  C5_10 
REMARK    4  A    between atoms: C8_19  and  N5_20 
REMARK    5  A    between atoms: C11_25  and  N7_26 
REMARK    6  A    between atoms: N8_29  and  N9_30 
ROOT
HETATM    1  C3  UNL     1     -20.821  -4.407  23.281  1.00  0.00     0.150 A 
HETATM    2  C4  UNL     1     -20.539  -5.272  22.243  1.00  0.00     0.151 A 
HETATM    3  N6  UNL     1     -19.251  -5.638  22.136  1.00  0.00    -0.173 N 
ATOM      4  H6  UNL     1     -18.984  -6.276  21.387  1.00  0.00     0.186 HD
HETATM    5  C11 UNL     1     -18.291  -5.190  22.986  1.00  0.00     0.701 A 
HETATM    6  N8  UNL     1     -18.567  -4.340  24.005  1.00  0.00    -0.052 N 
HETATM    7  C12 UNL     1     -19.844  -3.953  24.142  1.00  0.00     0.312 A 
HETATM    8  O4  UNL     1     -20.112  -3.164  25.086  1.00  0.00    -0.263 OA
ENDROOT
BRANCH   2   9
HETATM    9  N2  UNL     1     -21.531  -5.740  21.347  1.00  0.00    -0.350 N 
ATOM     10  H2  UNL     1     -22.463  -5.348  21.484  1.00  0.00     0.163 HD
BRANCH   9  11
HETATM   11  C5  UNL     1     -21.417  -6.667  20.296  1.00  0.00     0.219 C 
HETATM   12  N3  UNL     1     -21.202  -8.027  20.826  1.00  0.00    -0.319 N 
HETATM   13  C6  UNL     1     -20.969  -9.119  19.975  1.00  0.00     0.324 C 
ATOM     14  H3  UNL     1     -21.221  -8.178  21.834  1.00  0.00     0.166 HD
HETATM   15  O2  UNL     1     -20.930 -10.277  20.448  1.00  0.00    -0.247 OA
HETATM   16  N4  UNL     1     -20.789  -8.823  18.591  1.00  0.00    -0.277 N 
HETATM   17  C7  UNL     1     -20.848  -7.491  18.136  1.00  0.00     0.252 C 
ATOM     18  H4  UNL     1     -20.616  -9.579  17.929  1.00  0.00     0.173 HD
HETATM   19  O3  UNL     1     -21.156  -7.256  16.954  1.00  0.00    -0.271 OA
HETATM   20  C8  UNL     1     -20.519  -6.445  19.165  1.00  0.00     0.214 C 
BRANCH  20  21
HETATM   21  N5  UNL     1     -20.383  -5.168  18.589  1.00  0.00    -0.406 N 
HETATM   22  C9  UNL     1     -19.161  -4.465  18.814  1.00  0.00     0.143 C 
HETATM   23  C10 UNL     1     -21.479  -4.274  18.717  1.00  0.00     0.143 C 
ENDBRANCH  20  21
ENDBRANCH   9  11
ENDBRANCH   2   9
BRANCH   1  24
HETATM   24  N1  UNL     1     -22.141  -3.951  23.495  1.00  0.00    -0.320 N 
HETATM   25  C2  UNL     1     -22.547  -2.719  22.953  1.00  0.00     0.218 C 
HETATM   26  C1  UNL     1     -23.920  -2.215  23.159  1.00  0.00     0.117 C 
HETATM   27  O1  UNL     1     -21.755  -2.004  22.276  1.00  0.00    -0.274 OA
ATOM     28  H1  UNL     1     -22.796  -4.513  24.039  1.00  0.00     0.169 HD
ENDBRANCH   1  24
BRANCH   5  29
HETATM   29  N7  UNL     1     -17.060  -5.557  22.862  1.00  0.00    -0.233 N 
ATOM     30  H72 UNL     1     -16.865  -6.548  23.002  1.00  0.00     0.174 HD
ATOM     31  H71 UNL     1     -16.326  -4.886  22.635  1.00  0.00     0.174 HD
ENDBRANCH   5  29
BRANCH   6  32
HETATM   32  N9  UNL     1     -17.551  -3.895  24.868  1.00  0.00    -0.321 N 
ATOM     33  H92 UNL     1     -17.244  -2.923  24.892  1.00  0.00     0.178 HD
ATOM     34  H91 UNL     1     -17.084  -4.542  25.503  1.00  0.00     0.178 HD
ENDBRANCH   6  32
TORSDOF 6
ENDMDL
