MODEL 1
REMARK VINA RESULT: -7.894324070      0.000      0.000
REMARK  6 active torsions:
REMARK  status: ('A' for Active; 'I' for Inactive)
REMARK    1  A    between atoms: C2_3  and  O2_4 
REMARK    2  A    between atoms: N1_7  and  C4_8 
REMARK    3  A    between atoms: C9_13  and  N2_14 
REMARK    4  A    between atoms: N3_17  and  C12_18 
REMARK    5  A    between atoms: C12_18  and  C13_19 
REMARK    6  A    between atoms: C13_19  and  C14_20 
ROOT
HETATM    1  O1  UNL     1      60.576  57.569  54.387  1.00  0.00    -0.284 OA
HETATM    2  C1  UNL     1      60.573  58.582  53.682  1.00  0.00     0.218 A 
HETATM    3  C2  UNL     1      60.566  59.849  54.230  1.00  0.00     0.132 A 
HETATM    4  C3  UNL     1      60.562  60.975  53.404  1.00  0.00     0.132 A 
HETATM    5  N1  UNL     1      60.566  60.813  52.070  1.00  0.00    -0.348 N 
HETATM    6  C7  UNL     1      60.574  59.589  51.512  1.00  0.00     0.051 A 
HETATM    7  C8  UNL     1      60.578  59.464  50.126  1.00  0.00     0.063 A 
HETATM    8  C9  UNL     1      60.586  58.228  49.487  1.00  0.00     0.071 A 
HETATM    9  C17 UNL     1      60.588  57.114  50.301  1.00  0.00     0.143 A 
HETATM   10  F1  UNL     1      60.595  55.901  49.713  1.00  0.00    -0.204 F 
HETATM   11  C18 UNL     1      60.585  57.217  51.683  1.00  0.00     0.062 A 
HETATM   12  C19 UNL     1      60.577  58.445  52.310  1.00  0.00     0.047 A 
ENDROOT
BRANCH   8  13
HETATM   13  N2  UNL     1      60.584  58.175  48.078  1.00  0.00    -0.375 N 
HETATM   14  C10 UNL     1      59.465  58.505  47.228  1.00  0.00     0.153 C 
HETATM   15  C11 UNL     1      59.979  58.861  45.854  1.00  0.00     0.292 C 
HETATM   16  N3  UNL     1      60.764  57.839  45.250  1.00  0.00     0.092 N 
HETATM   17  C15 UNL     1      61.282  56.909  46.218  1.00  0.00     0.292 C 
HETATM   18  C16 UNL     1      61.792  57.753  47.398  1.00  0.00     0.153 C 
BRANCH  16  19
HETATM   19  C12 UNL     1      60.130  57.128  44.181  1.00  0.00     0.280 C 
BRANCH  19  20
HETATM   20  C13 UNL     1      61.125  56.884  43.074  1.00  0.00     0.109 C 
BRANCH  20  21
HETATM   21  C14 UNL     1      61.024  58.017  42.090  1.00  0.00     0.114 A 
HETATM   22  N4  UNL     1      60.233  59.105  42.154  1.00  0.00    -0.272 N 
HETATM   23  N5  UNL     1      60.488  59.829  41.065  1.00  0.00    -0.227 N 
ATOM     24  H4  UNL     1      59.568  59.330  42.893  1.00  0.00     0.190 HD
HETATM   25  N6  UNL     1      61.401  59.234  40.335  1.00  0.00    -0.227 N 
ATOM     26  H5  UNL     1      60.040  60.715  40.833  1.00  0.00     0.210 HD
HETATM   27  N7  UNL     1      61.737  58.103  40.974  1.00  0.00    -0.272 N 
ATOM     28  H6  UNL     1      61.782  59.568  39.450  1.00  0.00     0.210 HD
ATOM     29  H7  UNL     1      62.427  57.422  40.654  1.00  0.00     0.190 HD
ENDBRANCH  20  21
ENDBRANCH  19  20
ENDBRANCH  16  19
ENDBRANCH   8  13
BRANCH   5  30
HETATM   30  C4  UNL     1      60.552  61.961  51.159  1.00  0.00     0.090 A 
HETATM   31  C5  UNL     1      60.943  63.274  51.884  1.00  0.00     0.028 A 
HETATM   32  C6  UNL     1      59.552  63.087  51.470  1.00  0.00     0.028 A 
ENDBRANCH   5  30
BRANCH   3  33
HETATM   33  O2  UNL     1      60.562  59.989  55.596  1.00  0.00    -0.356 OA
ATOM     34  H2  UNL     1      60.884  60.796  55.980  1.00  0.00     0.218 HD
ENDBRANCH   3  33
TORSDOF 6
ENDMDL
MODEL 2
REMARK VINA RESULT: -7.891235316      1.045      1.157
REMARK  6 active torsions:
REMARK  status: ('A' for Active; 'I' for Inactive)
REMARK    1  A    between atoms: C2_3  and  O2_4 
REMARK    2  A    between atoms: N1_7  and  C4_8 
REMARK    3  A    between atoms: C9_13  and  N2_14 
REMARK    4  A    between atoms: N3_17  and  C12_18 
REMARK    5  A    between atoms: C12_18  and  C13_19 
REMARK    6  A    between atoms: C13_19  and  C14_20 
ROOT
HETATM    1  O1  UNL     1      61.238  58.069  54.021  1.00  0.00    -0.284 OA
HETATM    2  C1  UNL     1      60.950  59.146  53.492  1.00  0.00     0.218 A 
HETATM    3  C2  UNL     1      60.780  60.297  54.232  1.00  0.00     0.132 A 
HETATM    4  C3  UNL     1      60.453  61.500  53.602  1.00  0.00     0.132 A 
HETATM    5  N1  UNL     1      60.305  61.525  52.266  1.00  0.00    -0.348 N 
HETATM    6  C7  UNL     1      60.465  60.415  51.523  1.00  0.00     0.051 A 
HETATM    7  C8  UNL     1      60.304  60.482  50.142  1.00  0.00     0.063 A 
HETATM    8  C9  UNL     1      60.455  59.372  49.317  1.00  0.00     0.071 A 
HETATM    9  C17 UNL     1      60.778  58.183  49.938  1.00  0.00     0.143 A 
HETATM   10  F1  UNL     1      60.932  57.088  49.166  1.00  0.00    -0.204 F 
HETATM   11  C18 UNL     1      60.944  58.095  51.311  1.00  0.00     0.062 A 
HETATM   12  C19 UNL     1      60.792  59.199  52.123  1.00  0.00     0.047 A 
ENDROOT
BRANCH   8  13
HETATM   13  N2  UNL     1      60.272  59.510  47.926  1.00  0.00    -0.375 N 
HETATM   14  C10 UNL     1      59.034  59.872  47.275  1.00  0.00     0.153 C 
HETATM   15  C11 UNL     1      59.343  60.447  45.914  1.00  0.00     0.292 C 
HETATM   16  N3  UNL     1      60.096  59.575  45.078  1.00  0.00     0.092 N 
HETATM   17  C15 UNL     1      60.785  58.562  45.831  1.00  0.00     0.292 C 
HETATM   18  C16 UNL     1      61.400  59.272  47.049  1.00  0.00     0.153 C 
BRANCH  16  19
HETATM   19  C12 UNL     1      59.366  58.972  44.004  1.00  0.00     0.280 C 
BRANCH  19  20
HETATM   20  C13 UNL     1      60.221  57.926  43.334  1.00  0.00     0.109 C 
BRANCH  20  21
HETATM   21  C14 UNL     1      60.733  58.494  42.039  1.00  0.00     0.114 A 
HETATM   22  N4  UNL     1      60.303  59.589  41.384  1.00  0.00    -0.272 N 
HETATM   23  N5  UNL     1      61.054  59.700  40.288  1.00  0.00    -0.227 N 
ATOM     24  H4  UNL     1      59.549  60.212  41.671  1.00  0.00     0.190 HD
HETATM   25  N6  UNL     1      61.926  58.721  40.242  1.00  0.00    -0.227 N 
ATOM     26  H5  UNL     1      60.964  60.437  39.589  1.00  0.00     0.210 HD
HETATM   27  N7  UNL     1      61.728  57.968  41.334  1.00  0.00    -0.272 N 
ATOM     28  H6  UNL     1      62.622  58.563  39.514  1.00  0.00     0.210 HD
ATOM     29  H7  UNL     1      62.254  57.129  41.582  1.00  0.00     0.190 HD
ENDBRANCH  20  21
ENDBRANCH  19  20
ENDBRANCH  16  19
ENDBRANCH   8  13
BRANCH   5  30
HETATM   30  C4  UNL     1      59.951  62.757  51.557  1.00  0.00     0.090 A 
HETATM   31  C5  UNL     1      60.949  63.902  51.864  1.00  0.00     0.028 A 
HETATM   32  C6  UNL     1      59.597  63.981  52.418  1.00  0.00     0.028 A 
ENDBRANCH   5  30
BRANCH   3  33
HETATM   33  O2  UNL     1      60.937  60.249  55.596  1.00  0.00    -0.356 OA
ATOM     34  H2  UNL     1      61.512  60.874  56.019  1.00  0.00     0.218 HD
ENDBRANCH   3  33
TORSDOF 6
ENDMDL
MODEL 3
REMARK VINA RESULT: -7.724224834      2.226      3.510
REMARK  6 active torsions:
REMARK  status: ('A' for Active; 'I' for Inactive)
REMARK    1  A    between atoms: C2_3  and  O2_4 
REMARK    2  A    between atoms: N1_7  and  C4_8 
REMARK    3  A    between atoms: C9_13  and  N2_14 
REMARK    4  A    between atoms: N3_17  and  C12_18 
REMARK    5  A    between atoms: C12_18  and  C13_19 
REMARK    6  A    between atoms: C13_19  and  C14_20 
ROOT
HETATM    1  O1  UNL     1      59.324  63.628  52.410  1.00  0.00    -0.284 OA
HETATM    2  C1  UNL     1      59.842  62.594  52.843  1.00  0.00     0.218 A 
HETATM    3  C2  UNL     1      60.145  62.438  54.179  1.00  0.00     0.132 A 
HETATM    4  C3  UNL     1      60.732  61.256  54.636  1.00  0.00     0.132 A 
HETATM    5  N1  UNL     1      60.998  60.271  53.761  1.00  0.00    -0.348 N 
HETATM    6  C7  UNL     1      60.711  60.401  52.453  1.00  0.00     0.051 A 
HETATM    7  C8  UNL     1      61.002  59.357  51.578  1.00  0.00     0.063 A 
HETATM    8  C9  UNL     1      60.731  59.427  50.216  1.00  0.00     0.071 A 
HETATM    9  C17 UNL     1      60.152  60.594  49.762  1.00  0.00     0.143 A 
HETATM   10  F1  UNL     1      59.877  60.694  48.446  1.00  0.00    -0.204 F 
HETATM   11  C18 UNL     1      59.854  61.645  50.616  1.00  0.00     0.062 A 
HETATM   12  C19 UNL     1      60.126  61.568  51.966  1.00  0.00     0.047 A 
ENDROOT
BRANCH   8  13
HETATM   13  N2  UNL     1      61.057  58.335  49.385  1.00  0.00    -0.375 N 
HETATM   14  C10 UNL     1      62.067  58.339  48.353  1.00  0.00     0.153 C 
HETATM   15  C11 UNL     1      62.500  56.918  48.084  1.00  0.00     0.292 C 
HETATM   16  N3  UNL     1      61.434  56.049  47.719  1.00  0.00     0.092 N 
HETATM   17  C15 UNL     1      60.152  56.563  48.123  1.00  0.00     0.292 C 
HETATM   18  C16 UNL     1      60.332  57.092  49.556  1.00  0.00     0.153 C 
BRANCH  16  19
HETATM   19  C12 UNL     1      61.394  55.672  46.339  1.00  0.00     0.280 C 
BRANCH  19  20
HETATM   20  C13 UNL     1      60.108  56.155  45.717  1.00  0.00     0.109 C 
BRANCH  20  21
HETATM   21  C14 UNL     1      60.439  57.233  44.722  1.00  0.00     0.114 A 
HETATM   22  N4  UNL     1      60.039  58.518  44.725  1.00  0.00    -0.272 N 
HETATM   23  N5  UNL     1      60.582  59.091  43.651  1.00  0.00    -0.227 N 
ATOM     24  H4  UNL     1      59.438  58.967  45.415  1.00  0.00     0.190 HD
HETATM   25  N6  UNL     1      61.297  58.215  42.989  1.00  0.00    -0.227 N 
ATOM     26  H5  UNL     1      60.459  60.068  43.383  1.00  0.00     0.210 HD
HETATM   27  N7  UNL     1      61.210  57.054  43.656  1.00  0.00    -0.272 N 
ATOM     28  H6  UNL     1      61.820  58.383  42.130  1.00  0.00     0.210 HD
ATOM     29  H7  UNL     1      61.662  56.178  43.388  1.00  0.00     0.190 HD
ENDBRANCH  20  21
ENDBRANCH  19  20
ENDBRANCH  16  19
ENDBRANCH   8  13
BRANCH   5  30
HETATM   30  C4  UNL     1      61.623  59.017  54.186  1.00  0.00     0.090 A 
HETATM   31  C5  UNL     1      60.568  57.914  54.460  1.00  0.00     0.028 A 
HETATM   32  C6  UNL     1      61.277  58.506  55.595  1.00  0.00     0.028 A 
ENDBRANCH   5  30
BRANCH   3  33
HETATM   33  O2  UNL     1      59.864  63.457  55.056  1.00  0.00    -0.356 OA
ATOM     34  H2  UNL     1      60.505  63.692  55.716  1.00  0.00     0.218 HD
ENDBRANCH   3  33
TORSDOF 6
ENDMDL
MODEL 4
REMARK VINA RESULT: -7.723275410      2.127      2.578
REMARK  6 active torsions:
REMARK  status: ('A' for Active; 'I' for Inactive)
REMARK    1  A    between atoms: C2_3  and  O2_4 
REMARK    2  A    between atoms: N1_7  and  C4_8 
REMARK    3  A    between atoms: C9_13  and  N2_14 
REMARK    4  A    between atoms: N3_17  and  C12_18 
REMARK    5  A    between atoms: C12_18  and  C13_19 
REMARK    6  A    between atoms: C13_19  and  C14_20 
ROOT
HETATM    1  O1  UNL     1      60.391  57.584  54.706  1.00  0.00    -0.284 OA
HETATM    2  C1  UNL     1      60.436  58.501  53.881  1.00  0.00     0.218 A 
HETATM    3  C2  UNL     1      60.377  59.825  54.263  1.00  0.00     0.132 A 
HETATM    4  C3  UNL     1      60.430  60.839  53.304  1.00  0.00     0.132 A 
HETATM    5  N1  UNL     1      60.538  60.512  52.005  1.00  0.00    -0.348 N 
HETATM    6  C7  UNL     1      60.598  59.228  51.608  1.00  0.00     0.051 A 
HETATM    7  C8  UNL     1      60.711  58.930  50.253  1.00  0.00     0.063 A 
HETATM    8  C9  UNL     1      60.776  57.625  49.778  1.00  0.00     0.071 A 
HETATM    9  C17 UNL     1      60.724  56.622  50.723  1.00  0.00     0.143 A 
HETATM   10  F1  UNL     1      60.785  55.345  50.295  1.00  0.00    -0.204 F 
HETATM   11  C18 UNL     1      60.612  56.896  52.078  1.00  0.00     0.062 A 
HETATM   12  C19 UNL     1      60.547  58.193  52.541  1.00  0.00     0.047 A 
ENDROOT
BRANCH   8  13
HETATM   13  N2  UNL     1      60.885  57.395  48.390  1.00  0.00    -0.375 N 
HETATM   14  C10 UNL     1      59.779  57.165  47.490  1.00  0.00     0.153 C 
HETATM   15  C11 UNL     1      60.209  57.510  46.085  1.00  0.00     0.292 C 
HETATM   16  N3  UNL     1      61.356  56.794  45.641  1.00  0.00     0.092 N 
HETATM   17  C15 UNL     1      62.122  56.262  46.737  1.00  0.00     0.292 C 
HETATM   18  C16 UNL     1      62.203  57.379  47.790  1.00  0.00     0.153 C 
BRANCH  16  19
HETATM   19  C12 UNL     1      61.103  55.766  44.678  1.00  0.00     0.280 C 
BRANCH  19  20
HETATM   20  C13 UNL     1      61.867  56.059  43.410  1.00  0.00     0.109 C 
BRANCH  20  21
HETATM   21  C14 UNL     1      62.958  55.033  43.269  1.00  0.00     0.114 A 
HETATM   22  N4  UNL     1      62.836  53.693  43.206  1.00  0.00    -0.272 N 
HETATM   23  N5  UNL     1      64.068  53.201  43.081  1.00  0.00    -0.227 N 
ATOM     24  H4  UNL     1      61.968  53.159  43.247  1.00  0.00     0.190 HD
HETATM   25  N6  UNL     1      64.941  54.179  43.064  1.00  0.00    -0.227 N 
ATOM     26  H5  UNL     1      64.298  52.210  43.009  1.00  0.00     0.210 HD
HETATM   27  N7  UNL     1      64.250  55.324  43.180  1.00  0.00    -0.272 N 
ATOM     28  H6  UNL     1      65.953  54.088  42.979  1.00  0.00     0.210 HD
ATOM     29  H7  UNL     1      64.652  56.262  43.198  1.00  0.00     0.190 HD
ENDBRANCH  20  21
ENDBRANCH  19  20
ENDBRANCH  16  19
ENDBRANCH   8  13
BRANCH   5  30
HETATM   30  C4  UNL     1      60.586  61.536  50.958  1.00  0.00     0.090 A 
HETATM   31  C5  UNL     1      60.939  62.931  51.535  1.00  0.00     0.028 A 
HETATM   32  C6  UNL     1      59.575  62.690  51.063  1.00  0.00     0.028 A 
ENDBRANCH   5  30
BRANCH   3  33
HETATM   33  O2  UNL     1      60.266  60.136  55.596  1.00  0.00    -0.356 OA
ATOM     34  H2  UNL     1      60.260  59.435  56.237  1.00  0.00     0.218 HD
ENDBRANCH   3  33
TORSDOF 6
ENDMDL
MODEL 5
REMARK VINA RESULT: -7.546363116      1.824      2.287
REMARK  6 active torsions:
REMARK  status: ('A' for Active; 'I' for Inactive)
REMARK    1  A    between atoms: C2_3  and  O2_4 
REMARK    2  A    between atoms: N1_7  and  C4_8 
REMARK    3  A    between atoms: C9_13  and  N2_14 
REMARK    4  A    between atoms: N3_17  and  C12_18 
REMARK    5  A    between atoms: C12_18  and  C13_19 
REMARK    6  A    between atoms: C13_19  and  C14_20 
ROOT
HETATM    1  O1  UNL     1      60.813  57.544  54.370  1.00  0.00    -0.284 OA
HETATM    2  C1  UNL     1      60.721  58.559  53.674  1.00  0.00     0.218 A 
HETATM    3  C2  UNL     1      60.688  59.821  54.231  1.00  0.00     0.132 A 
HETATM    4  C3  UNL     1      60.583  60.950  53.414  1.00  0.00     0.132 A 
HETATM    5  N1  UNL     1      60.515  60.795  52.081  1.00  0.00    -0.348 N 
HETATM    6  C7  UNL     1      60.546  59.574  51.516  1.00  0.00     0.051 A 
HETATM    7  C8  UNL     1      60.474  59.456  50.131  1.00  0.00     0.063 A 
HETATM    8  C9  UNL     1      60.501  58.224  49.484  1.00  0.00     0.071 A 
HETATM    9  C17 UNL     1      60.603  57.108  50.288  1.00  0.00     0.143 A 
HETATM   10  F1  UNL     1      60.632  55.900  49.692  1.00  0.00    -0.204 F 
HETATM   11  C18 UNL     1      60.677  57.205  51.669  1.00  0.00     0.062 A 
HETATM   12  C19 UNL     1      60.650  58.429  52.303  1.00  0.00     0.047 A 
ENDROOT
BRANCH   8  13
HETATM   13  N2  UNL     1      60.419  58.177  48.077  1.00  0.00    -0.375 N 
HETATM   14  C10 UNL     1      61.274  58.896  47.162  1.00  0.00     0.153 C 
HETATM   15  C11 UNL     1      61.262  58.197  45.825  1.00  0.00     0.292 C 
HETATM   16  N3  UNL     1      59.963  58.051  45.262  1.00  0.00     0.092 N 
HETATM   17  C15 UNL     1      58.927  58.167  46.254  1.00  0.00     0.292 C 
HETATM   18  C16 UNL     1      59.397  57.349  47.468  1.00  0.00     0.153 C 
BRANCH  16  19
HETATM   19  C12 UNL     1      59.674  58.907  44.153  1.00  0.00     0.280 C 
BRANCH  19  20
HETATM   20  C13 UNL     1      58.196  58.868  43.852  1.00  0.00     0.109 C 
BRANCH  20  21
HETATM   21  C14 UNL     1      57.743  60.265  43.528  1.00  0.00     0.114 A 
HETATM   22  N4  UNL     1      57.509  61.282  44.378  1.00  0.00    -0.272 N 
HETATM   23  N5  UNL     1      57.130  62.322  43.638  1.00  0.00    -0.227 N 
ATOM     24  H4  UNL     1      57.605  61.259  45.394  1.00  0.00     0.190 HD
HETATM   25  N6  UNL     1      57.120  61.990  42.370  1.00  0.00    -0.227 N 
ATOM     26  H5  UNL     1      56.883  63.242  44.003  1.00  0.00     0.210 HD
HETATM   27  N7  UNL     1      57.503  60.706  42.298  1.00  0.00    -0.272 N 
ATOM     28  H6  UNL     1      56.868  62.592  41.586  1.00  0.00     0.210 HD
ATOM     29  H7  UNL     1      57.595  60.159  41.441  1.00  0.00     0.190 HD
ENDBRANCH  20  21
ENDBRANCH  19  20
ENDBRANCH  16  19
ENDBRANCH   8  13
BRANCH   5  30
HETATM   30  C4  UNL     1      60.393  61.944  51.182  1.00  0.00     0.090 A 
HETATM   31  C5  UNL     1      60.870  63.255  51.857  1.00  0.00     0.028 A 
HETATM   32  C6  UNL     1      59.439  63.071  51.612  1.00  0.00     0.028 A 
ENDBRANCH   5  30
BRANCH   3  33
HETATM   33  O2  UNL     1      60.759  59.956  55.596  1.00  0.00    -0.356 OA
ATOM     34  H2  UNL     1      60.318  59.322  56.148  1.00  0.00     0.218 HD
ENDBRANCH   3  33
TORSDOF 6
ENDMDL
