MODEL 1
REMARK VINA RESULT: -6.109910233      0.000      0.000
REMARK  18 active torsions:
REMARK  status: ('A' for Active; 'I' for Inactive)
REMARK    1  A    between atoms: N1_2  and  C2_3 
REMARK    2  A    between atoms: N1_2  and  C4_9 
REMARK    3  A    between atoms: N1_2  and  C6_13 
REMARK    4  A    between atoms: C2_3  and  C3_4 
REMARK    5  A    between atoms: C3_4  and  N2_5 
REMARK    6  A    between atoms: C4_9  and  C5_10 
REMARK    7  A    between atoms: C6_13  and  C7_14 
REMARK    8  A    between atoms: N4_16  and  C9_17 
REMARK    9  A    between atoms: C9_17  and  C10_18 
REMARK   10  A    between atoms: C10_18  and  C11_19 
REMARK   11  A    between atoms: C11_19  and  O2_20 
REMARK   12  A    between atoms: C12_22  and  C13_23 
REMARK   13  A    between atoms: C13_23  and  C14_24 
REMARK   14  A    between atoms: C14_24  and  C15_25 
REMARK   15  A    between atoms: C15_25  and  C16_26 
REMARK   16  A    between atoms: C16_26  and  C17_27 
REMARK   17  A    between atoms: C17_27  and  C18_28 
REMARK   18  A    between atoms: C18_28  and  C19_29 
ROOT
HETATM    1  C7  UNL     1      27.401  19.969  14.668  1.00  0.00     0.051 A 
HETATM    2  C8  UNL     1      27.266  21.103  13.904  1.00  0.00     0.117 A 
HETATM    3  N4  UNL     1      27.668  21.149  12.594  1.00  0.00    -0.357 N 
HETATM    4  C12 UNL     1      28.211  20.077  12.011  1.00  0.00     0.026 A 
HETATM    5  C20 UNL     1      28.352  18.932  12.774  1.00  0.00     0.113 A 
HETATM    6  N6  UNL     1      27.954  18.914  14.044  1.00  0.00    -0.365 N 
ATOM      7  H6  UNL     1      28.075  18.051  14.574  1.00  0.00     0.165 HD
ENDROOT
BRANCH   1   8
HETATM    8  C6  UNL     1      26.962  19.959  16.058  1.00  0.00     0.295 C 
BRANCH   8   9
HETATM    9  N1  UNL     1      25.570  19.616  16.271  1.00  0.00    -0.056 N 
HETATM   10  C1  UNL     1      24.702  20.141  15.241  1.00  0.00     0.273 C 
BRANCH   9  11
HETATM   11  C2  UNL     1      25.180  20.217  17.515  1.00  0.00     0.265 C 
BRANCH  11  12
HETATM   12  C3  UNL     1      25.450  21.671  17.638  1.00  0.00     0.257 C 
BRANCH  12  13
HETATM   13  N2  UNL     1      24.331  22.426  18.174  1.00  0.00    -0.078 N 
ATOM     14  H23 UNL     1      23.988  23.099  17.489  1.00  0.00     0.274 HD
ATOM     15  H22 UNL     1      23.504  21.835  18.258  1.00  0.00     0.274 HD
ATOM     16  H21 UNL     1      24.537  22.887  19.060  1.00  0.00     0.274 HD
ENDBRANCH  12  13
ENDBRANCH  11  12
ENDBRANCH   9  11
BRANCH   9  17
HETATM   17  C4  UNL     1      25.485  18.177  16.280  1.00  0.00     0.336 C 
BRANCH  17  18
HETATM   18  C5  UNL     1      24.700  17.600  15.182  1.00  0.00     0.257 C 
HETATM   19  N3  UNL     1      23.389  17.149  15.498  1.00  0.00    -0.061 NA
HETATM   20  O1  UNL     1      25.053  17.459  13.991  1.00  0.00    -0.275 OA
ENDBRANCH  17  18
ENDBRANCH   9  17
ENDBRANCH   8   9
ENDBRANCH   1   8
BRANCH   3  21
HETATM   21  C9  UNL     1      27.509  22.378  11.867  1.00  0.00     0.130 C 
BRANCH  21  22
HETATM   22  C10 UNL     1      27.123  23.497  12.808  1.00  0.00     0.046 C 
BRANCH  22  23
HETATM   23  C11 UNL     1      27.104  24.830  12.085  1.00  0.00     0.165 C 
BRANCH  23  24
HETATM   24  O2  UNL     1      26.151  25.682  12.679  1.00  0.00    -0.401 OA
ATOM     25  H2  UNL     1      26.549  26.521  12.880  1.00  0.00     0.209 HD
ENDBRANCH  23  24
ENDBRANCH  22  23
ENDBRANCH  21  22
ENDBRANCH   3  21
BRANCH   4  26
HETATM   26  C13 UNL     1      28.696  20.075  10.611  1.00  0.00     0.058 C 
BRANCH  26  27
HETATM   27  C14 UNL     1      29.151  18.757  10.087  1.00  0.00     0.006 C 
BRANCH  27  28
HETATM   28  C15 UNL     1      28.696  18.404   8.711  1.00  0.00     0.000 C 
BRANCH  28  29
HETATM   29  C16 UNL     1      29.887  17.959   7.870  1.00  0.00     0.000 C 
BRANCH  29  30
HETATM   30  C17 UNL     1      31.022  17.606   8.780  1.00  0.00     0.005 C 
BRANCH  30  31
HETATM   31  C18 UNL     1      32.317  18.204   8.306  1.00  0.00     0.044 C 
BRANCH  31  32
HETATM   32  C19 UNL     1      32.532  19.576   8.843  1.00  0.00     0.052 C 
HETATM   33  N5  UNL     1      32.527  20.610   8.097  1.00  0.00    -0.411 N 
ATOM     34  H52 UNL     1      32.369  20.475   7.099  1.00  0.00     0.155 HD
ATOM     35  H51 UNL     1      32.675  21.550   8.465  1.00  0.00     0.155 HD
ENDBRANCH  31  32
ENDBRANCH  30  31
ENDBRANCH  29  30
ENDBRANCH  28  29
ENDBRANCH  27  28
ENDBRANCH  26  27
ENDBRANCH   4  26
TORSDOF 18
ENDMDL
MODEL 2
REMARK VINA RESULT: -5.784104954      1.913      2.194
REMARK  18 active torsions:
REMARK  status: ('A' for Active; 'I' for Inactive)
REMARK    1  A    between atoms: N1_2  and  C2_3 
REMARK    2  A    between atoms: N1_2  and  C4_9 
REMARK    3  A    between atoms: N1_2  and  C6_13 
REMARK    4  A    between atoms: C2_3  and  C3_4 
REMARK    5  A    between atoms: C3_4  and  N2_5 
REMARK    6  A    between atoms: C4_9  and  C5_10 
REMARK    7  A    between atoms: C6_13  and  C7_14 
REMARK    8  A    between atoms: N4_16  and  C9_17 
REMARK    9  A    between atoms: C9_17  and  C10_18 
REMARK   10  A    between atoms: C10_18  and  C11_19 
REMARK   11  A    between atoms: C11_19  and  O2_20 
REMARK   12  A    between atoms: C12_22  and  C13_23 
REMARK   13  A    between atoms: C13_23  and  C14_24 
REMARK   14  A    between atoms: C14_24  and  C15_25 
REMARK   15  A    between atoms: C15_25  and  C16_26 
REMARK   16  A    between atoms: C16_26  and  C17_27 
REMARK   17  A    between atoms: C17_27  and  C18_28 
REMARK   18  A    between atoms: C18_28  and  C19_29 
ROOT
HETATM    1  C7  UNL     1      26.987  20.099  14.717  1.00  0.00     0.051 A 
HETATM    2  C8  UNL     1      27.122  21.110  13.796  1.00  0.00     0.117 A 
HETATM    3  N4  UNL     1      27.769  20.923  12.602  1.00  0.00    -0.357 N 
HETATM    4  C12 UNL     1      28.295  19.736  12.291  1.00  0.00     0.026 A 
HETATM    5  C20 UNL     1      28.165  18.714  13.213  1.00  0.00     0.113 A 
HETATM    6  N6  UNL     1      27.533  18.921  14.366  1.00  0.00    -0.365 N 
ATOM      7  H6  UNL     1      27.457  18.142  15.020  1.00  0.00     0.165 HD
ENDROOT
BRANCH   1   8
HETATM    8  C6  UNL     1      26.293  20.336  15.976  1.00  0.00     0.295 C 
BRANCH   8   9
HETATM    9  N1  UNL     1      24.919  19.876  16.029  1.00  0.00    -0.056 N 
HETATM   10  C1  UNL     1      24.234  20.020  14.764  1.00  0.00     0.273 C 
BRANCH   9  11
HETATM   11  C2  UNL     1      24.241  20.703  16.986  1.00  0.00     0.265 C 
BRANCH  11  12
HETATM   12  C3  UNL     1      25.117  21.509  17.873  1.00  0.00     0.257 C 
BRANCH  12  13
HETATM   13  N2  UNL     1      24.409  22.550  18.597  1.00  0.00    -0.078 N 
ATOM     14  H23 UNL     1      24.991  23.382  18.693  1.00  0.00     0.274 HD
ATOM     15  H22 UNL     1      23.655  22.936  18.029  1.00  0.00     0.274 HD
ATOM     16  H21 UNL     1      24.058  22.248  19.506  1.00  0.00     0.274 HD
ENDBRANCH  12  13
ENDBRANCH  11  12
ENDBRANCH   9  11
BRANCH   9  17
HETATM   17  C4  UNL     1      24.952  18.483  16.398  1.00  0.00     0.336 C 
BRANCH  17  18
HETATM   18  C5  UNL     1      24.277  17.580  15.458  1.00  0.00     0.257 C 
HETATM   19  N3  UNL     1      25.028  17.145  14.333  1.00  0.00    -0.061 NA
HETATM   20  O1  UNL     1      23.107  17.145  15.534  1.00  0.00    -0.275 OA
ENDBRANCH  17  18
ENDBRANCH   9  17
ENDBRANCH   8   9
ENDBRANCH   1   8
BRANCH   3  21
HETATM   21  C9  UNL     1      27.884  22.036  11.699  1.00  0.00     0.130 C 
BRANCH  21  22
HETATM   22  C10 UNL     1      26.511  22.553  11.328  1.00  0.00     0.046 C 
BRANCH  22  23
HETATM   23  C11 UNL     1      25.905  21.726  10.210  1.00  0.00     0.165 C 
BRANCH  23  24
HETATM   24  O2  UNL     1      24.858  22.445   9.600  1.00  0.00    -0.401 OA
ATOM     25  H2  UNL     1      25.216  23.140   9.060  1.00  0.00     0.209 HD
ENDBRANCH  23  24
ENDBRANCH  22  23
ENDBRANCH  21  22
ENDBRANCH   3  21
BRANCH   4  26
HETATM   26  C13 UNL     1      29.035  19.483  11.032  1.00  0.00     0.058 C 
BRANCH  26  27
HETATM   27  C14 UNL     1      29.534  18.091  10.845  1.00  0.00     0.006 C 
BRANCH  27  28
HETATM   28  C15 UNL     1      30.969  17.954  10.460  1.00  0.00     0.000 C 
BRANCH  28  29
HETATM   29  C16 UNL     1      31.545  19.322  10.116  1.00  0.00     0.000 C 
BRANCH  29  30
HETATM   30  C17 UNL     1      32.740  19.580  10.982  1.00  0.00     0.005 C 
BRANCH  30  31
HETATM   31  C18 UNL     1      33.581  18.345  11.144  1.00  0.00     0.044 C 
BRANCH  31  32
HETATM   32  C19 UNL     1      34.975  18.547  10.663  1.00  0.00     0.052 C 
HETATM   33  N5  UNL     1      35.919  17.736  10.942  1.00  0.00    -0.411 N 
ATOM     34  H52 UNL     1      35.693  16.925  11.517  1.00  0.00     0.155 HD
ATOM     35  H51 UNL     1      36.874  17.875  10.612  1.00  0.00     0.155 HD
ENDBRANCH  31  32
ENDBRANCH  30  31
ENDBRANCH  29  30
ENDBRANCH  28  29
ENDBRANCH  27  28
ENDBRANCH  26  27
ENDBRANCH   4  26
TORSDOF 18
ENDMDL
MODEL 3
REMARK VINA RESULT: -5.725360002      2.900      8.151
REMARK  18 active torsions:
REMARK  status: ('A' for Active; 'I' for Inactive)
REMARK    1  A    between atoms: N1_2  and  C2_3 
REMARK    2  A    between atoms: N1_2  and  C4_9 
REMARK    3  A    between atoms: N1_2  and  C6_13 
REMARK    4  A    between atoms: C2_3  and  C3_4 
REMARK    5  A    between atoms: C3_4  and  N2_5 
REMARK    6  A    between atoms: C4_9  and  C5_10 
REMARK    7  A    between atoms: C6_13  and  C7_14 
REMARK    8  A    between atoms: N4_16  and  C9_17 
REMARK    9  A    between atoms: C9_17  and  C10_18 
REMARK   10  A    between atoms: C10_18  and  C11_19 
REMARK   11  A    between atoms: C11_19  and  O2_20 
REMARK   12  A    between atoms: C12_22  and  C13_23 
REMARK   13  A    between atoms: C13_23  and  C14_24 
REMARK   14  A    between atoms: C14_24  and  C15_25 
REMARK   15  A    between atoms: C15_25  and  C16_26 
REMARK   16  A    between atoms: C16_26  and  C17_27 
REMARK   17  A    between atoms: C17_27  and  C18_28 
REMARK   18  A    between atoms: C18_28  and  C19_29 
ROOT
HETATM    1  C7  UNL     1      29.008  19.094  11.249  1.00  0.00     0.051 A 
HETATM    2  C8  UNL     1      28.559  18.774  12.507  1.00  0.00     0.117 A 
HETATM    3  N4  UNL     1      27.840  19.659  13.268  1.00  0.00    -0.357 N 
HETATM    4  C12 UNL     1      27.549  20.877  12.803  1.00  0.00     0.026 A 
HETATM    5  C20 UNL     1      28.000  21.207  11.539  1.00  0.00     0.113 A 
HETATM    6  N6  UNL     1      28.697  20.329  10.820  1.00  0.00    -0.365 N 
ATOM      7  H6  UNL     1      29.012  20.609   9.891  1.00  0.00     0.165 HD
ENDROOT
BRANCH   1   8
HETATM    8  C6  UNL     1      29.771  18.125  10.470  1.00  0.00     0.295 C 
BRANCH   8   9
HETATM    9  N1  UNL     1      31.137  18.503  10.168  1.00  0.00    -0.056 N 
HETATM   10  C1  UNL     1      31.504  19.777  10.745  1.00  0.00     0.273 C 
BRANCH   9  11
HETATM   11  C2  UNL     1      31.227  18.630   8.741  1.00  0.00     0.265 C 
BRANCH  11  12
HETATM   12  C3  UNL     1      30.466  17.625   7.958  1.00  0.00     0.257 C 
BRANCH  12  13
HETATM   13  N2  UNL     1      31.086  17.288   6.689  1.00  0.00    -0.078 N 
ATOM     14  H23 UNL     1      30.537  17.652   5.911  1.00  0.00     0.274 HD
ATOM     15  H22 UNL     1      31.945  17.821   6.554  1.00  0.00     0.274 HD
ATOM     16  H21 UNL     1      31.258  16.289   6.572  1.00  0.00     0.274 HD
ENDBRANCH  12  13
ENDBRANCH  11  12
ENDBRANCH   9  11
BRANCH   9  17
HETATM   17  C4  UNL     1      31.990  17.473  10.706  1.00  0.00     0.336 C 
BRANCH  17  18
HETATM   18  C5  UNL     1      33.428  17.707  10.524  1.00  0.00     0.257 C 
HETATM   19  N3  UNL     1      34.029  17.144   9.366  1.00  0.00    -0.061 NA
HETATM   20  O1  UNL     1      34.191  18.352  11.276  1.00  0.00    -0.275 OA
ENDBRANCH  17  18
ENDBRANCH   9  17
ENDBRANCH   8   9
ENDBRANCH   1   8
BRANCH   3  21
HETATM   21  C9  UNL     1      27.420  19.256  14.582  1.00  0.00     0.130 C 
BRANCH  21  22
HETATM   22  C10 UNL     1      27.309  17.750  14.658  1.00  0.00     0.046 C 
BRANCH  22  23
HETATM   23  C11 UNL     1      25.885  17.325  14.961  1.00  0.00     0.165 C 
BRANCH  23  24
HETATM   24  O2  UNL     1      25.000  17.943  14.055  1.00  0.00    -0.401 OA
ATOM     25  H2  UNL     1      25.169  18.877  14.026  1.00  0.00     0.209 HD
ENDBRANCH  23  24
ENDBRANCH  22  23
ENDBRANCH  21  22
ENDBRANCH   3  21
BRANCH   4  26
HETATM   26  C13 UNL     1      26.806  21.889  13.591  1.00  0.00     0.058 C 
BRANCH  26  27
HETATM   27  C14 UNL     1      27.404  23.253  13.617  1.00  0.00     0.006 C 
BRANCH  27  28
HETATM   28  C15 UNL     1      27.642  23.841  14.967  1.00  0.00     0.000 C 
BRANCH  28  29
HETATM   29  C16 UNL     1      27.999  25.317  14.833  1.00  0.00     0.000 C 
BRANCH  29  30
HETATM   30  C17 UNL     1      27.137  25.933  13.775  1.00  0.00     0.005 C 
BRANCH  30  31
HETATM   31  C18 UNL     1      27.946  26.763  12.818  1.00  0.00     0.044 C 
BRANCH  31  32
HETATM   32  C19 UNL     1      27.574  26.506  11.399  1.00  0.00     0.052 C 
HETATM   33  N5  UNL     1      27.829  25.402  10.815  1.00  0.00    -0.411 N 
ATOM     34  H52 UNL     1      28.306  24.678  11.353  1.00  0.00     0.155 HD
ATOM     35  H51 UNL     1      27.574  25.226   9.843  1.00  0.00     0.155 HD
ENDBRANCH  31  32
ENDBRANCH  30  31
ENDBRANCH  29  30
ENDBRANCH  28  29
ENDBRANCH  27  28
ENDBRANCH  26  27
ENDBRANCH   4  26
TORSDOF 18
ENDMDL
MODEL 4
REMARK VINA RESULT: -5.711861863      2.886      8.131
REMARK  18 active torsions:
REMARK  status: ('A' for Active; 'I' for Inactive)
REMARK    1  A    between atoms: N1_2  and  C2_3 
REMARK    2  A    between atoms: N1_2  and  C4_9 
REMARK    3  A    between atoms: N1_2  and  C6_13 
REMARK    4  A    between atoms: C2_3  and  C3_4 
REMARK    5  A    between atoms: C3_4  and  N2_5 
REMARK    6  A    between atoms: C4_9  and  C5_10 
REMARK    7  A    between atoms: C6_13  and  C7_14 
REMARK    8  A    between atoms: N4_16  and  C9_17 
REMARK    9  A    between atoms: C9_17  and  C10_18 
REMARK   10  A    between atoms: C10_18  and  C11_19 
REMARK   11  A    between atoms: C11_19  and  O2_20 
REMARK   12  A    between atoms: C12_22  and  C13_23 
REMARK   13  A    between atoms: C13_23  and  C14_24 
REMARK   14  A    between atoms: C14_24  and  C15_25 
REMARK   15  A    between atoms: C15_25  and  C16_26 
REMARK   16  A    between atoms: C16_26  and  C17_27 
REMARK   17  A    between atoms: C17_27  and  C18_28 
REMARK   18  A    between atoms: C18_28  and  C19_29 
ROOT
HETATM    1  C7  UNL     1      28.947  19.227  11.005  1.00  0.00     0.051 A 
HETATM    2  C8  UNL     1      28.581  18.828  12.267  1.00  0.00     0.117 A 
HETATM    3  N4  UNL     1      27.943  19.671  13.140  1.00  0.00    -0.357 N 
HETATM    4  C12 UNL     1      27.653  20.926  12.784  1.00  0.00     0.026 A 
HETATM    5  C20 UNL     1      28.020  21.336  11.516  1.00  0.00     0.113 A 
HETATM    6  N6  UNL     1      28.639  20.497  10.687  1.00  0.00    -0.365 N 
ATOM      7  H6  UNL     1      28.893  20.837   9.760  1.00  0.00     0.165 HD
ENDROOT
BRANCH   1   8
HETATM    8  C6  UNL     1      29.624  18.301  10.105  1.00  0.00     0.295 C 
BRANCH   8   9
HETATM    9  N1  UNL     1      31.067  18.432  10.045  1.00  0.00    -0.056 N 
HETATM   10  C1  UNL     1      31.664  18.622  11.348  1.00  0.00     0.273 C 
BRANCH   9  11
HETATM   11  C2  UNL     1      31.346  19.604   9.264  1.00  0.00     0.265 C 
BRANCH  11  12
HETATM   12  C3  UNL     1      32.428  20.477   9.781  1.00  0.00     0.257 C 
BRANCH  12  13
HETATM   13  N2  UNL     1      33.653  20.405   9.004  1.00  0.00    -0.078 N 
ATOM     14  H23 UNL     1      34.237  19.633   9.322  1.00  0.00     0.274 HD
ATOM     15  H22 UNL     1      33.459  20.091   8.054  1.00  0.00     0.274 HD
ATOM     16  H21 UNL     1      34.182  21.278   8.996  1.00  0.00     0.274 HD
ENDBRANCH  12  13
ENDBRANCH  11  12
ENDBRANCH   9  11
BRANCH   9  17
HETATM   17  C4  UNL     1      31.578  17.218   9.458  1.00  0.00     0.336 C 
BRANCH  17  18
HETATM   18  C5  UNL     1      32.047  17.355   8.074  1.00  0.00     0.257 C 
HETATM   19  N3  UNL     1      33.454  17.389   7.873  1.00  0.00    -0.061 NA
HETATM   20  O1  UNL     1      31.346  17.444   7.042  1.00  0.00    -0.275 OA
ENDBRANCH  17  18
ENDBRANCH   9  17
ENDBRANCH   8   9
ENDBRANCH   1   8
BRANCH   3  21
HETATM   21  C9  UNL     1      27.608  19.184  14.450  1.00  0.00     0.130 C 
BRANCH  21  22
HETATM   22  C10 UNL     1      27.336  17.697  14.401  1.00  0.00     0.046 C 
BRANCH  22  23
HETATM   23  C11 UNL     1      25.957  17.380  14.946  1.00  0.00     0.165 C 
BRANCH  23  24
HETATM   24  O2  UNL     1      24.972  17.893  14.079  1.00  0.00    -0.401 OA
ATOM     25  H2  UNL     1      25.333  17.995  13.206  1.00  0.00     0.209 HD
ENDBRANCH  23  24
ENDBRANCH  22  23
ENDBRANCH  21  22
ENDBRANCH   3  21
BRANCH   4  26
HETATM   26  C13 UNL     1      26.996  21.893  13.694  1.00  0.00     0.058 C 
BRANCH  26  27
HETATM   27  C14 UNL     1      26.478  23.134  13.052  1.00  0.00     0.006 C 
BRANCH  27  28
HETATM   28  C15 UNL     1      27.118  24.412  13.479  1.00  0.00     0.000 C 
BRANCH  28  29
HETATM   29  C16 UNL     1      27.146  25.392  12.312  1.00  0.00     0.000 C 
BRANCH  29  30
HETATM   30  C17 UNL     1      28.136  26.475  12.608  1.00  0.00     0.005 C 
BRANCH  30  31
HETATM   31  C18 UNL     1      28.456  26.544  14.075  1.00  0.00     0.044 C 
BRANCH  31  32
HETATM   32  C19 UNL     1      29.437  27.620  14.386  1.00  0.00     0.052 C 
HETATM   33  N5  UNL     1      30.630  27.609  13.934  1.00  0.00    -0.411 N 
ATOM     34  H52 UNL     1      30.905  26.827  13.340  1.00  0.00     0.155 HD
ATOM     35  H51 UNL     1      31.302  28.346  14.147  1.00  0.00     0.155 HD
ENDBRANCH  31  32
ENDBRANCH  30  31
ENDBRANCH  29  30
ENDBRANCH  28  29
ENDBRANCH  27  28
ENDBRANCH  26  27
ENDBRANCH   4  26
TORSDOF 18
ENDMDL
MODEL 5
REMARK VINA RESULT: -5.633484277      2.906      8.031
REMARK  18 active torsions:
REMARK  status: ('A' for Active; 'I' for Inactive)
REMARK    1  A    between atoms: N1_2  and  C2_3 
REMARK    2  A    between atoms: N1_2  and  C4_9 
REMARK    3  A    between atoms: N1_2  and  C6_13 
REMARK    4  A    between atoms: C2_3  and  C3_4 
REMARK    5  A    between atoms: C3_4  and  N2_5 
REMARK    6  A    between atoms: C4_9  and  C5_10 
REMARK    7  A    between atoms: C6_13  and  C7_14 
REMARK    8  A    between atoms: N4_16  and  C9_17 
REMARK    9  A    between atoms: C9_17  and  C10_18 
REMARK   10  A    between atoms: C10_18  and  C11_19 
REMARK   11  A    between atoms: C11_19  and  O2_20 
REMARK   12  A    between atoms: C12_22  and  C13_23 
REMARK   13  A    between atoms: C13_23  and  C14_24 
REMARK   14  A    between atoms: C14_24  and  C15_25 
REMARK   15  A    between atoms: C15_25  and  C16_26 
REMARK   16  A    between atoms: C16_26  and  C17_27 
REMARK   17  A    between atoms: C17_27  and  C18_28 
REMARK   18  A    between atoms: C18_28  and  C19_29 
ROOT
HETATM    1  C7  UNL     1      28.779  19.242  11.536  1.00  0.00     0.051 A 
HETATM    2  C8  UNL     1      28.389  19.112  12.847  1.00  0.00     0.117 A 
HETATM    3  N4  UNL     1      27.729  20.113  13.512  1.00  0.00    -0.357 N 
HETATM    4  C12 UNL     1      27.438  21.262  12.896  1.00  0.00     0.026 A 
HETATM    5  C20 UNL     1      27.829  21.401  11.577  1.00  0.00     0.113 A 
HETATM    6  N6  UNL     1      28.469  20.414  10.954  1.00  0.00    -0.365 N 
ATOM      7  H6  UNL     1      28.741  20.554   9.982  1.00  0.00     0.165 HD
ENDROOT
BRANCH   1   8
HETATM    8  C6  UNL     1      29.480  18.155  10.864  1.00  0.00     0.295 C 
BRANCH   8   9
HETATM    9  N1  UNL     1      30.794  18.485  10.347  1.00  0.00    -0.056 N 
HETATM   10  C1  UNL     1      31.818  18.457  11.366  1.00  0.00     0.273 C 
BRANCH   9  11
HETATM   11  C2  UNL     1      30.717  19.828   9.845  1.00  0.00     0.265 C 
BRANCH  11  12
HETATM   12  C3  UNL     1      32.011  20.545   9.728  1.00  0.00     0.257 C 
BRANCH  12  13
HETATM   13  N2  UNL     1      32.484  20.670   8.361  1.00  0.00    -0.078 N 
ATOM     14  H23 UNL     1      31.700  20.760   7.715  1.00  0.00     0.274 HD
ATOM     15  H22 UNL     1      32.928  21.577   8.214  1.00  0.00     0.274 HD
ATOM     16  H21 UNL     1      33.104  19.913   8.073  1.00  0.00     0.274 HD
ENDBRANCH  12  13
ENDBRANCH  11  12
ENDBRANCH   9  11
BRANCH   9  17
HETATM   17  C4  UNL     1      31.105  17.512   9.330  1.00  0.00     0.336 C 
BRANCH  17  18
HETATM   18  C5  UNL     1      30.360  17.673   8.075  1.00  0.00     0.257 C 
HETATM   19  N3  UNL     1      31.119  17.974   6.912  1.00  0.00    -0.061 NA
HETATM   20  O1  UNL     1      29.125  17.573   7.910  1.00  0.00    -0.275 OA
ENDBRANCH  17  18
ENDBRANCH   9  17
ENDBRANCH   8   9
ENDBRANCH   1   8
BRANCH   3  21
HETATM   21  C9  UNL     1      27.370  19.908  14.888  1.00  0.00     0.130 C 
BRANCH  21  22
HETATM   22  C10 UNL     1      27.259  18.429  15.185  1.00  0.00     0.046 C 
BRANCH  22  23
HETATM   23  C11 UNL     1      27.232  18.177  16.680  1.00  0.00     0.165 C 
BRANCH  23  24
HETATM   24  O2  UNL     1      27.959  19.184  17.347  1.00  0.00    -0.401 OA
ATOM     25  H2  UNL     1      28.020  18.978  18.273  1.00  0.00     0.209 HD
ENDBRANCH  23  24
ENDBRANCH  22  23
ENDBRANCH  21  22
ENDBRANCH   3  21
BRANCH   4  26
HETATM   26  C13 UNL     1      26.757  22.393  13.570  1.00  0.00     0.058 C 
BRANCH  26  27
HETATM   27  C14 UNL     1      27.537  23.660  13.650  1.00  0.00     0.006 C 
BRANCH  27  28
HETATM   28  C15 UNL     1      26.934  24.846  12.975  1.00  0.00     0.000 C 
BRANCH  28  29
HETATM   29  C16 UNL     1      27.524  26.127  13.555  1.00  0.00     0.000 C 
BRANCH  29  30
HETATM   30  C17 UNL     1      27.823  27.076  12.437  1.00  0.00     0.005 C 
BRANCH  30  31
HETATM   31  C18 UNL     1      26.803  26.973  11.338  1.00  0.00     0.044 C 
BRANCH  31  32
HETATM   32  C19 UNL     1      26.380  28.310  10.837  1.00  0.00     0.052 C 
HETATM   33  N5  UNL     1      25.215  28.783  11.051  1.00  0.00    -0.411 N 
ATOM     34  H52 UNL     1      24.561  28.211  11.586  1.00  0.00     0.155 HD
ATOM     35  H51 UNL     1      24.925  29.699  10.708  1.00  0.00     0.155 HD
ENDBRANCH  31  32
ENDBRANCH  30  31
ENDBRANCH  29  30
ENDBRANCH  28  29
ENDBRANCH  27  28
ENDBRANCH  26  27
ENDBRANCH   4  26
TORSDOF 18
ENDMDL
