MODEL 1
REMARK VINA RESULT: -6.809743399      0.000      0.000
REMARK  17 active torsions:
REMARK  status: ('A' for Active; 'I' for Inactive)
REMARK    1  A    between atoms: C2_2  and  C3_3 
REMARK    2  A    between atoms: C3_3  and  N1_4 
REMARK    3  A    between atoms: N1_4  and  C4_5 
REMARK    4  A    between atoms: N1_4  and  C8_9 
REMARK    5  A    between atoms: C4_5  and  C5_6 
REMARK    6  A    between atoms: C5_6  and  C6_7 
REMARK    7  A    between atoms: C8_9  and  C9_10 
REMARK    8  A    between atoms: C8_9  and  C11_12 
REMARK    9  A    between atoms: C11_12  and  C12_13 
REMARK   10  A    between atoms: C12_13  and  S1_14 
REMARK   11  A    between atoms: S1_14  and  S2_15 
REMARK   12  A    between atoms: S2_15  and  C13_16 
REMARK   13  A    between atoms: C14_18  and  C15_19 
REMARK   14  A    between atoms: C15_19  and  O2_20 
REMARK   15  A    between atoms: C16_22  and  O3_23 
REMARK   16  A    between atoms: C17_25  and  O4_26 
REMARK   17  A    between atoms: C18_28  and  O5_29 
ROOT
HETATM    1  C13 UNL     1      12.890  38.017  61.303  1.00  0.00     0.225 C 
HETATM    2  O1  UNL     1      11.980  38.985  60.987  1.00  0.00    -0.362 OA
HETATM    3  C14 UNL     1      10.805  38.955  61.694  1.00  0.00     0.178 C 
HETATM    4  C16 UNL     1      10.216  37.542  61.601  1.00  0.00     0.180 C 
HETATM    5  C17 UNL     1      11.184  36.499  62.113  1.00  0.00     0.181 C 
HETATM    6  C18 UNL     1      12.453  37.263  62.526  1.00  0.00     0.189 C 
ENDROOT
BRANCH   1   7
HETATM    7  S2  UNL     1      14.580  38.664  61.389  1.00  0.00    -0.063 SA
BRANCH   7   8
HETATM    8  S1  UNL     1      15.756  37.482  60.036  1.00  0.00    -0.095 SA
BRANCH   8   9
HETATM    9  C12 UNL     1      16.758  36.296  61.053  1.00  0.00     0.088 C 
BRANCH   9  10
HETATM   10  C11 UNL     1      18.155  36.293  60.566  1.00  0.00     0.047 C 
BRANCH  10  11
HETATM   11  C8  UNL     1      18.436  36.044  59.132  1.00  0.00     0.223 C 
BRANCH  11  12
HETATM   12  N1  UNL     1      19.482  37.055  58.675  1.00  0.00     0.096 N 
BRANCH  12  13
HETATM   13  C3  UNL     1      20.736  36.437  58.952  1.00  0.00     0.299 C 
BRANCH  13  14
HETATM   14  C2  UNL     1      21.621  37.230  59.814  1.00  0.00    -0.007 C 
HETATM   15  C1  UNL     1      22.042  38.442  59.572  1.00  0.00     0.008 C 
ENDBRANCH  13  14
ENDBRANCH  12  13
BRANCH  12  16
HETATM   16  C4  UNL     1      19.287  37.269  57.263  1.00  0.00     0.273 C 
BRANCH  16  17
HETATM   17  C5  UNL     1      18.257  38.369  57.058  1.00  0.00     0.030 C 
BRANCH  17  18
HETATM   18  C6  UNL     1      18.683  39.593  57.875  1.00  0.00    -0.003 C 
HETATM   19  C7  UNL     1      17.466  40.409  58.201  1.00  0.00     0.005 C 
ENDBRANCH  17  18
ENDBRANCH  16  17
ENDBRANCH  12  16
ENDBRANCH  11  12
BRANCH  11  20
HETATM   20  C9  UNL     1      19.104  34.704  58.895  1.00  0.00     0.031 C 
HETATM   21  C10 UNL     1      18.271  33.487  59.036  1.00  0.00     0.007 C 
ENDBRANCH  11  20
ENDBRANCH  10  11
ENDBRANCH   9  10
ENDBRANCH   8   9
ENDBRANCH   7   8
ENDBRANCH   1   7
BRANCH   6  22
HETATM   22  O5  UNL     1      13.433  36.338  62.938  1.00  0.00    -0.389 OA
ATOM     23  H5  UNL     1      13.576  36.379  63.876  1.00  0.00     0.210 HD
ENDBRANCH   6  22
BRANCH   3  24
HETATM   24  C15 UNL     1       9.812  39.870  60.967  1.00  0.00     0.198 C 
BRANCH  24  25
HETATM   25  O2  UNL     1       8.730  40.195  61.770  1.00  0.00    -0.398 OA
ATOM     26  H2  UNL     1       8.044  39.539  61.719  1.00  0.00     0.209 HD
ENDBRANCH  24  25
ENDBRANCH   3  24
BRANCH   5  27
HETATM   27  O4  UNL     1      10.667  35.735  63.127  1.00  0.00    -0.390 OA
ATOM     28  H4  UNL     1      11.312  35.167  63.534  1.00  0.00     0.210 HD
ENDBRANCH   5  27
BRANCH   4  29
HETATM   29  O3  UNL     1       9.017  37.420  62.260  1.00  0.00    -0.390 OA
ATOM     30  H3  UNL     1       8.415  36.830  61.823  1.00  0.00     0.210 HD
ENDBRANCH   4  29
TORSDOF 17
ENDMDL
MODEL 2
REMARK VINA RESULT: -6.728942302      1.016      1.478
REMARK  17 active torsions:
REMARK  status: ('A' for Active; 'I' for Inactive)
REMARK    1  A    between atoms: C2_2  and  C3_3 
REMARK    2  A    between atoms: C3_3  and  N1_4 
REMARK    3  A    between atoms: N1_4  and  C4_5 
REMARK    4  A    between atoms: N1_4  and  C8_9 
REMARK    5  A    between atoms: C4_5  and  C5_6 
REMARK    6  A    between atoms: C5_6  and  C6_7 
REMARK    7  A    between atoms: C8_9  and  C9_10 
REMARK    8  A    between atoms: C8_9  and  C11_12 
REMARK    9  A    between atoms: C11_12  and  C12_13 
REMARK   10  A    between atoms: C12_13  and  S1_14 
REMARK   11  A    between atoms: S1_14  and  S2_15 
REMARK   12  A    between atoms: S2_15  and  C13_16 
REMARK   13  A    between atoms: C14_18  and  C15_19 
REMARK   14  A    between atoms: C15_19  and  O2_20 
REMARK   15  A    between atoms: C16_22  and  O3_23 
REMARK   16  A    between atoms: C17_25  and  O4_26 
REMARK   17  A    between atoms: C18_28  and  O5_29 
ROOT
HETATM    1  C13 UNL     1      12.872  38.050  61.305  1.00  0.00     0.225 C 
HETATM    2  O1  UNL     1      11.926  38.991  61.015  1.00  0.00    -0.362 OA
HETATM    3  C14 UNL     1      10.759  38.906  61.730  1.00  0.00     0.178 C 
HETATM    4  C16 UNL     1      10.219  37.475  61.615  1.00  0.00     0.180 C 
HETATM    5  C17 UNL     1      11.228  36.458  62.100  1.00  0.00     0.181 C 
HETATM    6  C18 UNL     1      12.473  37.258  62.517  1.00  0.00     0.189 C 
ENDROOT
BRANCH   1   7
HETATM    7  S2  UNL     1      14.538  38.755  61.389  1.00  0.00    -0.063 SA
BRANCH   7   8
HETATM    8  S1  UNL     1      15.768  37.575  60.082  1.00  0.00    -0.095 SA
BRANCH   8   9
HETATM    9  C12 UNL     1      16.863  36.518  61.145  1.00  0.00     0.088 C 
BRANCH   9  10
HETATM   10  C11 UNL     1      18.191  36.392  60.506  1.00  0.00     0.047 C 
BRANCH  10  11
HETATM   11  C8  UNL     1      18.289  36.028  59.073  1.00  0.00     0.223 C 
BRANCH  11  12
HETATM   12  N1  UNL     1      19.125  37.093  58.373  1.00  0.00     0.096 N 
BRANCH  12  13
HETATM   13  C3  UNL     1      20.464  36.846  58.794  1.00  0.00     0.299 C 
BRANCH  13  14
HETATM   14  C2  UNL     1      21.294  38.051  58.901  1.00  0.00    -0.007 C 
HETATM   15  C1  UNL     1      22.191  38.285  59.820  1.00  0.00     0.008 C 
ENDBRANCH  13  14
ENDBRANCH  12  13
BRANCH  12  16
HETATM   16  C4  UNL     1      18.964  36.904  56.953  1.00  0.00     0.273 C 
BRANCH  16  17
HETATM   17  C5  UNL     1      17.548  37.291  56.551  1.00  0.00     0.030 C 
BRANCH  17  18
HETATM   18  C6  UNL     1      17.096  36.369  55.415  1.00  0.00    -0.003 C 
HETATM   19  C7  UNL     1      16.341  35.210  55.999  1.00  0.00     0.005 C 
ENDBRANCH  17  18
ENDBRANCH  16  17
ENDBRANCH  12  16
ENDBRANCH  11  12
BRANCH  11  20
HETATM   20  C9  UNL     1      19.076  34.751  58.851  1.00  0.00     0.031 C 
HETATM   21  C10 UNL     1      18.335  33.469  58.915  1.00  0.00     0.007 C 
ENDBRANCH  11  20
ENDBRANCH  10  11
ENDBRANCH   9  10
ENDBRANCH   8   9
ENDBRANCH   7   8
ENDBRANCH   1   7
BRANCH   6  22
HETATM   22  O5  UNL     1      13.489  36.361  62.903  1.00  0.00    -0.389 OA
ATOM     23  H5  UNL     1      13.303  35.971  63.749  1.00  0.00     0.210 HD
ENDBRANCH   6  22
BRANCH   3  24
HETATM   24  C15 UNL     1       9.727  39.798  61.029  1.00  0.00     0.198 C 
BRANCH  24  25
HETATM   25  O2  UNL     1       8.657  40.097  61.858  1.00  0.00    -0.398 OA
ATOM     26  H2  UNL     1       8.900  40.052  62.775  1.00  0.00     0.209 HD
ENDBRANCH  24  25
ENDBRANCH   3  24
BRANCH   5  27
HETATM   27  O4  UNL     1      10.748  35.657  63.103  1.00  0.00    -0.390 OA
ATOM     28  H4  UNL     1      10.872  34.730  62.934  1.00  0.00     0.210 HD
ENDBRANCH   5  27
BRANCH   4  29
HETATM   29  O3  UNL     1       9.032  37.298  62.282  1.00  0.00    -0.390 OA
ATOM     30  H3  UNL     1       8.274  37.391  61.716  1.00  0.00     0.210 HD
ENDBRANCH   4  29
TORSDOF 17
ENDMDL
MODEL 3
REMARK VINA RESULT: -6.645140552      1.342      2.091
REMARK  17 active torsions:
REMARK  status: ('A' for Active; 'I' for Inactive)
REMARK    1  A    between atoms: C2_2  and  C3_3 
REMARK    2  A    between atoms: C3_3  and  N1_4 
REMARK    3  A    between atoms: N1_4  and  C4_5 
REMARK    4  A    between atoms: N1_4  and  C8_9 
REMARK    5  A    between atoms: C4_5  and  C5_6 
REMARK    6  A    between atoms: C5_6  and  C6_7 
REMARK    7  A    between atoms: C8_9  and  C9_10 
REMARK    8  A    between atoms: C8_9  and  C11_12 
REMARK    9  A    between atoms: C11_12  and  C12_13 
REMARK   10  A    between atoms: C12_13  and  S1_14 
REMARK   11  A    between atoms: S1_14  and  S2_15 
REMARK   12  A    between atoms: S2_15  and  C13_16 
REMARK   13  A    between atoms: C14_18  and  C15_19 
REMARK   14  A    between atoms: C15_19  and  O2_20 
REMARK   15  A    between atoms: C16_22  and  O3_23 
REMARK   16  A    between atoms: C17_25  and  O4_26 
REMARK   17  A    between atoms: C18_28  and  O5_29 
ROOT
HETATM    1  C13 UNL     1      12.771  37.944  61.315  1.00  0.00     0.225 C 
HETATM    2  O1  UNL     1      11.886  38.935  61.001  1.00  0.00    -0.362 OA
HETATM    3  C14 UNL     1      10.725  38.954  61.730  1.00  0.00     0.178 C 
HETATM    4  C16 UNL     1      10.089  37.559  61.672  1.00  0.00     0.180 C 
HETATM    5  C17 UNL     1      11.034  36.494  62.183  1.00  0.00     0.181 C 
HETATM    6  C18 UNL     1      12.335  37.224  62.559  1.00  0.00     0.189 C 
ENDROOT
BRANCH   1   7
HETATM    7  S2  UNL     1      14.481  38.537  61.357  1.00  0.00    -0.063 SA
BRANCH   7   8
HETATM    8  S1  UNL     1      15.633  37.169  60.169  1.00  0.00    -0.095 SA
BRANCH   8   9
HETATM    9  C12 UNL     1      17.144  36.713  61.145  1.00  0.00     0.088 C 
BRANCH   9  10
HETATM   10  C11 UNL     1      18.247  36.387  60.215  1.00  0.00     0.047 C 
BRANCH  10  11
HETATM   11  C8  UNL     1      17.944  35.834  58.874  1.00  0.00     0.223 C 
BRANCH  11  12
HETATM   12  N1  UNL     1      18.353  36.869  57.834  1.00  0.00     0.096 N 
BRANCH  12  13
HETATM   13  C3  UNL     1      19.647  37.307  58.239  1.00  0.00     0.299 C 
BRANCH  13  14
HETATM   14  C2  UNL     1      19.923  38.719  57.953  1.00  0.00    -0.007 C 
HETATM   15  C1  UNL     1      19.032  39.638  57.697  1.00  0.00     0.008 C 
ENDBRANCH  13  14
ENDBRANCH  12  13
BRANCH  12  16
HETATM   16  C4  UNL     1      18.385  36.207  56.555  1.00  0.00     0.273 C 
BRANCH  16  17
HETATM   17  C5  UNL     1      17.064  36.437  55.835  1.00  0.00     0.030 C 
BRANCH  17  18
HETATM   18  C6  UNL     1      16.664  35.140  55.127  1.00  0.00    -0.003 C 
HETATM   19  C7  UNL     1      15.930  34.260  56.097  1.00  0.00     0.005 C 
ENDBRANCH  17  18
ENDBRANCH  16  17
ENDBRANCH  12  16
ENDBRANCH  11  12
BRANCH  11  20
HETATM   20  C9  UNL     1      18.799  34.628  58.536  1.00  0.00     0.031 C 
HETATM   21  C10 UNL     1      18.341  33.305  59.022  1.00  0.00     0.007 C 
ENDBRANCH  11  20
ENDBRANCH  10  11
ENDBRANCH   9  10
ENDBRANCH   8   9
ENDBRANCH   7   8
ENDBRANCH   1   7
BRANCH   6  22
HETATM   22  O5  UNL     1      13.293  36.275  62.967  1.00  0.00    -0.389 OA
ATOM     23  H5  UNL     1      13.562  36.419  63.867  1.00  0.00     0.210 HD
ENDBRANCH   6  22
BRANCH   3  24
HETATM   24  C15 UNL     1       9.746  39.887  61.007  1.00  0.00     0.198 C 
BRANCH  24  25
HETATM   25  O2  UNL     1       8.648  40.192  61.796  1.00  0.00    -0.398 OA
ATOM     26  H2  UNL     1       8.702  41.073  62.149  1.00  0.00     0.209 HD
ENDBRANCH  24  25
ENDBRANCH   3  24
BRANCH   5  27
HETATM   27  O4  UNL     1      10.514  35.763  63.220  1.00  0.00    -0.390 OA
ATOM     28  H4  UNL     1      11.112  35.102  63.548  1.00  0.00     0.210 HD
ENDBRANCH   5  27
BRANCH   4  29
HETATM   29  O3  UNL     1       8.901  37.486  62.356  1.00  0.00    -0.390 OA
ATOM     30  H3  UNL     1       8.339  38.237  62.202  1.00  0.00     0.210 HD
ENDBRANCH   4  29
TORSDOF 17
ENDMDL
MODEL 4
REMARK VINA RESULT: -6.590658359      0.624      2.156
REMARK  17 active torsions:
REMARK  status: ('A' for Active; 'I' for Inactive)
REMARK    1  A    between atoms: C2_2  and  C3_3 
REMARK    2  A    between atoms: C3_3  and  N1_4 
REMARK    3  A    between atoms: N1_4  and  C4_5 
REMARK    4  A    between atoms: N1_4  and  C8_9 
REMARK    5  A    between atoms: C4_5  and  C5_6 
REMARK    6  A    between atoms: C5_6  and  C6_7 
REMARK    7  A    between atoms: C8_9  and  C9_10 
REMARK    8  A    between atoms: C8_9  and  C11_12 
REMARK    9  A    between atoms: C11_12  and  C12_13 
REMARK   10  A    between atoms: C12_13  and  S1_14 
REMARK   11  A    between atoms: S1_14  and  S2_15 
REMARK   12  A    between atoms: S2_15  and  C13_16 
REMARK   13  A    between atoms: C14_18  and  C15_19 
REMARK   14  A    between atoms: C15_19  and  O2_20 
REMARK   15  A    between atoms: C16_22  and  O3_23 
REMARK   16  A    between atoms: C17_25  and  O4_26 
REMARK   17  A    between atoms: C18_28  and  O5_29 
ROOT
HETATM    1  C13 UNL     1      12.961  37.966  61.342  1.00  0.00     0.225 C 
HETATM    2  O1  UNL     1      12.047  38.927  61.013  1.00  0.00    -0.362 OA
HETATM    3  C14 UNL     1      10.858  38.880  61.694  1.00  0.00     0.178 C 
HETATM    4  C16 UNL     1      10.286  37.461  61.580  1.00  0.00     0.180 C 
HETATM    5  C17 UNL     1      11.254  36.426  62.106  1.00  0.00     0.181 C 
HETATM    6  C18 UNL     1      12.506  37.200  62.550  1.00  0.00     0.189 C 
ENDROOT
BRANCH   1   7
HETATM    7  S2  UNL     1      14.641  38.630  61.467  1.00  0.00    -0.063 SA
BRANCH   7   8
HETATM    8  S1  UNL     1      15.847  37.507  60.090  1.00  0.00    -0.095 SA
BRANCH   8   9
HETATM    9  C12 UNL     1      17.026  36.478  61.087  1.00  0.00     0.088 C 
BRANCH   9  10
HETATM   10  C11 UNL     1      18.221  36.173  60.269  1.00  0.00     0.047 C 
BRANCH  10  11
HETATM   11  C8  UNL     1      18.061  35.761  58.854  1.00  0.00     0.223 C 
BRANCH  11  12
HETATM   12  N1  UNL     1      19.183  36.403  58.047  1.00  0.00     0.096 N 
BRANCH  12  13
HETATM   13  C3  UNL     1      18.575  37.509  57.387  1.00  0.00     0.299 C 
BRANCH  13  14
HETATM   14  C2  UNL     1      19.012  38.820  57.880  1.00  0.00    -0.007 C 
HETATM   15  C1  UNL     1      18.305  39.917  57.874  1.00  0.00     0.008 C 
ENDBRANCH  13  14
ENDBRANCH  12  13
BRANCH  12  16
HETATM   16  C4  UNL     1      20.199  36.823  58.979  1.00  0.00     0.273 C 
BRANCH  16  17
HETATM   17  C5  UNL     1      21.510  36.130  58.642  1.00  0.00     0.030 C 
BRANCH  17  18
HETATM   18  C6  UNL     1      22.664  37.069  59.005  1.00  0.00    -0.003 C 
HETATM   19  C7  UNL     1      22.129  38.201  59.834  1.00  0.00     0.005 C 
ENDBRANCH  17  18
ENDBRANCH  16  17
ENDBRANCH  12  16
ENDBRANCH  11  12
BRANCH  11  20
HETATM   20  C9  UNL     1      18.280  34.274  58.654  1.00  0.00     0.031 C 
HETATM   21  C10 UNL     1      18.101  33.732  57.287  1.00  0.00     0.007 C 
ENDBRANCH  11  20
ENDBRANCH  10  11
ENDBRANCH   9  10
ENDBRANCH   8   9
ENDBRANCH   7   8
ENDBRANCH   1   7
BRANCH   6  22
HETATM   22  O5  UNL     1      13.487  36.283  62.978  1.00  0.00    -0.389 OA
ATOM     23  H5  UNL     1      14.321  36.442  62.551  1.00  0.00     0.210 HD
ENDBRANCH   6  22
BRANCH   3  24
HETATM   24  C15 UNL     1       9.870  39.788  60.952  1.00  0.00     0.198 C 
BRANCH  24  25
HETATM   25  O2  UNL     1       8.785  40.125  61.745  1.00  0.00    -0.398 OA
ATOM     26  H2  UNL     1       8.575  41.049  61.680  1.00  0.00     0.209 HD
ENDBRANCH  24  25
ENDBRANCH   3  24
BRANCH   5  27
HETATM   27  O4  UNL     1      10.724  35.649  63.104  1.00  0.00    -0.390 OA
ATOM     28  H4  UNL     1       9.813  35.422  62.957  1.00  0.00     0.210 HD
ENDBRANCH   5  27
BRANCH   4  29
HETATM   29  O3  UNL     1       9.075  37.323  62.213  1.00  0.00    -0.390 OA
ATOM     30  H3  UNL     1       8.385  37.834  61.806  1.00  0.00     0.210 HD
ENDBRANCH   4  29
TORSDOF 17
ENDMDL
MODEL 5
REMARK VINA RESULT: -6.493721796      1.053      2.562
REMARK  17 active torsions:
REMARK  status: ('A' for Active; 'I' for Inactive)
REMARK    1  A    between atoms: C2_2  and  C3_3 
REMARK    2  A    between atoms: C3_3  and  N1_4 
REMARK    3  A    between atoms: N1_4  and  C4_5 
REMARK    4  A    between atoms: N1_4  and  C8_9 
REMARK    5  A    between atoms: C4_5  and  C5_6 
REMARK    6  A    between atoms: C5_6  and  C6_7 
REMARK    7  A    between atoms: C8_9  and  C9_10 
REMARK    8  A    between atoms: C8_9  and  C11_12 
REMARK    9  A    between atoms: C11_12  and  C12_13 
REMARK   10  A    between atoms: C12_13  and  S1_14 
REMARK   11  A    between atoms: S1_14  and  S2_15 
REMARK   12  A    between atoms: S2_15  and  C13_16 
REMARK   13  A    between atoms: C14_18  and  C15_19 
REMARK   14  A    between atoms: C15_19  and  O2_20 
REMARK   15  A    between atoms: C16_22  and  O3_23 
REMARK   16  A    between atoms: C17_25  and  O4_26 
REMARK   17  A    between atoms: C18_28  and  O5_29 
ROOT
HETATM    1  C13 UNL     1      12.988  37.850  61.466  1.00  0.00     0.225 C 
HETATM    2  O1  UNL     1      12.097  38.823  61.110  1.00  0.00    -0.362 OA
HETATM    3  C14 UNL     1      10.886  38.790  61.754  1.00  0.00     0.178 C 
HETATM    4  C16 UNL     1      10.301  37.378  61.620  1.00  0.00     0.180 C 
HETATM    5  C17 UNL     1      11.240  36.330  62.174  1.00  0.00     0.181 C 
HETATM    6  C18 UNL     1      12.487  37.088  62.658  1.00  0.00     0.189 C 
ENDROOT
BRANCH   1   7
HETATM    7  S2  UNL     1      14.671  38.493  61.644  1.00  0.00    -0.063 SA
BRANCH   7   8
HETATM    8  S1  UNL     1      15.837  37.599  60.078  1.00  0.00    -0.095 SA
BRANCH   8   9
HETATM    9  C12 UNL     1      17.094  36.492  60.877  1.00  0.00     0.088 C 
BRANCH   9  10
HETATM   10  C11 UNL     1      18.275  36.375  59.993  1.00  0.00     0.047 C 
BRANCH  10  11
HETATM   11  C8  UNL     1      18.110  35.894  58.601  1.00  0.00     0.223 C 
BRANCH  11  12
HETATM   12  N1  UNL     1      18.806  36.883  57.675  1.00  0.00     0.096 N 
BRANCH  12  13
HETATM   13  C3  UNL     1      17.770  37.407  56.849  1.00  0.00     0.299 C 
BRANCH  13  14
HETATM   14  C2  UNL     1      17.577  36.678  55.590  1.00  0.00    -0.007 C 
HETATM   15  C1  UNL     1      16.528  35.972  55.266  1.00  0.00     0.008 C 
ENDBRANCH  13  14
ENDBRANCH  12  13
BRANCH  12  16
HETATM   16  C4  UNL     1      19.403  37.902  58.501  1.00  0.00     0.273 C 
BRANCH  16  17
HETATM   17  C5  UNL     1      20.872  38.051  58.137  1.00  0.00     0.030 C 
BRANCH  17  18
HETATM   18  C6  UNL     1      21.712  37.800  59.393  1.00  0.00    -0.003 C 
HETATM   19  C7  UNL     1      21.975  36.327  59.517  1.00  0.00     0.005 C 
ENDBRANCH  17  18
ENDBRANCH  16  17
ENDBRANCH  12  16
ENDBRANCH  11  12
BRANCH  11  20
HETATM   20  C9  UNL     1      18.840  34.589  58.347  1.00  0.00     0.031 C 
HETATM   21  C10 UNL     1      18.333  33.375  59.029  1.00  0.00     0.007 C 
ENDBRANCH  11  20
ENDBRANCH  10  11
ENDBRANCH   9  10
ENDBRANCH   8   9
ENDBRANCH   7   8
ENDBRANCH   1   7
BRANCH   6  22
HETATM   22  O5  UNL     1      13.442  36.158  63.114  1.00  0.00    -0.389 OA
ATOM     23  H5  UNL     1      13.402  36.053  64.057  1.00  0.00     0.210 HD
ENDBRANCH   6  22
BRANCH   3  24
HETATM   24  C15 UNL     1       9.933  39.711  60.983  1.00  0.00     0.198 C 
BRANCH  24  25
HETATM   25  O2  UNL     1       8.836  40.072  61.748  1.00  0.00    -0.398 OA
ATOM     26  H2  UNL     1       8.966  40.910  62.177  1.00  0.00     0.209 HD
ENDBRANCH  24  25
ENDBRANCH   3  24
BRANCH   5  27
HETATM   27  O4  UNL     1      10.669  35.559  63.154  1.00  0.00    -0.390 OA
ATOM     28  H4  UNL     1      11.308  35.111  63.697  1.00  0.00     0.210 HD
ENDBRANCH   5  27
BRANCH   4  29
HETATM   29  O3  UNL     1       9.069  37.254  62.214  1.00  0.00    -0.390 OA
ATOM     30  H3  UNL     1       8.538  36.570  61.823  1.00  0.00     0.210 HD
ENDBRANCH   4  29
TORSDOF 17
ENDMDL
