MODEL 1
REMARK VINA RESULT: -9.932673854      0.000      0.000
REMARK  6 active torsions:
REMARK  status: ('A' for Active; 'I' for Inactive)
REMARK    1  A    between atoms: C5_7  and  C6_8 
REMARK    2  A    between atoms: C6_8  and  C7_9 
REMARK    3  A    between atoms: C9_13  and  C10_14 
REMARK    4  A    between atoms: C13_20  and  O1_21 
REMARK    5  A    between atoms: O1_21  and  C14_22 
REMARK    6  A    between atoms: C14_22  and  C15_23 
ROOT
HETATM    1  C7  UNL     1      16.670 -12.698  16.867  1.00  0.00     0.086 A 
HETATM    2  N2  UNL     1      17.036 -12.362  15.592  1.00  0.00    -0.339 N 
ATOM      3  H2  UNL     1      17.664 -12.901  14.995  1.00  0.00     0.167 HD
HETATM    4  C8  UNL     1      16.450 -11.235  15.260  1.00  0.00     0.108 A 
HETATM    5  C9  UNL     1      16.432 -10.480  14.196  1.00  0.00     0.065 C 
HETATM    6  N4  UNL     1      15.693 -10.859  16.372  1.00  0.00    -0.321 N 
ATOM      7  H4  UNL     1      15.117 -10.018  16.425  1.00  0.00     0.169 HD
HETATM    8  C13 UNL     1      15.826 -11.742  17.343  1.00  0.00     0.171 A 
ENDROOT
BRANCH   8   9
HETATM    9  O1  UNL     1      15.197 -11.653  18.577  1.00  0.00    -0.327 OA
BRANCH   9  10
HETATM   10  C14 UNL     1      13.830 -11.897  18.736  1.00  0.00     0.254 C 
BRANCH  10  11
HETATM   11  C15 UNL     1      13.398 -11.403  20.086  1.00  0.00     0.108 A 
HETATM   12  N5  UNL     1      13.576 -10.172  20.589  1.00  0.00    -0.346 N 
HETATM   13  C16 UNL     1      13.036 -10.133  21.840  1.00  0.00     0.036 A 
ATOM     14  H5  UNL     1      14.037  -9.395  20.115  1.00  0.00     0.167 HD
HETATM   15  C17 UNL     1      12.522 -11.374  22.090  1.00  0.00     0.061 A 
HETATM   16  C21 UNL     1      12.921  -9.075  22.869  1.00  0.00     0.086 C 
HETATM   17  N6  UNL     1      12.752 -12.147  21.000  1.00  0.00    -0.340 N 
HETATM   18  C19 UNL     1      11.867 -11.631  23.390  1.00  0.00     0.291 C 
HETATM   19  C18 UNL     1      12.335 -13.530  20.922  1.00  0.00     0.157 C 
HETATM   20  N7  UNL     1      11.089 -10.478  23.775  1.00  0.00    -0.070 N 
HETATM   21  C20 UNL     1      11.855  -9.284  23.882  1.00  0.00     0.238 C 
ATOM     22  H72 UNL     1      10.303 -10.346  23.140  1.00  0.00     0.277 HD
ATOM     23  H71 UNL     1      10.580 -10.659  24.641  1.00  0.00     0.277 HD
ENDBRANCH  10  11
ENDBRANCH   9  10
ENDBRANCH   8   9
BRANCH   1  24
HETATM   24  C6  UNL     1      17.058 -13.782  17.527  1.00  0.00     0.048 C 
BRANCH  24  25
HETATM   25  C5  UNL     1      17.531 -13.729  18.914  1.00  0.00    -0.004 A 
HETATM   26  C2  UNL     1      16.908 -14.215  20.033  1.00  0.00     0.016 A 
HETATM   27  C1  UNL     1      15.582 -14.932  20.090  1.00  0.00     0.069 C 
HETATM   28  N1  UNL     1      17.714 -13.935  21.070  1.00  0.00    -0.362 N 
HETATM   29  C3  UNL     1      18.815 -13.300  20.692  1.00  0.00     0.016 A 
ATOM     30  H1  UNL     1      17.504 -14.182  22.037  1.00  0.00     0.165 HD
HETATM   31  C4  UNL     1      18.735 -13.146  19.307  1.00  0.00    -0.023 A 
HETATM   32  C25 UNL     1      20.058 -12.757  21.370  1.00  0.00     0.057 C 
HETATM   33  C22 UNL     1      19.753 -12.486  18.502  1.00  0.00     0.041 C 
HETATM   34  C23 UNL     1      21.080 -12.370  19.146  1.00  0.00     0.005 C 
HETATM   35  C24 UNL     1      21.184 -13.145  20.423  1.00  0.00     0.006 C 
ENDBRANCH  24  25
ENDBRANCH   1  24
BRANCH   5  36
HETATM   36  C10 UNL     1      17.026 -10.535  12.938  1.00  0.00     0.088 C 
HETATM   37  N3  UNL     1      17.347 -11.304  12.012  1.00  0.00    -0.398 N 
HETATM   38  C11 UNL     1      17.177 -12.717  11.893  1.00  0.00     0.148 C 
HETATM   39  C12 UNL     1      18.024 -10.643  10.819  1.00  0.00     0.148 C 
ENDBRANCH   5  36
TORSDOF 6
ENDMDL
MODEL 2
REMARK VINA RESULT: -9.832802470      3.530      5.758
REMARK  6 active torsions:
REMARK  status: ('A' for Active; 'I' for Inactive)
REMARK    1  A    between atoms: C5_7  and  C6_8 
REMARK    2  A    between atoms: C6_8  and  C7_9 
REMARK    3  A    between atoms: C9_13  and  C10_14 
REMARK    4  A    between atoms: C13_20  and  O1_21 
REMARK    5  A    between atoms: O1_21  and  C14_22 
REMARK    6  A    between atoms: C14_22  and  C15_23 
ROOT
HETATM    1  C7  UNL     1      17.645 -13.616  21.062  1.00  0.00     0.086 A 
HETATM    2  N2  UNL     1      17.680 -14.980  21.165  1.00  0.00    -0.339 N 
ATOM      3  H2  UNL     1      18.322 -15.513  21.753  1.00  0.00     0.167 HD
HETATM    4  C8  UNL     1      16.756 -15.494  20.387  1.00  0.00     0.108 A 
HETATM    5  C9  UNL     1      16.347 -16.701  20.108  1.00  0.00     0.065 C 
HETATM    6  N4  UNL     1      16.124 -14.406  19.778  1.00  0.00    -0.321 N 
ATOM      7  H4  UNL     1      15.355 -14.479  19.112  1.00  0.00     0.169 HD
HETATM    8  C13 UNL     1      16.661 -13.272  20.185  1.00  0.00     0.171 A 
ENDROOT
BRANCH   8   9
HETATM    9  O1  UNL     1      16.252 -12.014  19.765  1.00  0.00    -0.327 OA
BRANCH   9  10
HETATM   10  C14 UNL     1      14.930 -11.744  19.400  1.00  0.00     0.254 C 
BRANCH  10  11
HETATM   11  C15 UNL     1      14.183 -11.241  20.601  1.00  0.00     0.108 A 
HETATM   12  N5  UNL     1      14.188  -9.990  21.087  1.00  0.00    -0.346 N 
HETATM   13  C16 UNL     1      13.378  -9.949  22.183  1.00  0.00     0.036 A 
ATOM     14  H5  UNL     1      14.708  -9.202  20.701  1.00  0.00     0.167 HD
HETATM   15  C17 UNL     1      12.878 -11.208  22.356  1.00  0.00     0.061 A 
HETATM   16  C21 UNL     1      12.987  -8.873  23.121  1.00  0.00     0.086 C 
HETATM   17  N6  UNL     1      13.382 -11.995  21.373  1.00  0.00    -0.340 N 
HETATM   18  C19 UNL     1      11.959 -11.467  23.485  1.00  0.00     0.291 C 
HETATM   19  C18 UNL     1      13.056 -13.399  21.253  1.00  0.00     0.157 C 
HETATM   20  N7  UNL     1      11.063 -10.346  23.644  1.00  0.00    -0.070 N 
HETATM   21  C20 UNL     1      11.730  -9.112  23.878  1.00  0.00     0.238 C 
ATOM     22  H72 UNL     1      10.435 -10.271  22.845  1.00  0.00     0.277 HD
ATOM     23  H71 UNL     1      10.381 -10.532  24.380  1.00  0.00     0.277 HD
ENDBRANCH  10  11
ENDBRANCH   9  10
ENDBRANCH   8   9
BRANCH   1  24
HETATM   24  C6  UNL     1      18.425 -12.766  21.717  1.00  0.00     0.048 C 
BRANCH  24  25
HETATM   25  C5  UNL     1      19.823 -13.072  22.039  1.00  0.00    -0.004 A 
HETATM   26  C2  UNL     1      20.900 -13.064  21.193  1.00  0.00     0.016 A 
HETATM   27  C1  UNL     1      20.892 -12.726  19.723  1.00  0.00     0.069 C 
HETATM   28  N1  UNL     1      21.967 -13.410  21.931  1.00  0.00    -0.362 N 
HETATM   29  C3  UNL     1      21.647 -13.640  23.197  1.00  0.00     0.016 A 
ATOM     30  H1  UNL     1      22.914 -13.486  21.561  1.00  0.00     0.165 HD
HETATM   31  C4  UNL     1      20.271 -13.434  23.308  1.00  0.00    -0.023 A 
HETATM   32  C25 UNL     1      22.385 -14.032  24.463  1.00  0.00     0.057 C 
HETATM   33  C22 UNL     1      19.522 -13.594  24.547  1.00  0.00     0.041 C 
HETATM   34  C23 UNL     1      20.340 -13.557  25.780  1.00  0.00     0.005 C 
HETATM   35  C24 UNL     1      21.758 -13.149  25.533  1.00  0.00     0.006 C 
ENDBRANCH  24  25
ENDBRANCH   1  24
BRANCH   5  36
HETATM   36  C10 UNL     1      16.711 -17.983  20.512  1.00  0.00     0.088 C 
HETATM   37  N3  UNL     1      16.998 -18.679  21.506  1.00  0.00    -0.398 N 
HETATM   38  C11 UNL     1      17.071 -18.320  22.886  1.00  0.00     0.148 C 
HETATM   39  C12 UNL     1      17.322 -20.137  21.209  1.00  0.00     0.148 C 
ENDBRANCH   5  36
TORSDOF 6
ENDMDL
MODEL 3
REMARK VINA RESULT: -9.798772040      3.279      6.493
REMARK  6 active torsions:
REMARK  status: ('A' for Active; 'I' for Inactive)
REMARK    1  A    between atoms: C5_7  and  C6_8 
REMARK    2  A    between atoms: C6_8  and  C7_9 
REMARK    3  A    between atoms: C9_13  and  C10_14 
REMARK    4  A    between atoms: C13_20  and  O1_21 
REMARK    5  A    between atoms: O1_21  and  C14_22 
REMARK    6  A    between atoms: C14_22  and  C15_23 
ROOT
HETATM    1  C7  UNL     1      17.543 -13.999  21.414  1.00  0.00     0.086 A 
HETATM    2  N2  UNL     1      17.173 -15.054  22.204  1.00  0.00    -0.339 N 
ATOM      3  H2  UNL     1      17.482 -15.212  23.163  1.00  0.00     0.167 HD
HETATM    4  C8  UNL     1      16.356 -15.829  21.529  1.00  0.00     0.108 A 
HETATM    5  C9  UNL     1      15.708 -16.933  21.782  1.00  0.00     0.065 C 
HETATM    6  N4  UNL     1      16.215 -15.232  20.274  1.00  0.00    -0.321 N 
ATOM      7  H4  UNL     1      15.638 -15.599  19.517  1.00  0.00     0.169 HD
HETATM    8  C13 UNL     1      16.933 -14.127  20.204  1.00  0.00     0.171 A 
ENDROOT
BRANCH   8   9
HETATM    9  O1  UNL     1      17.001 -13.304  19.089  1.00  0.00    -0.327 OA
BRANCH   9  10
HETATM   10  C14 UNL     1      15.859 -12.769  18.487  1.00  0.00     0.254 C 
BRANCH  10  11
HETATM   11  C15 UNL     1      15.020 -12.100  19.536  1.00  0.00     0.108 A 
HETATM   12  N5  UNL     1      15.283 -10.942  20.161  1.00  0.00    -0.346 N 
HETATM   13  C16 UNL     1      14.271 -10.684  21.038  1.00  0.00     0.036 A 
ATOM     14  H5  UNL     1      16.101 -10.352  20.005  1.00  0.00     0.167 HD
HETATM   15  C17 UNL     1      13.382 -11.716  20.934  1.00  0.00     0.061 A 
HETATM   16  C21 UNL     1      14.001  -9.580  21.986  1.00  0.00     0.086 C 
HETATM   17  N6  UNL     1      13.856 -12.582  20.004  1.00  0.00    -0.340 N 
HETATM   18  C19 UNL     1      12.170 -11.707  21.781  1.00  0.00     0.291 C 
HETATM   19  C18 UNL     1      13.157 -13.795  19.640  1.00  0.00     0.157 C 
HETATM   20  N7  UNL     1      11.652 -10.362  21.867  1.00  0.00    -0.070 N 
HETATM   21  C20 UNL     1      12.582  -9.426  22.398  1.00  0.00     0.238 C 
ATOM     22  H72 UNL     1      11.305 -10.051  20.960  1.00  0.00     0.277 HD
ATOM     23  H71 UNL     1      10.781 -10.345  22.397  1.00  0.00     0.277 HD
ENDBRANCH  10  11
ENDBRANCH   9  10
ENDBRANCH   8   9
BRANCH   1  24
HETATM   24  C6  UNL     1      18.349 -13.007  21.770  1.00  0.00     0.048 C 
BRANCH  24  25
HETATM   25  C5  UNL     1      19.770 -13.217  22.065  1.00  0.00    -0.004 A 
HETATM   26  C2  UNL     1      20.821 -13.198  21.186  1.00  0.00     0.016 A 
HETATM   27  C1  UNL     1      20.753 -12.946  19.700  1.00  0.00     0.069 C 
HETATM   28  N1  UNL     1      21.926 -13.442  21.909  1.00  0.00    -0.362 N 
HETATM   29  C3  UNL     1      21.655 -13.617  23.195  1.00  0.00     0.016 A 
ATOM     30  H1  UNL     1      22.866 -13.488  21.515  1.00  0.00     0.165 HD
HETATM   31  C4  UNL     1      20.274 -13.480  23.338  1.00  0.00    -0.023 A 
HETATM   32  C25 UNL     1      22.450 -13.894  24.458  1.00  0.00     0.057 C 
HETATM   33  C22 UNL     1      19.570 -13.610  24.606  1.00  0.00     0.041 C 
HETATM   34  C23 UNL     1      20.419 -13.457  25.809  1.00  0.00     0.005 C 
HETATM   35  C24 UNL     1      21.804 -12.987  25.495  1.00  0.00     0.006 C 
ENDBRANCH  24  25
ENDBRANCH   1  24
BRANCH   5  36
HETATM   36  C10 UNL     1      15.594 -17.779  22.882  1.00  0.00     0.088 C 
HETATM   37  N3  UNL     1      16.047 -18.016  24.018  1.00  0.00    -0.398 N 
HETATM   38  C11 UNL     1      17.075 -17.350  24.752  1.00  0.00     0.148 C 
HETATM   39  C12 UNL     1      15.413 -19.196  24.741  1.00  0.00     0.148 C 
ENDBRANCH   5  36
TORSDOF 6
ENDMDL
MODEL 4
REMARK VINA RESULT: -9.688707347      3.139      4.916
REMARK  6 active torsions:
REMARK  status: ('A' for Active; 'I' for Inactive)
REMARK    1  A    between atoms: C5_7  and  C6_8 
REMARK    2  A    between atoms: C6_8  and  C7_9 
REMARK    3  A    between atoms: C9_13  and  C10_14 
REMARK    4  A    between atoms: C13_20  and  O1_21 
REMARK    5  A    between atoms: O1_21  and  C14_22 
REMARK    6  A    between atoms: C14_22  and  C15_23 
ROOT
HETATM    1  C7  UNL     1      17.332 -13.144  19.780  1.00  0.00     0.086 A 
HETATM    2  N2  UNL     1      17.446 -14.508  19.764  1.00  0.00    -0.339 N 
ATOM      3  H2  UNL     1      18.198 -15.044  20.199  1.00  0.00     0.167 HD
HETATM    4  C8  UNL     1      16.433 -15.017  19.102  1.00  0.00     0.108 A 
HETATM    5  C9  UNL     1      16.041 -16.222  18.793  1.00  0.00     0.065 C 
HETATM    6  N4  UNL     1      15.663 -13.926  18.691  1.00  0.00    -0.321 N 
ATOM      7  H4  UNL     1      14.800 -13.995  18.149  1.00  0.00     0.169 HD
HETATM    8  C13 UNL     1      16.205 -12.795  19.099  1.00  0.00     0.171 A 
ENDROOT
BRANCH   8   9
HETATM    9  O1  UNL     1      15.677 -11.536  18.853  1.00  0.00    -0.327 OA
BRANCH   9  10
HETATM   10  C14 UNL     1      14.302 -11.316  18.734  1.00  0.00     0.254 C 
BRANCH  10  11
HETATM   11  C15 UNL     1      13.745 -10.958  20.081  1.00  0.00     0.108 A 
HETATM   12  N5  UNL     1      13.860  -9.780  20.714  1.00  0.00    -0.346 N 
HETATM   13  C16 UNL     1      13.210  -9.866  21.910  1.00  0.00     0.036 A 
ATOM     14  H5  UNL     1      14.351  -8.958  20.361  1.00  0.00     0.167 HD
HETATM   15  C17 UNL     1      12.694 -11.128  21.992  1.00  0.00     0.061 A 
HETATM   16  C21 UNL     1      12.990  -8.913  23.021  1.00  0.00     0.086 C 
HETATM   17  N6  UNL     1      13.031 -11.791  20.857  1.00  0.00    -0.340 N 
HETATM   18  C19 UNL     1      11.930 -11.514  23.197  1.00  0.00     0.291 C 
HETATM   19  C18 UNL     1      12.642 -13.162  20.610  1.00  0.00     0.157 C 
HETATM   20  N7  UNL     1      11.105 -10.407  23.620  1.00  0.00    -0.070 N 
HETATM   21  C20 UNL     1      11.841  -9.225  23.910  1.00  0.00     0.238 C 
ATOM     22  H72 UNL     1      10.376 -10.219  22.933  1.00  0.00     0.277 HD
ATOM     23  H71 UNL     1      10.524 -10.675  24.415  1.00  0.00     0.277 HD
ENDBRANCH  10  11
ENDBRANCH   9  10
ENDBRANCH   8   9
BRANCH   1  24
HETATM   24  C6  UNL     1      18.168 -12.301  20.372  1.00  0.00     0.048 C 
BRANCH  24  25
HETATM   25  C5  UNL     1      19.442 -12.736  20.952  1.00  0.00    -0.004 A 
HETATM   26  C2  UNL     1      20.692 -12.644  20.399  1.00  0.00     0.016 A 
HETATM   27  C1  UNL     1      21.044 -12.058  19.054  1.00  0.00     0.069 C 
HETATM   28  N1  UNL     1      21.544 -13.171  21.292  1.00  0.00    -0.362 N 
HETATM   29  C3  UNL     1      20.925 -13.597  22.384  1.00  0.00     0.016 A 
ATOM     30  H1  UNL     1      22.552 -13.237  21.148  1.00  0.00     0.165 HD
HETATM   31  C4  UNL     1      19.565 -13.336  22.205  1.00  0.00    -0.023 A 
HETATM   32  C25 UNL     1      21.330 -14.242  23.697  1.00  0.00     0.057 C 
HETATM   33  C22 UNL     1      18.538 -13.664  23.182  1.00  0.00     0.041 C 
HETATM   34  C23 UNL     1      19.034 -13.886  24.559  1.00  0.00     0.005 C 
HETATM   35  C24 UNL     1      20.475 -13.522  24.730  1.00  0.00     0.006 C 
ENDBRANCH  24  25
ENDBRANCH   1  24
BRANCH   5  36
HETATM   36  C10 UNL     1      16.523 -17.507  19.029  1.00  0.00     0.088 C 
HETATM   37  N3  UNL     1      17.124 -18.216  19.859  1.00  0.00    -0.398 N 
HETATM   38  C11 UNL     1      17.645 -17.881  21.145  1.00  0.00     0.148 C 
HETATM   39  C12 UNL     1      17.340 -19.665  19.443  1.00  0.00     0.148 C 
ENDBRANCH   5  36
TORSDOF 6
ENDMDL
MODEL 5
REMARK VINA RESULT: -9.639879163      1.158      2.035
REMARK  6 active torsions:
REMARK  status: ('A' for Active; 'I' for Inactive)
REMARK    1  A    between atoms: C5_7  and  C6_8 
REMARK    2  A    between atoms: C6_8  and  C7_9 
REMARK    3  A    between atoms: C9_13  and  C10_14 
REMARK    4  A    between atoms: C13_20  and  O1_21 
REMARK    5  A    between atoms: O1_21  and  C14_22 
REMARK    6  A    between atoms: C14_22  and  C15_23 
ROOT
HETATM    1  C7  UNL     1      17.411 -12.564  17.186  1.00  0.00     0.086 A 
HETATM    2  N2  UNL     1      17.579 -12.278  15.858  1.00  0.00    -0.339 N 
ATOM      3  H2  UNL     1      18.214 -12.763  15.224  1.00  0.00     0.167 HD
HETATM    4  C8  UNL     1      16.790 -11.281  15.530  1.00  0.00     0.108 A 
HETATM    5  C9  UNL     1      16.537 -10.623  14.432  1.00  0.00     0.065 C 
HETATM    6  N4  UNL     1      16.108 -10.936  16.700  1.00  0.00    -0.321 N 
ATOM      7  H4  UNL     1      15.417 -10.189  16.770  1.00  0.00     0.169 HD
HETATM    8  C13 UNL     1      16.483 -11.710  17.700  1.00  0.00     0.171 A 
ENDROOT
BRANCH   8   9
HETATM    9  O1  UNL     1      15.987 -11.619  18.993  1.00  0.00    -0.327 OA
BRANCH   9  10
HETATM   10  C14 UNL     1      15.020 -12.501  19.483  1.00  0.00     0.254 C 
BRANCH  10  11
HETATM   11  C15 UNL     1      14.273 -11.837  20.602  1.00  0.00     0.108 A 
HETATM   12  N5  UNL     1      14.275 -10.530  20.909  1.00  0.00    -0.346 N 
HETATM   13  C16 UNL     1      13.466 -10.338  21.989  1.00  0.00     0.036 A 
ATOM     14  H5  UNL     1      14.794  -9.803  20.416  1.00  0.00     0.167 HD
HETATM   15  C17 UNL     1      12.969 -11.562  22.337  1.00  0.00     0.061 A 
HETATM   16  C21 UNL     1      13.073  -9.143  22.769  1.00  0.00     0.086 C 
HETATM   17  N6  UNL     1      13.475 -12.477  21.473  1.00  0.00    -0.340 N 
HETATM   18  C19 UNL     1      12.052 -11.662  23.492  1.00  0.00     0.291 C 
HETATM   19  C18 UNL     1      13.152 -13.885  21.551  1.00  0.00     0.157 C 
HETATM   20  N7  UNL     1      11.153 -10.533  23.494  1.00  0.00    -0.070 N 
HETATM   21  C20 UNL     1      11.818  -9.276  23.552  1.00  0.00     0.238 C 
ATOM     22  H72 UNL     1      10.524 -10.571  22.693  1.00  0.00     0.277 HD
ATOM     23  H71 UNL     1      10.472 -10.616  24.249  1.00  0.00     0.277 HD
ENDBRANCH  10  11
ENDBRANCH   9  10
ENDBRANCH   8   9
BRANCH   1  24
HETATM   24  C6  UNL     1      18.034 -13.522  17.859  1.00  0.00     0.048 C 
BRANCH  24  25
HETATM   25  C5  UNL     1      19.223 -13.261  18.677  1.00  0.00    -0.004 A 
HETATM   26  C2  UNL     1      20.392 -12.661  18.291  1.00  0.00     0.016 A 
HETATM   27  C1  UNL     1      20.720 -12.118  16.923  1.00  0.00     0.069 C 
HETATM   28  N1  UNL     1      21.187 -12.644  19.373  1.00  0.00    -0.362 N 
HETATM   29  C3  UNL     1      20.606 -13.194  20.430  1.00  0.00     0.016 A 
ATOM     30  H1  UNL     1      22.129 -12.252  19.381  1.00  0.00     0.165 HD
HETATM   31  C4  UNL     1      19.336 -13.607  20.023  1.00  0.00    -0.023 A 
HETATM   32  C25 UNL     1      20.974 -13.444  21.881  1.00  0.00     0.057 C 
HETATM   33  C22 UNL     1      18.378 -14.271  20.895  1.00  0.00     0.041 C 
HETATM   34  C23 UNL     1      18.630 -14.099  22.344  1.00  0.00     0.005 C 
HETATM   35  C24 UNL     1      19.702 -13.098  22.640  1.00  0.00     0.006 C 
ENDBRANCH  24  25
ENDBRANCH   1  24
BRANCH   5  36
HETATM   36  C10 UNL     1      16.992 -10.687  13.118  1.00  0.00     0.088 C 
HETATM   37  N3  UNL     1      17.401 -11.465  12.233  1.00  0.00    -0.398 N 
HETATM   38  C11 UNL     1      17.587 -12.880  12.271  1.00  0.00     0.148 C 
HETATM   39  C12 UNL     1      17.759 -10.812  10.905  1.00  0.00     0.148 C 
ENDBRANCH   5  36
TORSDOF 6
ENDMDL
