MODEL 1
REMARK VINA RESULT: -7.310504702      0.000      0.000
REMARK  3 active torsions:
REMARK  status: ('A' for Active; 'I' for Inactive)
REMARK    1  A    between atoms: C7_7  and  C8_8 
REMARK    2  A    between atoms: C9_9  and  O1_10 
REMARK    3  A    between atoms: C10_13  and  O3_14 
ROOT
HETATM    1  C8  UNL     1      31.058  36.761  38.240  1.00  0.00     0.032 A 
HETATM    2  C9  UNL     1      31.925  35.967  37.496  1.00  0.00     0.194 A 
HETATM    3  O2  UNL     1      32.264  34.925  38.218  1.00  0.00    -0.263 OA
HETATM    4  C10 UNL     1      31.700  34.949  39.386  1.00  0.00     0.204 A 
HETATM    5  C11 UNL     1      30.929  36.097  39.436  1.00  0.00     0.081 A 
HETATM    6 BR1  UNL     1      29.872  36.658  40.915  1.00  0.00    -0.045 Br
ENDROOT
BRANCH   1   7
HETATM    7  C7  UNL     1      30.480  37.968  37.800  1.00  0.00     0.001 C 
HETATM    8  C2  UNL     1      29.102  38.060  37.243  1.00  0.00    -0.032 C 
HETATM    9  C1  UNL     1      28.886  37.763  35.795  1.00  0.00     0.016 C 
HETATM   10  C3  UNL     1      27.976  37.522  38.060  1.00  0.00     0.016 C 
HETATM   11  C4  UNL     1      29.275  39.556  37.555  1.00  0.00    -0.005 C 
HETATM   12  C5  UNL     1      30.335  39.948  36.595  1.00  0.00     0.006 C 
HETATM   13  C12 UNL     1      30.101  39.060  38.756  1.00  0.00     0.020 C 
HETATM   14  C6  UNL     1      31.311  38.777  36.813  1.00  0.00     0.016 C 
ENDBRANCH   1   7
BRANCH   2  15
HETATM   15  O1  UNL     1      32.392  36.191  36.191  1.00  0.00    -0.340 OA
ATOM     16  H1  UNL     1      32.785  35.562  35.597  1.00  0.00     0.220 HD
ENDBRANCH   2  15
BRANCH   4  17
HETATM   17  O3  UNL     1      31.795  34.040  40.443  1.00  0.00    -0.340 OA
ATOM     18  H3  UNL     1      31.109  33.602  40.932  1.00  0.00     0.220 HD
ENDBRANCH   4  17
TORSDOF 3
ENDMDL
MODEL 2
REMARK VINA RESULT: -7.172683804      1.852      2.459
REMARK  3 active torsions:
REMARK  status: ('A' for Active; 'I' for Inactive)
REMARK    1  A    between atoms: C7_7  and  C8_8 
REMARK    2  A    between atoms: C9_9  and  O1_10 
REMARK    3  A    between atoms: C10_13  and  O3_14 
ROOT
HETATM    1  C8  UNL     1      30.106  36.973  38.919  1.00  0.00     0.032 A 
HETATM    2  C9  UNL     1      29.252  36.197  39.695  1.00  0.00     0.194 A 
HETATM    3  O2  UNL     1      29.961  35.279  40.310  1.00  0.00    -0.263 OA
HETATM    4  C10 UNL     1      31.220  35.370  40.014  1.00  0.00     0.204 A 
HETATM    5  C11 UNL     1      31.350  36.432  39.135  1.00  0.00     0.081 A 
HETATM    6 BR1  UNL     1      32.980  37.036  38.360  1.00  0.00    -0.045 Br
ENDROOT
BRANCH   1   7
HETATM    7  C7  UNL     1      29.712  38.059  38.114  1.00  0.00     0.001 C 
HETATM    8  C2  UNL     1      29.697  38.012  36.625  1.00  0.00    -0.032 C 
HETATM    9  C1  UNL     1      30.961  38.291  35.880  1.00  0.00     0.016 C 
HETATM   10  C3  UNL     1      28.933  36.915  35.964  1.00  0.00     0.016 C 
HETATM   11  C4  UNL     1      28.779  39.236  36.779  1.00  0.00    -0.005 C 
HETATM   12  C5  UNL     1      29.710  40.248  37.336  1.00  0.00     0.006 C 
HETATM   13  C12 UNL     1      28.286  38.524  38.052  1.00  0.00     0.020 C 
HETATM   14  C6  UNL     1      30.394  39.387  38.414  1.00  0.00     0.016 C 
ENDBRANCH   1   7
BRANCH   2  15
HETATM   15  O1  UNL     1      27.861  36.326  39.837  1.00  0.00    -0.340 OA
ATOM     16  H1  UNL     1      27.182  35.812  39.415  1.00  0.00     0.220 HD
ENDBRANCH   2  15
BRANCH   4  17
HETATM   17  O3  UNL     1      32.299  34.596  40.448  1.00  0.00    -0.340 OA
ATOM     18  H3  UNL     1      32.802  34.649  41.252  1.00  0.00     0.220 HD
ENDBRANCH   4  17
TORSDOF 3
ENDMDL
MODEL 3
REMARK VINA RESULT: -7.078928195      2.062      2.659
REMARK  3 active torsions:
REMARK  status: ('A' for Active; 'I' for Inactive)
REMARK    1  A    between atoms: C7_7  and  C8_8 
REMARK    2  A    between atoms: C9_9  and  O1_10 
REMARK    3  A    between atoms: C10_13  and  O3_14 
ROOT
HETATM    1  C8  UNL     1      29.248  37.111  39.259  1.00  0.00     0.032 A 
HETATM    2  C9  UNL     1      30.307  36.396  39.810  1.00  0.00     0.194 A 
HETATM    3  O2  UNL     1      29.830  35.565  40.707  1.00  0.00    -0.263 OA
HETATM    4  C10 UNL     1      28.540  35.659  40.809  1.00  0.00     0.204 A 
HETATM    5  C11 UNL     1      28.137  36.629  39.907  1.00  0.00     0.081 A 
HETATM    6 BR1  UNL     1      26.343  37.196  39.618  1.00  0.00    -0.045 Br
ENDROOT
BRANCH   1   7
HETATM    7  C7  UNL     1      29.366  38.098  38.261  1.00  0.00     0.001 C 
HETATM    8  C2  UNL     1      29.618  37.787  36.827  1.00  0.00    -0.032 C 
HETATM    9  C1  UNL     1      31.023  37.567  36.371  1.00  0.00     0.016 C 
HETATM   10  C3  UNL     1      28.692  36.840  36.140  1.00  0.00     0.016 C 
HETATM   11  C4  UNL     1      29.109  39.223  36.616  1.00  0.00    -0.005 C 
HETATM   12  C5  UNL     1      30.183  40.024  37.252  1.00  0.00     0.006 C 
HETATM   13  C12 UNL     1      28.190  38.917  37.814  1.00  0.00     0.020 C 
HETATM   14  C6  UNL     1      30.354  39.220  38.554  1.00  0.00     0.016 C 
ENDBRANCH   1   7
BRANCH   2  15
HETATM   15  O1  UNL     1      31.672  36.501  39.498  1.00  0.00    -0.340 OA
ATOM     16  H1  UNL     1      32.377  35.925  39.769  1.00  0.00     0.220 HD
ENDBRANCH   2  15
BRANCH   4  17
HETATM   17  O3  UNL     1      27.656  34.963  41.635  1.00  0.00    -0.340 OA
ATOM     18  H3  UNL     1      27.831  34.300  42.293  1.00  0.00     0.220 HD
ENDBRANCH   4  17
TORSDOF 3
ENDMDL
MODEL 4
REMARK VINA RESULT: -7.060884778      0.721      2.031
REMARK  3 active torsions:
REMARK  status: ('A' for Active; 'I' for Inactive)
REMARK    1  A    between atoms: C7_7  and  C8_8 
REMARK    2  A    between atoms: C9_9  and  O1_10 
REMARK    3  A    between atoms: C10_13  and  O3_14 
ROOT
HETATM    1  C8  UNL     1      30.660  36.438  38.214  1.00  0.00     0.032 A 
HETATM    2  C9  UNL     1      31.706  35.847  37.511  1.00  0.00     0.194 A 
HETATM    3  O2  UNL     1      32.374  35.068  38.330  1.00  0.00    -0.263 OA
HETATM    4  C10 UNL     1      31.868  35.084  39.524  1.00  0.00     0.204 A 
HETATM    5  C11 UNL     1      30.782  35.941  39.489  1.00  0.00     0.081 A 
HETATM    6 BR1  UNL     1      29.650  36.358  40.961  1.00  0.00    -0.045 Br
ENDROOT
BRANCH   1   7
HETATM    7  C7  UNL     1      29.723  37.338  37.672  1.00  0.00     0.001 C 
HETATM    8  C2  UNL     1      30.059  38.736  37.284  1.00  0.00    -0.032 C 
HETATM    9  C1  UNL     1      30.045  39.801  38.332  1.00  0.00     0.016 C 
HETATM   10  C3  UNL     1      31.193  38.950  36.338  1.00  0.00     0.016 C 
HETATM   11  C4  UNL     1      28.753  38.632  36.480  1.00  0.00    -0.005 C 
HETATM   12  C5  UNL     1      27.738  38.539  37.558  1.00  0.00     0.006 C 
HETATM   13  C12 UNL     1      29.155  37.158  36.294  1.00  0.00     0.020 C 
HETATM   14  C6  UNL     1      28.427  37.496  38.457  1.00  0.00     0.016 C 
ENDBRANCH   1   7
BRANCH   2  15
HETATM   15  O1  UNL     1      32.038  36.016  36.157  1.00  0.00    -0.340 OA
ATOM     16  H1  UNL     1      32.832  36.392  35.795  1.00  0.00     0.220 HD
ENDBRANCH   2  15
BRANCH   4  17
HETATM   17  O3  UNL     1      32.274  34.405  40.676  1.00  0.00    -0.340 OA
ATOM     18  H3  UNL     1      32.525  33.496  40.789  1.00  0.00     0.220 HD
ENDBRANCH   4  17
TORSDOF 3
ENDMDL
MODEL 5
REMARK VINA RESULT: -6.942685366      1.091      2.004
REMARK  3 active torsions:
REMARK  status: ('A' for Active; 'I' for Inactive)
REMARK    1  A    between atoms: C7_7  and  C8_8 
REMARK    2  A    between atoms: C9_9  and  O1_10 
REMARK    3  A    between atoms: C10_13  and  O3_14 
ROOT
HETATM    1  C8  UNL     1      31.683  36.535  37.676  1.00  0.00     0.032 A 
HETATM    2  C9  UNL     1      32.900  36.074  37.181  1.00  0.00     0.194 A 
HETATM    3  O2  UNL     1      33.427  35.255  38.061  1.00  0.00    -0.263 OA
HETATM    4  C10 UNL     1      32.670  35.124  39.107  1.00  0.00     0.204 A 
HETATM    5  C11 UNL     1      31.557  35.921  38.898  1.00  0.00     0.081 A 
HETATM    6 BR1  UNL     1      30.101  36.127  40.105  1.00  0.00    -0.045 Br
ENDROOT
BRANCH   1   7
HETATM    7  C7  UNL     1      30.824  37.433  37.014  1.00  0.00     0.001 C 
HETATM    8  C2  UNL     1      30.405  38.741  37.589  1.00  0.00    -0.032 C 
HETATM    9  C1  UNL     1      29.248  38.779  38.532  1.00  0.00     0.016 C 
HETATM   10  C3  UNL     1      31.470  39.688  38.031  1.00  0.00     0.016 C 
HETATM   11  C4  UNL     1      30.034  39.055  36.130  1.00  0.00    -0.005 C 
HETATM   12  C5  UNL     1      28.908  38.118  35.893  1.00  0.00     0.006 C 
HETATM   13  C12 UNL     1      31.253  38.180  35.785  1.00  0.00     0.020 C 
HETATM   14  C6  UNL     1      29.517  36.841  36.502  1.00  0.00     0.016 C 
ENDBRANCH   1   7
BRANCH   2  15
HETATM   15  O1  UNL     1      33.509  36.394  35.958  1.00  0.00    -0.340 OA
ATOM     16  H1  UNL     1      34.362  36.788  35.818  1.00  0.00     0.220 HD
ENDBRANCH   2  15
BRANCH   4  17
HETATM   17  O3  UNL     1      32.861  34.357  40.258  1.00  0.00    -0.340 OA
ATOM     18  H3  UNL     1      32.929  34.629  41.166  1.00  0.00     0.220 HD
ENDBRANCH   4  17
TORSDOF 3
ENDMDL
