MODEL 1
REMARK VINA RESULT: -8.433237085      0.000      0.000
REMARK  7 active torsions:
REMARK  status: ('A' for Active; 'I' for Inactive)
REMARK    1  A    between atoms: C2_2  and  N1_3 
REMARK    2  A    between atoms: C2_2  and  C3_7 
REMARK    3  A    between atoms: C3_7  and  O2_9 
REMARK    4  A    between atoms: O2_9  and  N2_10 
REMARK    5  A    between atoms: N2_10  and  N3_12 
REMARK    6  A    between atoms: N3_12  and  C4_14 
REMARK    7  A    between atoms: C8_23  and  N7_24 
ROOT
HETATM    1  C4  UNL     1       3.846  -0.347  12.689  1.00  0.00     0.701 C 
HETATM    2  N4  UNL     1       3.134   0.642  12.149  1.00  0.00    -0.175 N 
ATOM      3  H4  UNL     1       2.123   0.530  12.223  1.00  0.00     0.185 HD
HETATM    4  C5  UNL     1       3.532   1.766  11.520  1.00  0.00     0.160 C 
HETATM    5  N5  UNL     1       2.559   2.742  11.193  1.00  0.00    -0.080 NA
HETATM    6  C6  UNL     1       4.849   2.029  11.172  1.00  0.00     0.141 C 
HETATM    7  N6  UNL     1       5.046   3.323  10.623  1.00  0.00    -0.094 NA
HETATM    8  C7  UNL     1       5.990   1.246  11.268  1.00  0.00     0.243 C 
HETATM    9  O3  UNL     1       7.053   1.666  10.758  1.00  0.00    -0.282 OA
HETATM   10  C8  UNL     1       6.120   0.014  11.877  1.00  0.00     0.167 C 
HETATM   11  N8  UNL     1       5.172  -0.617  12.584  1.00  0.00    -0.172 N 
ATOM     12  H8  UNL     1       5.494  -1.420  13.125  1.00  0.00     0.186 HD
ENDROOT
BRANCH   1  13
HETATM   13  N3  UNL     1       3.205  -1.179  13.423  1.00  0.00    -0.112 N 
ATOM     14  H3  UNL     1       2.707  -0.818  14.237  1.00  0.00     0.207 HD
BRANCH  13  15
HETATM   15  N2  UNL     1       3.149  -2.550  13.173  1.00  0.00    -0.184 N 
ATOM     16  H2  UNL     1       2.284  -2.937  12.797  1.00  0.00     0.217 HD
BRANCH  15  17
HETATM   17  O2  UNL     1       4.196  -3.404  13.406  1.00  0.00    -0.181 OA
BRANCH  17  18
HETATM   18  C3  UNL     1       4.829  -4.037  12.351  1.00  0.00     0.312 C 
HETATM   19  O1  UNL     1       5.724  -3.399  11.739  1.00  0.00    -0.261 OA
BRANCH  18  20
HETATM   20  C2  UNL     1       4.531  -5.405  11.894  1.00  0.00     0.280 C 
HETATM   21  C1  UNL     1       4.617  -6.324  13.114  1.00  0.00     0.051 C 
BRANCH  20  22
HETATM   22  N1  UNL     1       3.183  -5.533  11.376  1.00  0.00    -0.066 N 
ATOM     23  H13 UNL     1       3.152  -5.852  10.407  1.00  0.00     0.275 HD
ATOM     24  H12 UNL     1       2.667  -6.313  11.783  1.00  0.00     0.275 HD
ATOM     25  H11 UNL     1       2.731  -4.630  11.519  1.00  0.00     0.275 HD
ENDBRANCH  20  22
ENDBRANCH  18  20
ENDBRANCH  17  18
ENDBRANCH  15  17
ENDBRANCH  13  15
ENDBRANCH   1  13
BRANCH  10  26
HETATM   26  N7  UNL     1       7.259  -0.611  11.767  1.00  0.00    -0.382 N 
ATOM     27  H72 UNL     1       8.031  -0.230  12.315  1.00  0.00     0.157 HD
ATOM     28  H71 UNL     1       7.307  -1.424  11.153  1.00  0.00     0.157 HD
ENDBRANCH  10  26
TORSDOF 7
ENDMDL
MODEL 2
REMARK VINA RESULT: -8.428864554      0.955      1.107
REMARK  7 active torsions:
REMARK  status: ('A' for Active; 'I' for Inactive)
REMARK    1  A    between atoms: C2_2  and  N1_3 
REMARK    2  A    between atoms: C2_2  and  C3_7 
REMARK    3  A    between atoms: C3_7  and  O2_9 
REMARK    4  A    between atoms: O2_9  and  N2_10 
REMARK    5  A    between atoms: N2_10  and  N3_12 
REMARK    6  A    between atoms: N3_12  and  C4_14 
REMARK    7  A    between atoms: C8_23  and  N7_24 
ROOT
HETATM    1  C4  UNL     1       3.821  -0.296  12.708  1.00  0.00     0.701 C 
HETATM    2  N4  UNL     1       3.126   0.703  12.163  1.00  0.00    -0.175 N 
ATOM      3  H4  UNL     1       2.113   0.611  12.243  1.00  0.00     0.185 HD
HETATM    4  C5  UNL     1       3.543   1.814  11.525  1.00  0.00     0.160 C 
HETATM    5  N5  UNL     1       2.588   2.806  11.195  1.00  0.00    -0.080 NA
HETATM    6  C6  UNL     1       4.863   2.048  11.169  1.00  0.00     0.141 C 
HETATM    7  N6  UNL     1       5.083   3.334  10.610  1.00  0.00    -0.094 NA
HETATM    8  C7  UNL     1       5.989   1.244  11.266  1.00  0.00     0.243 C 
HETATM    9  O3  UNL     1       7.058   1.640  10.748  1.00  0.00    -0.282 OA
HETATM   10  C8  UNL     1       6.097   0.014  11.883  1.00  0.00     0.167 C 
HETATM   11  N8  UNL     1       5.140  -0.593  12.599  1.00  0.00    -0.172 N 
ATOM     12  H8  UNL     1       5.450  -1.398  13.144  1.00  0.00     0.186 HD
ENDROOT
BRANCH   1  13
HETATM   13  N3  UNL     1       3.167  -1.110  13.450  1.00  0.00    -0.112 N 
ATOM     14  H3  UNL     1       2.622  -0.726  14.222  1.00  0.00     0.207 HD
BRANCH  13  15
HETATM   15  N2  UNL     1       3.158  -2.493  13.264  1.00  0.00    -0.184 N 
ATOM     16  H2  UNL     1       3.050  -3.090  14.084  1.00  0.00     0.217 HD
BRANCH  15  17
HETATM   17  O2  UNL     1       3.285  -3.090  12.037  1.00  0.00    -0.181 OA
BRANCH  17  18
HETATM   18  C3  UNL     1       3.352  -4.468  11.935  1.00  0.00     0.312 C 
HETATM   19  O1  UNL     1       2.271  -5.098  11.804  1.00  0.00    -0.261 OA
BRANCH  18  20
HETATM   20  C2  UNL     1       4.598  -5.252  11.968  1.00  0.00     0.280 C 
HETATM   21  C1  UNL     1       4.587  -6.076  13.257  1.00  0.00     0.051 C 
BRANCH  20  22
HETATM   22  N1  UNL     1       4.684  -6.200  10.875  1.00  0.00    -0.066 N 
ATOM     23  H13 UNL     1       4.205  -7.080  11.065  1.00  0.00     0.275 HD
ATOM     24  H12 UNL     1       4.133  -5.929  10.060  1.00  0.00     0.275 HD
ATOM     25  H11 UNL     1       5.677  -6.317  10.670  1.00  0.00     0.275 HD
ENDBRANCH  20  22
ENDBRANCH  18  20
ENDBRANCH  17  18
ENDBRANCH  15  17
ENDBRANCH  13  15
ENDBRANCH   1  13
BRANCH  10  26
HETATM   26  N7  UNL     1       7.224  -0.634  11.773  1.00  0.00    -0.382 N 
ATOM     27  H72 UNL     1       7.994  -0.118  11.347  1.00  0.00     0.157 HD
ATOM     28  H71 UNL     1       7.263  -1.595  12.112  1.00  0.00     0.157 HD
ENDBRANCH  10  26
TORSDOF 7
ENDMDL
MODEL 3
REMARK VINA RESULT: -7.847133452      1.339      2.751
REMARK  7 active torsions:
REMARK  status: ('A' for Active; 'I' for Inactive)
REMARK    1  A    between atoms: C2_2  and  N1_3 
REMARK    2  A    between atoms: C2_2  and  C3_7 
REMARK    3  A    between atoms: C3_7  and  O2_9 
REMARK    4  A    between atoms: O2_9  and  N2_10 
REMARK    5  A    between atoms: N2_10  and  N3_12 
REMARK    6  A    between atoms: N3_12  and  C4_14 
REMARK    7  A    between atoms: C8_23  and  N7_24 
ROOT
HETATM    1  C4  UNL     1       3.953  -0.494  12.735  1.00  0.00     0.701 C 
HETATM    2  N4  UNL     1       5.271  -0.696  12.744  1.00  0.00    -0.175 N 
ATOM      3  H4  UNL     1       5.578  -1.479  13.322  1.00  0.00     0.185 HD
HETATM    4  C5  UNL     1       6.262  -0.034  12.116  1.00  0.00     0.160 C 
HETATM    5  N5  UNL     1       7.572  -0.571  12.162  1.00  0.00    -0.080 NA
HETATM    6  C6  UNL     1       6.077   1.150  11.419  1.00  0.00     0.141 C 
HETATM    7  N6  UNL     1       7.241   1.602  10.743  1.00  0.00    -0.094 NA
HETATM    8  C7  UNL     1       4.958   1.957  11.275  1.00  0.00     0.243 C 
HETATM    9  O3  UNL     1       5.081   3.060  10.694  1.00  0.00    -0.282 OA
HETATM   10  C8  UNL     1       3.671   1.700  11.703  1.00  0.00     0.167 C 
HETATM   11  N8  UNL     1       3.241   0.558  12.259  1.00  0.00    -0.172 N 
ATOM     12  H8  UNL     1       2.228   0.466  12.335  1.00  0.00     0.186 HD
ENDROOT
BRANCH   1  13
HETATM   13  N3  UNL     1       3.228  -1.420  13.246  1.00  0.00    -0.112 N 
ATOM     14  H3  UNL     1       2.386  -1.147  13.753  1.00  0.00     0.207 HD
BRANCH  13  15
HETATM   15  N2  UNL     1       3.525  -2.779  13.149  1.00  0.00    -0.184 N 
ATOM     16  H2  UNL     1       4.455  -3.091  13.427  1.00  0.00     0.217 HD
BRANCH  15  17
HETATM   17  O2  UNL     1       2.632  -3.716  12.698  1.00  0.00    -0.181 OA
BRANCH  17  18
HETATM   18  C3  UNL     1       3.072  -4.804  11.965  1.00  0.00     0.312 C 
HETATM   19  O1  UNL     1       2.237  -5.388  11.227  1.00  0.00    -0.261 OA
BRANCH  18  20
HETATM   20  C2  UNL     1       4.448  -5.328  11.986  1.00  0.00     0.280 C 
HETATM   21  C1  UNL     1       4.572  -6.241  13.207  1.00  0.00     0.051 C 
BRANCH  20  22
HETATM   22  N1  UNL     1       4.746  -6.147  10.828  1.00  0.00    -0.066 N 
ATOM     23  H13 UNL     1       4.809  -7.142  11.043  1.00  0.00     0.275 HD
ATOM     24  H12 UNL     1       3.971  -6.210  10.167  1.00  0.00     0.275 HD
ATOM     25  H11 UNL     1       5.598  -5.767  10.416  1.00  0.00     0.275 HD
ENDBRANCH  20  22
ENDBRANCH  18  20
ENDBRANCH  17  18
ENDBRANCH  15  17
ENDBRANCH  13  15
ENDBRANCH   1  13
BRANCH  10  26
HETATM   26  N7  UNL     1       2.776   2.638  11.564  1.00  0.00    -0.382 N 
ATOM     27  H72 UNL     1       2.110   2.735  12.330  1.00  0.00     0.157 HD
ATOM     28  H71 UNL     1       2.797   3.203  10.715  1.00  0.00     0.157 HD
ENDBRANCH  10  26
TORSDOF 7
ENDMDL
MODEL 4
REMARK VINA RESULT: -7.843112056      1.429      2.959
REMARK  7 active torsions:
REMARK  status: ('A' for Active; 'I' for Inactive)
REMARK    1  A    between atoms: C2_2  and  N1_3 
REMARK    2  A    between atoms: C2_2  and  C3_7 
REMARK    3  A    between atoms: C3_7  and  O2_9 
REMARK    4  A    between atoms: O2_9  and  N2_10 
REMARK    5  A    between atoms: N2_10  and  N3_12 
REMARK    6  A    between atoms: N3_12  and  C4_14 
REMARK    7  A    between atoms: C8_23  and  N7_24 
ROOT
HETATM    1  C4  UNL     1       5.888  -0.155  11.697  1.00  0.00     0.701 C 
HETATM    2  N4  UNL     1       4.859  -0.780  12.272  1.00  0.00    -0.175 N 
ATOM      3  H4  UNL     1       4.974  -1.789  12.369  1.00  0.00     0.185 HD
HETATM    4  C5  UNL     1       3.694  -0.296  12.745  1.00  0.00     0.160 C 
HETATM    5  N5  UNL     1       2.844  -1.164  13.471  1.00  0.00    -0.080 NA
HETATM    6  C6  UNL     1       3.273   1.013  12.564  1.00  0.00     0.141 C 
HETATM    7  N6  UNL     1       2.070   1.325  13.249  1.00  0.00    -0.094 NA
HETATM    8  C7  UNL     1       3.825   2.055  11.833  1.00  0.00     0.243 C 
HETATM    9  O3  UNL     1       3.178   3.120  11.720  1.00  0.00    -0.282 OA
HETATM   10  C8  UNL     1       5.045   2.079  11.186  1.00  0.00     0.167 C 
HETATM   11  N8  UNL     1       5.977   1.117  11.231  1.00  0.00    -0.172 N 
ATOM     12  H8  UNL     1       6.890   1.379  10.860  1.00  0.00     0.186 HD
ENDROOT
BRANCH   1  13
HETATM   13  N3  UNL     1       6.963  -0.836  11.552  1.00  0.00    -0.112 N 
ATOM     14  H3  UNL     1       7.772  -0.374  11.136  1.00  0.00     0.207 HD
BRANCH  13  15
HETATM   15  N2  UNL     1       7.092  -2.172  11.931  1.00  0.00    -0.184 N 
ATOM     16  H2  UNL     1       7.872  -2.429  12.536  1.00  0.00     0.217 HD
BRANCH  15  17
HETATM   17  O2  UNL     1       6.224  -3.156  11.533  1.00  0.00    -0.181 OA
BRANCH  17  18
HETATM   18  C3  UNL     1       5.483  -3.854  12.470  1.00  0.00     0.312 C 
HETATM   19  O1  UNL     1       5.748  -3.663  13.685  1.00  0.00    -0.261 OA
BRANCH  18  20
HETATM   20  C2  UNL     1       4.405  -4.804  12.148  1.00  0.00     0.280 C 
HETATM   21  C1  UNL     1       4.564  -6.009  13.077  1.00  0.00     0.051 C 
BRANCH  20  22
HETATM   22  N1  UNL     1       3.088  -4.255  12.407  1.00  0.00    -0.066 N 
ATOM     23  H13 UNL     1       3.114  -3.349  12.874  1.00  0.00     0.275 HD
ATOM     24  H12 UNL     1       2.605  -3.950  11.562  1.00  0.00     0.275 HD
ATOM     25  H11 UNL     1       2.577  -4.966  12.931  1.00  0.00     0.275 HD
ENDBRANCH  20  22
ENDBRANCH  18  20
ENDBRANCH  17  18
ENDBRANCH  15  17
ENDBRANCH  13  15
ENDBRANCH   1  13
BRANCH  10  26
HETATM   26  N7  UNL     1       5.338   3.122  10.462  1.00  0.00    -0.382 N 
ATOM     27  H72 UNL     1       5.001   4.019  10.815  1.00  0.00     0.157 HD
ATOM     28  H71 UNL     1       5.873   2.981   9.605  1.00  0.00     0.157 HD
ENDBRANCH  10  26
TORSDOF 7
ENDMDL
MODEL 5
REMARK VINA RESULT: -7.729588123      1.501      1.748
REMARK  7 active torsions:
REMARK  status: ('A' for Active; 'I' for Inactive)
REMARK    1  A    between atoms: C2_2  and  N1_3 
REMARK    2  A    between atoms: C2_2  and  C3_7 
REMARK    3  A    between atoms: C3_7  and  O2_9 
REMARK    4  A    between atoms: O2_9  and  N2_10 
REMARK    5  A    between atoms: N2_10  and  N3_12 
REMARK    6  A    between atoms: N3_12  and  C4_14 
REMARK    7  A    between atoms: C8_23  and  N7_24 
ROOT
HETATM    1  C4  UNL     1       4.296  -0.374  12.561  1.00  0.00     0.701 C 
HETATM    2  N4  UNL     1       4.159   0.729  11.825  1.00  0.00    -0.175 N 
ATOM      3  H4  UNL     1       3.194   0.982  11.610  1.00  0.00     0.185 HD
HETATM    4  C5  UNL     1       5.087   1.566  11.320  1.00  0.00     0.160 C 
HETATM    5  N5  UNL     1       4.656   2.772  10.715  1.00  0.00    -0.080 NA
HETATM    6  C6  UNL     1       6.450   1.317  11.357  1.00  0.00     0.141 C 
HETATM    7  N6  UNL     1       7.240   2.390  10.868  1.00  0.00    -0.094 NA
HETATM    8  C7  UNL     1       7.162   0.206  11.785  1.00  0.00     0.243 C 
HETATM    9  O3  UNL     1       8.399   0.172  11.593  1.00  0.00    -0.282 OA
HETATM   10  C8  UNL     1       6.672  -0.916  12.424  1.00  0.00     0.167 C 
HETATM   11  N8  UNL     1       5.410  -1.095  12.841  1.00  0.00    -0.172 N 
ATOM     12  H8  UNL     1       5.267  -1.891  13.463  1.00  0.00     0.186 HD
ENDROOT
BRANCH   1  13
HETATM   13  N3  UNL     1       3.229  -0.843  13.093  1.00  0.00    -0.112 N 
ATOM     14  H3  UNL     1       2.438  -0.212  13.222  1.00  0.00     0.207 HD
BRANCH  13  15
HETATM   15  N2  UNL     1       3.087  -2.167  13.507  1.00  0.00    -0.184 N 
ATOM     16  H2  UNL     1       3.518  -2.447  14.388  1.00  0.00     0.217 HD
BRANCH  15  17
HETATM   17  O2  UNL     1       2.397  -3.112  12.792  1.00  0.00    -0.181 OA
BRANCH  17  18
HETATM   18  C3  UNL     1       3.033  -4.263  12.361  1.00  0.00     0.312 C 
HETATM   19  O1  UNL     1       2.380  -5.055  11.633  1.00  0.00    -0.261 OA
BRANCH  18  20
HETATM   20  C2  UNL     1       4.421  -4.628  12.692  1.00  0.00     0.280 C 
HETATM   21  C1  UNL     1       4.458  -6.144  12.900  1.00  0.00     0.051 C 
BRANCH  20  22
HETATM   22  N1  UNL     1       5.341  -4.339  11.610  1.00  0.00    -0.066 N 
ATOM     23  H13 UNL     1       5.732  -5.176  11.177  1.00  0.00     0.275 HD
ATOM     24  H12 UNL     1       4.883  -3.967  10.778  1.00  0.00     0.275 HD
ATOM     25  H11 UNL     1       6.051  -3.714  11.994  1.00  0.00     0.275 HD
ENDBRANCH  20  22
ENDBRANCH  18  20
ENDBRANCH  17  18
ENDBRANCH  15  17
ENDBRANCH  13  15
ENDBRANCH   1  13
BRANCH  10  26
HETATM   26  N7  UNL     1       7.493  -1.903  12.652  1.00  0.00    -0.382 N 
ATOM     27  H72 UNL     1       8.382  -1.867  12.155  1.00  0.00     0.157 HD
ATOM     28  H71 UNL     1       7.200  -2.635  13.300  1.00  0.00     0.157 HD
ENDBRANCH  10  26
TORSDOF 7
ENDMDL
