MODEL 1
REMARK VINA RESULT: -6.029808361      0.000      0.000
REMARK  9 active torsions:
REMARK  status: ('A' for Active; 'I' for Inactive)
REMARK    1  A    between atoms: C2_2  and  N1_3 
REMARK    2  A    between atoms: C2_2  and  C3_7 
REMARK    3  A    between atoms: C3_7  and  O1_8 
REMARK    4  A    between atoms: C3_7  and  C4_10 
REMARK    5  A    between atoms: C5_11  and  C6_12 
REMARK    6  A    between atoms: C6_12  and  C8_14 
REMARK    7  A    between atoms: C10_17  and  C11_18 
REMARK    8  A    between atoms: C11_18  and  C13_20 
REMARK    9  A    between atoms: C13_20  and  N2_22 
ROOT
HETATM    1  C6  UNL     1      33.887  40.603  -9.430  1.00  0.00     0.016 C 
HETATM    2  C7  UNL     1      34.005  39.481 -10.440  1.00  0.00     0.015 C 
ENDROOT
BRANCH   1   3
HETATM    3  C5  UNL     1      33.554  40.025  -8.104  1.00  0.00    -0.023 C 
HETATM    4  C4  UNL     1      34.286  40.099  -7.021  1.00  0.00     0.003 C 
BRANCH   4   5
HETATM    5  C3  UNL     1      35.596  40.775  -6.904  1.00  0.00     0.170 C 
BRANCH   5   6
HETATM    6  C2  UNL     1      35.472  42.178  -6.359  1.00  0.00     0.211 C 
HETATM    7  C1  UNL     1      36.459  42.314  -5.196  1.00  0.00     0.043 C 
BRANCH   6   8
HETATM    8  N1  UNL     1      34.181  42.502  -5.860  1.00  0.00    -0.073 N 
ATOM      9  H13 UNL     1      33.521  41.728  -5.926  1.00  0.00     0.274 HD
ATOM     10  H12 UNL     1      34.161  42.607  -4.845  1.00  0.00     0.274 HD
ATOM     11  H11 UNL     1      33.866  43.338  -6.353  1.00  0.00     0.274 HD
ENDBRANCH   6   8
ENDBRANCH   5   6
BRANCH   5  12
HETATM   12  O1  UNL     1      36.466  40.042  -6.063  1.00  0.00    -0.390 OA
ATOM     13  H1  UNL     1      36.453  39.132  -6.336  1.00  0.00     0.210 HD
ENDBRANCH   5  12
ENDBRANCH   4   5
ENDBRANCH   1   3
BRANCH   1  14
HETATM   14  C8  UNL     1      32.885  41.637  -9.890  1.00  0.00     0.074 A 
HETATM   15  C9  UNL     1      32.923  42.978  -9.224  1.00  0.00     0.137 A 
HETATM   16  O2  UNL     1      32.667  43.579  -8.204  1.00  0.00    -0.297 OA
HETATM   17  C10 UNL     1      33.418  42.867 -10.597  1.00  0.00     0.073 A 
BRANCH  17  18
HETATM   18  C11 UNL     1      32.550  43.331 -11.749  1.00  0.00     0.023 C 
HETATM   19  C12 UNL     1      33.114  42.722 -13.010  1.00  0.00     0.012 C 
BRANCH  18  20
HETATM   20  C13 UNL     1      32.491  44.839 -11.835  1.00  0.00     0.184 C 
HETATM   21  C14 UNL     1      31.407  45.167 -12.871  1.00  0.00     0.040 C 
BRANCH  20  22
HETATM   22  N2  UNL     1      33.732  45.408 -12.261  1.00  0.00    -0.075 N 
ATOM     23  H23 UNL     1      33.695  46.428 -12.241  1.00  0.00     0.274 HD
ATOM     24  H22 UNL     1      34.463  45.258 -11.566  1.00  0.00     0.274 HD
ATOM     25  H21 UNL     1      34.020  45.068 -13.178  1.00  0.00     0.274 HD
ENDBRANCH  20  22
ENDBRANCH  18  20
ENDBRANCH  17  18
ENDBRANCH   1  14
TORSDOF 9
ENDMDL
MODEL 2
REMARK VINA RESULT: -5.781736178      1.075      1.321
REMARK  9 active torsions:
REMARK  status: ('A' for Active; 'I' for Inactive)
REMARK    1  A    between atoms: C2_2  and  N1_3 
REMARK    2  A    between atoms: C2_2  and  C3_7 
REMARK    3  A    between atoms: C3_7  and  O1_8 
REMARK    4  A    between atoms: C3_7  and  C4_10 
REMARK    5  A    between atoms: C5_11  and  C6_12 
REMARK    6  A    between atoms: C6_12  and  C8_14 
REMARK    7  A    between atoms: C10_17  and  C11_18 
REMARK    8  A    between atoms: C11_18  and  C13_20 
REMARK    9  A    between atoms: C13_20  and  N2_22 
ROOT
HETATM    1  C6  UNL     1      34.230  40.552  -9.194  1.00  0.00     0.016 C 
HETATM    2  C7  UNL     1      34.510  39.376 -10.105  1.00  0.00     0.015 C 
ENDROOT
BRANCH   1   3
HETATM    3  C5  UNL     1      33.718  40.046  -7.896  1.00  0.00    -0.023 C 
HETATM    4  C4  UNL     1      34.347  40.077  -6.748  1.00  0.00     0.003 C 
BRANCH   4   5
HETATM    5  C3  UNL     1      35.700  40.625  -6.517  1.00  0.00     0.170 C 
BRANCH   5   6
HETATM    6  C2  UNL     1      35.668  42.064  -6.062  1.00  0.00     0.211 C 
HETATM    7  C1  UNL     1      36.464  42.159  -4.758  1.00  0.00     0.043 C 
BRANCH   6   8
HETATM    8  N1  UNL     1      34.364  42.568  -5.800  1.00  0.00    -0.073 N 
ATOM      9  H13 UNL     1      34.104  42.508  -4.816  1.00  0.00     0.274 HD
ATOM     10  H12 UNL     1      34.303  43.583  -5.891  1.00  0.00     0.274 HD
ATOM     11  H11 UNL     1      33.718  42.073  -6.415  1.00  0.00     0.274 HD
ENDBRANCH   6   8
ENDBRANCH   5   6
BRANCH   5  12
HETATM   12  O1  UNL     1      36.391  39.863  -5.546  1.00  0.00    -0.390 OA
ATOM     13  H1  UNL     1      36.969  39.257  -5.993  1.00  0.00     0.210 HD
ENDBRANCH   5  12
ENDBRANCH   4   5
ENDBRANCH   1   3
BRANCH   1  14
HETATM   14  C8  UNL     1      33.290  41.533  -9.856  1.00  0.00     0.074 A 
HETATM   15  C9  UNL     1      33.071  42.847  -9.171  1.00  0.00     0.137 A 
HETATM   16  O2  UNL     1      32.538  43.389  -8.227  1.00  0.00    -0.297 OA
HETATM   17  C10 UNL     1      33.881  42.823 -10.389  1.00  0.00     0.073 A 
BRANCH  17  18
HETATM   18  C11 UNL     1      33.276  43.272 -11.703  1.00  0.00     0.023 C 
HETATM   19  C12 UNL     1      33.530  44.755 -11.831  1.00  0.00     0.012 C 
BRANCH  18  20
HETATM   20  C13 UNL     1      31.802  42.949 -11.781  1.00  0.00     0.184 C 
HETATM   21  C14 UNL     1      31.624  42.055 -13.016  1.00  0.00     0.040 C 
BRANCH  20  22
HETATM   22  N2  UNL     1      30.996  44.121 -11.933  1.00  0.00    -0.075 N 
ATOM     23  H23 UNL     1      31.149  44.774 -11.165  1.00  0.00     0.274 HD
ATOM     24  H22 UNL     1      31.326  44.697 -12.706  1.00  0.00     0.274 HD
ATOM     25  H21 UNL     1      30.005  43.899 -12.035  1.00  0.00     0.274 HD
ENDBRANCH  20  22
ENDBRANCH  18  20
ENDBRANCH  17  18
ENDBRANCH   1  14
TORSDOF 9
ENDMDL
MODEL 3
REMARK VINA RESULT: -5.635632851      1.756      5.952
REMARK  9 active torsions:
REMARK  status: ('A' for Active; 'I' for Inactive)
REMARK    1  A    between atoms: C2_2  and  N1_3 
REMARK    2  A    between atoms: C2_2  and  C3_7 
REMARK    3  A    between atoms: C3_7  and  O1_8 
REMARK    4  A    between atoms: C3_7  and  C4_10 
REMARK    5  A    between atoms: C5_11  and  C6_12 
REMARK    6  A    between atoms: C6_12  and  C8_14 
REMARK    7  A    between atoms: C10_17  and  C11_18 
REMARK    8  A    between atoms: C11_18  and  C13_20 
REMARK    9  A    between atoms: C13_20  and  N2_22 
ROOT
HETATM    1  C6  UNL     1      32.924  40.480 -10.660  1.00  0.00     0.016 C 
HETATM    2  C7  UNL     1      32.766  38.975 -10.717  1.00  0.00     0.015 C 
ENDROOT
BRANCH   1   3
HETATM    3  C5  UNL     1      33.077  41.002 -12.041  1.00  0.00    -0.023 C 
HETATM    4  C4  UNL     1      32.479  42.052 -12.544  1.00  0.00     0.003 C 
BRANCH   4   5
HETATM    5  C3  UNL     1      31.527  42.931 -11.832  1.00  0.00     0.170 C 
BRANCH   5   6
HETATM    6  C2  UNL     1      31.899  44.390 -11.941  1.00  0.00     0.211 C 
HETATM    7  C1  UNL     1      33.214  44.478 -12.720  1.00  0.00     0.043 C 
BRANCH   6   8
HETATM    8  N1  UNL     1      32.102  45.039 -10.692  1.00  0.00    -0.073 N 
ATOM      9  H13 UNL     1      32.346  44.392  -9.941  1.00  0.00     0.274 HD
ATOM     10  H12 UNL     1      32.956  45.597 -10.667  1.00  0.00     0.274 HD
ATOM     11  H11 UNL     1      31.263  45.583 -10.492  1.00  0.00     0.274 HD
ENDBRANCH   6   8
ENDBRANCH   5   6
BRANCH   5  12
HETATM   12  O1  UNL     1      30.216  42.763 -12.336  1.00  0.00    -0.390 OA
ATOM     13  H1  UNL     1      29.858  41.957 -11.985  1.00  0.00     0.210 HD
ENDBRANCH   5  12
ENDBRANCH   4   5
ENDBRANCH   1   3
BRANCH   1  14
HETATM   14  C8  UNL     1      34.071  40.866  -9.755  1.00  0.00     0.074 A 
HETATM   15  C9  UNL     1      34.093  42.269  -9.231  1.00  0.00     0.137 A 
HETATM   16  O2  UNL     1      34.292  43.428  -9.525  1.00  0.00    -0.297 OA
HETATM   17  C10 UNL     1      33.748  41.187  -8.308  1.00  0.00     0.073 A 
BRANCH  17  18
HETATM   18  C11 UNL     1      34.782  40.677  -7.327  1.00  0.00     0.023 C 
HETATM   19  C12 UNL     1      34.124  39.598  -6.500  1.00  0.00     0.012 C 
BRANCH  18  20
HETATM   20  C13 UNL     1      35.329  41.788  -6.460  1.00  0.00     0.184 C 
HETATM   21  C14 UNL     1      36.208  41.111  -5.400  1.00  0.00     0.040 C 
BRANCH  20  22
HETATM   22  N2  UNL     1      34.293  42.527  -5.806  1.00  0.00    -0.075 N 
ATOM     23  H23 UNL     1      33.371  42.208  -6.102  1.00  0.00     0.274 HD
ATOM     24  H22 UNL     1      34.240  42.287  -4.816  1.00  0.00     0.274 HD
ATOM     25  H21 UNL     1      34.394  43.534  -5.936  1.00  0.00     0.274 HD
ENDBRANCH  20  22
ENDBRANCH  18  20
ENDBRANCH  17  18
ENDBRANCH   1  14
TORSDOF 9
ENDMDL
MODEL 4
REMARK VINA RESULT: -5.478316142      7.404      8.898
REMARK  9 active torsions:
REMARK  status: ('A' for Active; 'I' for Inactive)
REMARK    1  A    between atoms: C2_2  and  N1_3 
REMARK    2  A    between atoms: C2_2  and  C3_7 
REMARK    3  A    between atoms: C3_7  and  O1_8 
REMARK    4  A    between atoms: C3_7  and  C4_10 
REMARK    5  A    between atoms: C5_11  and  C6_12 
REMARK    6  A    between atoms: C6_12  and  C8_14 
REMARK    7  A    between atoms: C10_17  and  C11_18 
REMARK    8  A    between atoms: C11_18  and  C13_20 
REMARK    9  A    between atoms: C13_20  and  N2_22 
ROOT
HETATM    1  C6  UNL     1      38.428  39.732  -3.213  1.00  0.00     0.016 C 
HETATM    2  C7  UNL     1      38.112  38.917  -1.977  1.00  0.00     0.015 C 
ENDROOT
BRANCH   1   3
HETATM    3  C5  UNL     1      39.673  39.210  -3.831  1.00  0.00    -0.023 C 
HETATM    4  C4  UNL     1      39.749  38.331  -4.798  1.00  0.00     0.003 C 
BRANCH   4   5
HETATM    5  C3  UNL     1      38.604  37.680  -5.469  1.00  0.00     0.170 C 
BRANCH   5   6
HETATM    6  C2  UNL     1      38.993  37.047  -6.784  1.00  0.00     0.211 C 
HETATM    7  C1  UNL     1      38.423  35.626  -6.803  1.00  0.00     0.043 C 
BRANCH   6   8
HETATM    8  N1  UNL     1      40.396  36.943  -6.994  1.00  0.00    -0.073 N 
ATOM      9  H13 UNL     1      40.917  37.726  -6.600  1.00  0.00     0.274 HD
ATOM     10  H12 UNL     1      40.828  36.204  -6.440  1.00  0.00     0.274 HD
ATOM     11  H11 UNL     1      40.545  36.829  -7.996  1.00  0.00     0.274 HD
ENDBRANCH   6   8
ENDBRANCH   5   6
BRANCH   5  12
HETATM   12  O1  UNL     1      38.037  36.683  -4.641  1.00  0.00    -0.390 OA
ATOM     13  H1  UNL     1      37.646  37.105  -3.886  1.00  0.00     0.210 HD
ENDBRANCH   5  12
ENDBRANCH   4   5
ENDBRANCH   1   3
BRANCH   1  14
HETATM   14  C8  UNL     1      38.508  41.204  -2.880  1.00  0.00     0.074 A 
HETATM   15  C9  UNL     1      37.797  42.156  -3.793  1.00  0.00     0.137 A 
HETATM   16  O2  UNL     1      37.824  42.679  -4.885  1.00  0.00    -0.297 OA
HETATM   17  C10 UNL     1      37.227  41.903  -2.469  1.00  0.00     0.073 A 
BRANCH  17  18
HETATM   18  C11 UNL     1      37.417  42.919  -1.362  1.00  0.00     0.023 C 
HETATM   19  C12 UNL     1      36.543  42.491  -0.206  1.00  0.00     0.012 C 
BRANCH  18  20
HETATM   20  C13 UNL     1      37.086  44.319  -1.822  1.00  0.00     0.184 C 
HETATM   21  C14 UNL     1      37.873  45.268  -0.908  1.00  0.00     0.040 C 
BRANCH  20  22
HETATM   22  N2  UNL     1      35.692  44.614  -1.712  1.00  0.00    -0.075 N 
ATOM     23  H23 UNL     1      35.181  43.830  -1.304  1.00  0.00     0.274 HD
ATOM     24  H22 UNL     1      35.520  45.313  -0.990  1.00  0.00     0.274 HD
ATOM     25  H21 UNL     1      35.283  44.896  -2.603  1.00  0.00     0.274 HD
ENDBRANCH  20  22
ENDBRANCH  18  20
ENDBRANCH  17  18
ENDBRANCH   1  14
TORSDOF 9
ENDMDL
MODEL 5
REMARK VINA RESULT: -5.329047093      1.803      2.316
REMARK  9 active torsions:
REMARK  status: ('A' for Active; 'I' for Inactive)
REMARK    1  A    between atoms: C2_2  and  N1_3 
REMARK    2  A    between atoms: C2_2  and  C3_7 
REMARK    3  A    between atoms: C3_7  and  O1_8 
REMARK    4  A    between atoms: C3_7  and  C4_10 
REMARK    5  A    between atoms: C5_11  and  C6_12 
REMARK    6  A    between atoms: C6_12  and  C8_14 
REMARK    7  A    between atoms: C10_17  and  C11_18 
REMARK    8  A    between atoms: C11_18  and  C13_20 
REMARK    9  A    between atoms: C13_20  and  N2_22 
ROOT
HETATM    1  C6  UNL     1      35.126  40.321  -8.410  1.00  0.00     0.016 C 
HETATM    2  C7  UNL     1      35.717  39.252  -9.305  1.00  0.00     0.015 C 
ENDROOT
BRANCH   1   3
HETATM    3  C5  UNL     1      35.251  39.888  -6.995  1.00  0.00    -0.023 C 
HETATM    4  C4  UNL     1      35.457  40.665  -5.962  1.00  0.00     0.003 C 
BRANCH   4   5
HETATM    5  C3  UNL     1      35.608  42.135  -6.000  1.00  0.00     0.170 C 
BRANCH   5   6
HETATM    6  C2  UNL     1      36.021  42.705  -4.664  1.00  0.00     0.211 C 
HETATM    7  C1  UNL     1      37.536  42.531  -4.531  1.00  0.00     0.043 C 
BRANCH   6   8
HETATM    8  N1  UNL     1      35.421  42.067  -3.543  1.00  0.00    -0.073 N 
ATOM      9  H13 UNL     1      35.902  41.211  -3.267  1.00  0.00     0.274 HD
ATOM     10  H12 UNL     1      35.556  42.582  -2.672  1.00  0.00     0.274 HD
ATOM     11  H11 UNL     1      34.438  41.917  -3.769  1.00  0.00     0.274 HD
ENDBRANCH   6   8
ENDBRANCH   5   6
BRANCH   5  12
HETATM   12  O1  UNL     1      36.568  42.517  -6.966  1.00  0.00    -0.390 OA
ATOM     13  H1  UNL     1      37.433  42.328  -6.623  1.00  0.00     0.210 HD
ENDBRANCH   5  12
ENDBRANCH   4   5
ENDBRANCH   1   3
BRANCH   1  14
HETATM   14  C8  UNL     1      33.702  40.629  -8.808  1.00  0.00     0.074 A 
HETATM   15  C9  UNL     1      33.285  42.068  -8.820  1.00  0.00     0.137 A 
HETATM   16  O2  UNL     1      33.009  43.020  -8.122  1.00  0.00    -0.297 OA
HETATM   17  C10 UNL     1      33.481  41.388 -10.101  1.00  0.00     0.073 A 
BRANCH  17  18
HETATM   18  C11 UNL     1      32.279  40.911 -10.890  1.00  0.00     0.023 C 
HETATM   19  C12 UNL     1      32.596  39.523 -11.394  1.00  0.00     0.012 C 
BRANCH  18  20
HETATM   20  C13 UNL     1      31.941  41.852 -12.023  1.00  0.00     0.184 C 
HETATM   21  C14 UNL     1      33.255  42.544 -12.411  1.00  0.00     0.040 C 
BRANCH  20  22
HETATM   22  N2  UNL     1      30.986  42.844 -11.639  1.00  0.00    -0.075 N 
ATOM     23  H23 UNL     1      31.141  43.719 -12.141  1.00  0.00     0.274 HD
ATOM     24  H22 UNL     1      30.057  42.616 -11.991  1.00  0.00     0.274 HD
ATOM     25  H21 UNL     1      30.970  42.997 -10.630  1.00  0.00     0.274 HD
ENDBRANCH  20  22
ENDBRANCH  18  20
ENDBRANCH  17  18
ENDBRANCH   1  14
TORSDOF 9
ENDMDL
