MODEL 1
REMARK VINA RESULT: -6.425533152      0.000      0.000
REMARK  7 active torsions:
REMARK  status: ('A' for Active; 'I' for Inactive)
REMARK    1  A    between atoms: N1_1  and  C1_5 
REMARK    2  A    between atoms: C4_8  and  S1_9 
REMARK    3  A    between atoms: S1_9  and  C5_10 
REMARK    4  A    between atoms: C7_15  and  C8_16 
REMARK    5  A    between atoms: C8_16  and  N3_17 
REMARK    6  A    between atoms: C8_16  and  O1_21 
REMARK    7  A    between atoms: C9_23  and  O2_24 
ROOT
HETATM    1  C5  UNL     1      18.257  50.024  17.035  1.00  0.00     0.276 C 
HETATM    2  N2  UNL     1      17.104  50.748  17.565  1.00  0.00    -0.059 N 
ATOM      3  H21 UNL     1      17.318  51.418  18.303  1.00  0.00     0.278 HD
ATOM      4  H22 UNL     1      16.463  50.187  18.126  1.00  0.00     0.278 HD
HETATM    5  C6  UNL     1      16.521  51.327  16.356  1.00  0.00     0.245 C 
HETATM    6  C7  UNL     1      17.613  51.417  15.332  1.00  0.00     0.099 C 
HETATM    7  C9  UNL     1      18.853  51.135  16.172  1.00  0.00     0.168 C 
ENDROOT
BRANCH   1   8
HETATM    8  S1  UNL     1      17.704  48.765  15.877  1.00  0.00    -0.129 SA
BRANCH   8   9
HETATM    9  C4  UNL     1      18.100  47.088  16.383  1.00  0.00     0.051 C 
HETATM   10  C3  UNL     1      17.754  46.792  17.814  1.00  0.00     0.017 C 
HETATM   11  C2  UNL     1      17.178  45.401  17.861  1.00  0.00     0.034 C 
HETATM   12  C1  UNL     1      17.145  44.874  16.457  1.00  0.00     0.184 C 
HETATM   13  C10 UNL     1      17.454  46.033  15.533  1.00  0.00     0.048 C 
BRANCH  12  14
HETATM   14  N1  UNL     1      15.848  44.323  16.120  1.00  0.00    -0.075 N 
ATOM     15  H13 UNL     1      15.562  43.610  16.791  1.00  0.00     0.274 HD
ATOM     16  H12 UNL     1      15.104  45.001  16.280  1.00  0.00     0.274 HD
ATOM     17  H11 UNL     1      15.826  43.965  15.165  1.00  0.00     0.274 HD
ENDBRANCH  12  14
ENDBRANCH   8   9
ENDBRANCH   1   8
BRANCH   7  18
HETATM   18  O2  UNL     1      19.918  50.692  15.410  1.00  0.00    -0.392 OA
ATOM     19  H2  UNL     1      19.969  51.133  14.571  1.00  0.00     0.210 HD
ENDBRANCH   7  18
BRANCH   6  20
HETATM   20  C8  UNL     1      17.673  52.720  14.609  1.00  0.00     0.324 C 
BRANCH  20  21
HETATM   21  N3  UNL     1      16.380  53.275  14.293  1.00  0.00    -0.053 N 
ATOM     22  H33 UNL     1      15.637  52.687  14.669  1.00  0.00     0.277 HD
ATOM     23  H32 UNL     1      16.214  54.126  14.831  1.00  0.00     0.277 HD
ATOM     24  H31 UNL     1      16.233  53.446  13.298  1.00  0.00     0.277 HD
ENDBRANCH  20  21
BRANCH  20  25
HETATM   25  O1  UNL     1      18.341  52.476  13.398  1.00  0.00    -0.369 OA
ATOM     26  H1  UNL     1      18.862  53.249  13.215  1.00  0.00     0.212 HD
ENDBRANCH  20  25
ENDBRANCH   6  20
TORSDOF 7
ENDMDL
MODEL 2
REMARK VINA RESULT: -6.212359725      3.504      6.907
REMARK  7 active torsions:
REMARK  status: ('A' for Active; 'I' for Inactive)
REMARK    1  A    between atoms: N1_1  and  C1_5 
REMARK    2  A    between atoms: C4_8  and  S1_9 
REMARK    3  A    between atoms: S1_9  and  C5_10 
REMARK    4  A    between atoms: C7_15  and  C8_16 
REMARK    5  A    between atoms: C8_16  and  N3_17 
REMARK    6  A    between atoms: C8_16  and  O1_21 
REMARK    7  A    between atoms: C9_23  and  O2_24 
ROOT
HETATM    1  C5  UNL     1      18.055  45.404  16.383  1.00  0.00     0.276 C 
HETATM    2  N2  UNL     1      19.142  44.674  15.733  1.00  0.00    -0.059 N 
ATOM      3  H21 UNL     1      19.562  43.936  16.297  1.00  0.00     0.278 HD
ATOM      4  H22 UNL     1      20.004  45.205  15.610  1.00  0.00     0.278 HD
HETATM    5  C6  UNL     1      18.512  44.222  14.495  1.00  0.00     0.245 C 
HETATM    6  C7  UNL     1      17.032  44.187  14.732  1.00  0.00     0.099 C 
HETATM    7  C9  UNL     1      16.954  44.353  16.245  1.00  0.00     0.168 C 
ENDROOT
BRANCH   1   8
HETATM    8  S1  UNL     1      17.539  46.777  15.343  1.00  0.00    -0.129 SA
BRANCH   8   9
HETATM    9  C4  UNL     1      17.842  48.391  16.069  1.00  0.00     0.051 C 
HETATM   10  C3  UNL     1      19.279  48.631  16.426  1.00  0.00     0.017 C 
HETATM   11  C2  UNL     1      19.606  50.055  16.055  1.00  0.00     0.034 C 
HETATM   12  C1  UNL     1      18.377  50.659  15.444  1.00  0.00     0.184 C 
HETATM   13  C10 UNL     1      17.393  49.534  15.204  1.00  0.00     0.048 C 
BRANCH  12  14
HETATM   14  N1  UNL     1      18.669  51.317  14.187  1.00  0.00    -0.075 N 
ATOM     15  H13 UNL     1      18.855  50.639  13.447  1.00  0.00     0.274 HD
ATOM     16  H12 UNL     1      17.836  51.756  13.795  1.00  0.00     0.274 HD
ATOM     17  H11 UNL     1      19.434  51.986  14.278  1.00  0.00     0.274 HD
ENDBRANCH  12  14
ENDBRANCH   8   9
ENDBRANCH   1   8
BRANCH   7  18
HETATM   18  O2  UNL     1      15.724  44.827  16.663  1.00  0.00    -0.392 OA
ATOM     19  H2  UNL     1      15.379  44.332  17.397  1.00  0.00     0.210 HD
ENDBRANCH   7  18
BRANCH   6  20
HETATM   20  C8  UNL     1      16.359  42.950  14.239  1.00  0.00     0.324 C 
BRANCH  20  21
HETATM   21  N3  UNL     1      16.164  41.944  15.254  1.00  0.00    -0.053 N 
ATOM     22  H33 UNL     1      17.024  41.419  15.407  1.00  0.00     0.277 HD
ATOM     23  H32 UNL     1      16.061  42.377  16.172  1.00  0.00     0.277 HD
ATOM     24  H31 UNL     1      15.386  41.312  15.067  1.00  0.00     0.277 HD
ENDBRANCH  20  21
BRANCH  20  25
HETATM   25  O1  UNL     1      17.195  42.405  13.252  1.00  0.00    -0.369 OA
ATOM     26  H1  UNL     1      17.259  43.055  12.562  1.00  0.00     0.212 HD
ENDBRANCH  20  25
ENDBRANCH   6  20
TORSDOF 7
ENDMDL
MODEL 3
REMARK VINA RESULT: -6.101720455      1.324      1.645
REMARK  7 active torsions:
REMARK  status: ('A' for Active; 'I' for Inactive)
REMARK    1  A    between atoms: N1_1  and  C1_5 
REMARK    2  A    between atoms: C4_8  and  S1_9 
REMARK    3  A    between atoms: S1_9  and  C5_10 
REMARK    4  A    between atoms: C7_15  and  C8_16 
REMARK    5  A    between atoms: C8_16  and  N3_17 
REMARK    6  A    between atoms: C8_16  and  O1_21 
REMARK    7  A    between atoms: C9_23  and  O2_24 
ROOT
HETATM    1  C5  UNL     1      18.262  49.884  16.866  1.00  0.00     0.276 C 
HETATM    2  N2  UNL     1      17.089  50.550  17.427  1.00  0.00    -0.059 N 
ATOM      3  H21 UNL     1      17.280  51.164  18.219  1.00  0.00     0.278 HD
ATOM      4  H22 UNL     1      16.446  49.939  17.932  1.00  0.00     0.278 HD
HETATM    5  C6  UNL     1      16.520  51.211  16.256  1.00  0.00     0.245 C 
HETATM    6  C7  UNL     1      17.628  51.394  15.263  1.00  0.00     0.099 C 
HETATM    7  C9  UNL     1      18.857  51.065  16.102  1.00  0.00     0.168 C 
ENDROOT
BRANCH   1   8
HETATM    8  S1  UNL     1      17.747  48.709  15.605  1.00  0.00    -0.129 SA
BRANCH   8   9
HETATM    9  C4  UNL     1      17.541  47.033  16.215  1.00  0.00     0.051 C 
HETATM   10  C3  UNL     1      17.502  45.997  15.129  1.00  0.00     0.017 C 
HETATM   11  C2  UNL     1      18.289  44.806  15.612  1.00  0.00     0.034 C 
HETATM   12  C1  UNL     1      18.829  45.138  16.972  1.00  0.00     0.184 C 
HETATM   13  C10 UNL     1      18.593  46.616  17.201  1.00  0.00     0.048 C 
BRANCH  12  14
HETATM   14  N1  UNL     1      20.247  44.857  17.071  1.00  0.00    -0.075 N 
ATOM     15  H13 UNL     1      20.623  45.159  17.970  1.00  0.00     0.274 HD
ATOM     16  H12 UNL     1      20.422  43.856  17.153  1.00  0.00     0.274 HD
ATOM     17  H11 UNL     1      20.768  45.263  16.294  1.00  0.00     0.274 HD
ENDBRANCH  12  14
ENDBRANCH   8   9
ENDBRANCH   1   8
BRANCH   7  18
HETATM   18  O2  UNL     1      19.942  50.695  15.329  1.00  0.00    -0.392 OA
ATOM     19  H2  UNL     1      20.593  50.218  15.829  1.00  0.00     0.210 HD
ENDBRANCH   7  18
BRANCH   6  20
HETATM   20  C8  UNL     1      17.682  52.750  14.642  1.00  0.00     0.324 C 
BRANCH  20  21
HETATM   21  N3  UNL     1      16.387  53.317  14.360  1.00  0.00    -0.053 N 
ATOM     22  H33 UNL     1      16.049  53.003  13.450  1.00  0.00     0.277 HD
ATOM     23  H32 UNL     1      15.675  52.901  14.960  1.00  0.00     0.277 HD
ATOM     24  H31 UNL     1      16.357  54.335  14.422  1.00  0.00     0.277 HD
ENDBRANCH  20  21
BRANCH  20  25
HETATM   25  O1  UNL     1      18.361  52.604  13.421  1.00  0.00    -0.369 OA
ATOM     26  H1  UNL     1      18.366  51.675  13.223  1.00  0.00     0.212 HD
ENDBRANCH  20  25
ENDBRANCH   6  20
TORSDOF 7
ENDMDL
MODEL 4
REMARK VINA RESULT: -6.016753833      3.841      7.287
REMARK  7 active torsions:
REMARK  status: ('A' for Active; 'I' for Inactive)
REMARK    1  A    between atoms: N1_1  and  C1_5 
REMARK    2  A    between atoms: C4_8  and  S1_9 
REMARK    3  A    between atoms: S1_9  and  C5_10 
REMARK    4  A    between atoms: C7_15  and  C8_16 
REMARK    5  A    between atoms: C8_16  and  N3_17 
REMARK    6  A    between atoms: C8_16  and  O1_21 
REMARK    7  A    between atoms: C9_23  and  O2_24 
ROOT
HETATM    1  C5  UNL     1      18.511  44.567  15.104  1.00  0.00     0.276 C 
HETATM    2  N2  UNL     1      18.466  43.763  13.885  1.00  0.00    -0.059 N 
ATOM      3  H21 UNL     1      19.134  42.992  13.852  1.00  0.00     0.278 HD
ATOM      4  H22 UNL     1      18.816  44.230  13.048  1.00  0.00     0.278 HD
HETATM    5  C6  UNL     1      17.061  43.366  13.829  1.00  0.00     0.245 C 
HETATM    6  C7  UNL     1      16.520  43.438  15.226  1.00  0.00     0.099 C 
HETATM    7  C9  UNL     1      17.794  43.602  16.046  1.00  0.00     0.168 C 
ENDROOT
BRANCH   1   8
HETATM    8  S1  UNL     1      17.412  45.980  14.940  1.00  0.00    -0.129 SA
BRANCH   8   9
HETATM    9  C4  UNL     1      17.834  47.358  16.012  1.00  0.00     0.051 C 
HETATM   10  C3  UNL     1      19.297  47.443  16.336  1.00  0.00     0.017 C 
HETATM   11  C2  UNL     1      19.685  48.898  16.298  1.00  0.00     0.034 C 
HETATM   12  C1  UNL     1      18.465  49.685  15.918  1.00  0.00     0.184 C 
HETATM   13  C10 UNL     1      17.411  48.694  15.472  1.00  0.00     0.048 C 
BRANCH  12  14
HETATM   14  N1  UNL     1      18.738  50.613  14.840  1.00  0.00    -0.075 N 
ATOM     15  H13 UNL     1      19.672  50.471  14.455  1.00  0.00     0.274 HD
ATOM     16  H12 UNL     1      18.189  50.391  14.010  1.00  0.00     0.274 HD
ATOM     17  H11 UNL     1      18.599  51.581  15.129  1.00  0.00     0.274 HD
ENDBRANCH  12  14
ENDBRANCH   8   9
ENDBRANCH   1   8
BRANCH   7  18
HETATM   18  O2  UNL     1      17.555  44.162  17.287  1.00  0.00    -0.392 OA
ATOM     19  H2  UNL     1      17.209  43.531  17.906  1.00  0.00     0.210 HD
ENDBRANCH   7  18
BRANCH   6  20
HETATM   20  C8  UNL     1      15.704  42.257  15.632  1.00  0.00     0.324 C 
BRANCH  20  21
HETATM   21  N3  UNL     1      16.480  41.161  16.156  1.00  0.00    -0.053 N 
ATOM     22  H33 UNL     1      17.237  40.921  15.517  1.00  0.00     0.277 HD
ATOM     23  H32 UNL     1      17.025  41.462  16.964  1.00  0.00     0.277 HD
ATOM     24  H31 UNL     1      15.928  40.334  16.385  1.00  0.00     0.277 HD
ENDBRANCH  20  21
BRANCH  20  25
HETATM   25  O1  UNL     1      15.051  41.805  14.474  1.00  0.00    -0.369 OA
ATOM     26  H1  UNL     1      15.055  40.855  14.515  1.00  0.00     0.212 HD
ENDBRANCH  20  25
ENDBRANCH   6  20
TORSDOF 7
ENDMDL
MODEL 5
REMARK VINA RESULT: -5.928674948      2.007      2.610
REMARK  7 active torsions:
REMARK  status: ('A' for Active; 'I' for Inactive)
REMARK    1  A    between atoms: N1_1  and  C1_5 
REMARK    2  A    between atoms: C4_8  and  S1_9 
REMARK    3  A    between atoms: S1_9  and  C5_10 
REMARK    4  A    between atoms: C7_15  and  C8_16 
REMARK    5  A    between atoms: C8_16  and  N3_17 
REMARK    6  A    between atoms: C8_16  and  O1_21 
REMARK    7  A    between atoms: C9_23  and  O2_24 
ROOT
HETATM    1  C5  UNL     1      18.690  47.819  17.463  1.00  0.00     0.276 C 
HETATM    2  N2  UNL     1      17.949  48.802  18.250  1.00  0.00    -0.059 N 
ATOM      3  H21 UNL     1      18.465  49.204  19.033  1.00  0.00     0.278 HD
ATOM      4  H22 UNL     1      17.194  48.418  18.819  1.00  0.00     0.278 HD
HETATM    5  C6  UNL     1      17.528  49.760  17.231  1.00  0.00     0.245 C 
HETATM    6  C7  UNL     1      18.479  49.634  16.079  1.00  0.00     0.099 C 
HETATM    7  C9  UNL     1      19.587  48.777  16.680  1.00  0.00     0.168 C 
ENDROOT
BRANCH   1   8
HETATM    8  S1  UNL     1      17.601  47.077  16.239  1.00  0.00    -0.129 SA
BRANCH   8   9
HETATM    9  C4  UNL     1      17.708  45.286  16.164  1.00  0.00     0.051 C 
HETATM   10  C3  UNL     1      16.373  44.604  16.093  1.00  0.00     0.017 C 
HETATM   11  C2  UNL     1      16.498  43.465  15.115  1.00  0.00     0.034 C 
HETATM   12  C1  UNL     1      17.896  43.482  14.573  1.00  0.00     0.184 C 
HETATM   13  C10 UNL     1      18.537  44.779  15.019  1.00  0.00     0.048 C 
BRANCH  12  14
HETATM   14  N1  UNL     1      17.914  43.410  13.126  1.00  0.00    -0.075 N 
ATOM     15  H13 UNL     1      17.331  44.138  12.711  1.00  0.00     0.274 HD
ATOM     16  H12 UNL     1      18.818  43.697  12.751  1.00  0.00     0.274 HD
ATOM     17  H11 UNL     1      17.648  42.485  12.790  1.00  0.00     0.274 HD
ENDBRANCH  12  14
ENDBRANCH   8   9
ENDBRANCH   1   8
BRANCH   7  18
HETATM   18  O2  UNL     1      20.333  48.125  15.716  1.00  0.00    -0.392 OA
ATOM     19  H2  UNL     1      21.249  48.054  15.957  1.00  0.00     0.210 HD
ENDBRANCH   7  18
BRANCH   6  20
HETATM   20  C8  UNL     1      18.968  50.936  15.538  1.00  0.00     0.324 C 
BRANCH  20  21
HETATM   21  N3  UNL     1      18.533  51.211  14.191  1.00  0.00    -0.053 N 
ATOM     22  H33 UNL     1      19.329  51.454  13.601  1.00  0.00     0.277 HD
ATOM     23  H32 UNL     1      18.233  50.352  13.729  1.00  0.00     0.277 HD
ATOM     24  H31 UNL     1      17.808  51.925  14.126  1.00  0.00     0.277 HD
ENDBRANCH  20  21
BRANCH  20  25
HETATM   25  O1  UNL     1      20.370  50.865  15.529  1.00  0.00    -0.369 OA
ATOM     26  H1  UNL     1      20.639  50.715  16.428  1.00  0.00     0.212 HD
ENDBRANCH  20  25
ENDBRANCH   6  20
TORSDOF 7
ENDMDL
