MODEL 1
REMARK VINA RESULT: -4.487253115      0.000      0.000
REMARK  0 active torsions:
REMARK  status: ('A' for Active; 'I' for Inactive)
ROOT
HETATM    1  C1  UNL     1      33.250  18.984  60.224  1.00  0.00     0.003 A 
HETATM    2  C2  UNL     1      34.065  20.094  60.192  1.00  0.00     0.017 A 
HETATM    3  C3  UNL     1      35.312  19.953  59.622  1.00  0.00     0.087 A 
HETATM    4  N1  UNL     1      35.699  18.766  59.120  1.00  0.00    -0.375 N 
ATOM      5  H1  UNL     1      36.629  18.701  58.705  1.00  0.00     0.164 HD
HETATM    6  C4  UNL     1      34.936  17.660  59.132  1.00  0.00     0.087 A 
HETATM    7  C5  UNL     1      33.684  17.784  59.699  1.00  0.00     0.017 A 
ENDROOT
TORSDOF 0
ENDMDL
MODEL 2
REMARK VINA RESULT: -4.407057588      7.002      8.049
REMARK  0 active torsions:
REMARK  status: ('A' for Active; 'I' for Inactive)
ROOT
HETATM    1  C1  UNL     1      38.445  24.668  54.180  1.00  0.00     0.003 A 
HETATM    2  C2  UNL     1      37.116  24.996  54.034  1.00  0.00     0.017 A 
HETATM    3  C3  UNL     1      36.265  24.683  55.073  1.00  0.00     0.087 A 
HETATM    4  N1  UNL     1      36.736  24.082  56.180  1.00  0.00    -0.375 N 
ATOM      5  H1  UNL     1      36.076  23.868  56.927  1.00  0.00     0.164 HD
HETATM    6  C4  UNL     1      38.025  23.746  56.362  1.00  0.00     0.087 A 
HETATM    7  C5  UNL     1      38.890  24.051  55.332  1.00  0.00     0.017 A 
ENDROOT
TORSDOF 0
ENDMDL
MODEL 3
REMARK VINA RESULT: -4.403469345      0.154      1.951
REMARK  0 active torsions:
REMARK  status: ('A' for Active; 'I' for Inactive)
ROOT
HETATM    1  C1  UNL     1      33.299  18.787  60.175  1.00  0.00     0.003 A 
HETATM    2  C2  UNL     1      33.799  17.606  59.672  1.00  0.00     0.017 A 
HETATM    3  C3  UNL     1      35.067  17.630  59.133  1.00  0.00     0.087 A 
HETATM    4  N1  UNL     1      35.775  18.774  59.111  1.00  0.00    -0.375 N 
ATOM      5  H1  UNL     1      36.711  18.751  58.705  1.00  0.00     0.164 HD
HETATM    6  C4  UNL     1      35.324  19.946  59.590  1.00  0.00     0.087 A 
HETATM    7  C5  UNL     1      34.056  19.940  60.132  1.00  0.00     0.017 A 
ENDROOT
TORSDOF 0
ENDMDL
MODEL 4
REMARK VINA RESULT: -4.385352668      6.997      8.082
REMARK  0 active torsions:
REMARK  status: ('A' for Active; 'I' for Inactive)
ROOT
HETATM    1  C1  UNL     1      38.507  24.629  54.227  1.00  0.00     0.003 A 
HETATM    2  C2  UNL     1      38.937  23.999  55.373  1.00  0.00     0.017 A 
HETATM    3  C3  UNL     1      37.998  23.743  56.349  1.00  0.00     0.087 A 
HETATM    4  N1  UNL     1      36.715  24.102  56.168  1.00  0.00    -0.375 N 
ATOM      5  H1  UNL     1      36.049  23.894  56.913  1.00  0.00     0.164 HD
HETATM    6  C4  UNL     1      36.255  24.718  55.066  1.00  0.00     0.087 A 
HETATM    7  C5  UNL     1      37.181  24.983  54.079  1.00  0.00     0.017 A 
ENDROOT
TORSDOF 0
ENDMDL
MODEL 5
REMARK VINA RESULT: -4.347162179      1.300      2.691
REMARK  0 active torsions:
REMARK  status: ('A' for Active; 'I' for Inactive)
ROOT
HETATM    1  C1  UNL     1      35.532  19.303  59.632  1.00  0.00     0.003 A 
HETATM    2  C2  UNL     1      35.176  17.993  59.396  1.00  0.00     0.017 A 
HETATM    3  C3  UNL     1      33.864  17.639  59.627  1.00  0.00     0.087 A 
HETATM    4  N1  UNL     1      32.980  18.554  60.066  1.00  0.00    -0.375 N 
ATOM      5  H1  UNL     1      32.018  18.253  60.224  1.00  0.00     0.164 HD
HETATM    6  C4  UNL     1      33.287  19.839  60.309  1.00  0.00     0.087 A 
HETATM    7  C5  UNL     1      34.596  20.211  60.083  1.00  0.00     0.017 A 
ENDROOT
TORSDOF 0
ENDMDL
