MODEL 1
REMARK VINA RESULT: -7.523132626      0.000      0.000
REMARK  1 active torsions:
REMARK  status: ('A' for Active; 'I' for Inactive)
REMARK    1  A    between atoms: C5_10  and  C6_11 
ROOT
HETATM    1  N1  UNL     1      18.635   5.622  12.144  1.00  0.00    -0.388 N 
ATOM      2  H11 UNL     1      18.507   5.698  11.135  1.00  0.00     0.157 HD
ATOM      3  H12 UNL     1      19.395   6.295  12.051  1.00  0.00     0.157 HD
HETATM    4  C1  UNL     1      18.054   4.948  13.072  1.00  0.00     0.088 C 
HETATM    5  N2  UNL     1      18.231   4.842  14.471  1.00  0.00    -0.352 N 
ATOM      6  H2  UNL     1      19.011   4.950  15.119  1.00  0.00     0.163 HD
HETATM    7  C2  UNL     1      16.837   4.515  14.583  1.00  0.00     0.122 C 
HETATM    8  C3  UNL     1      15.909   5.687  14.780  1.00  0.00     0.061 C 
HETATM    9  C4  UNL     1      14.713   5.030  15.409  1.00  0.00     0.062 C 
HETATM   10  C5  UNL     1      15.320   3.859  16.100  1.00  0.00     0.049 C 
HETATM   11  N3  UNL     1      16.482   3.603  15.625  1.00  0.00    -0.365 N 
ATOM     12  H3  UNL     1      17.079   2.844  15.950  1.00  0.00     0.161 HD
HETATM   13  C7  UNL     1      16.945   3.965  13.207  1.00  0.00     0.083 C 
HETATM   14  C8  UNL     1      15.784   4.177  12.291  1.00  0.00     0.026 C 
HETATM   15  C9  UNL     1      16.075   3.552  10.950  1.00  0.00     0.028 C 
HETATM   16  C10 UNL     1      16.594   2.141  11.068  1.00  0.00     0.167 C 
HETATM   17  O1  UNL     1      16.605   1.727  12.420  1.00  0.00    -0.390 OA
HETATM   18  C11 UNL     1      17.459   2.565  13.132  1.00  0.00     0.189 C 
ENDROOT
BRANCH  10  19
HETATM   19  C6  UNL     1      14.606   3.134  17.190  1.00  0.00     0.398 C 
HETATM   20  F1  UNL     1      13.262   2.984  16.856  1.00  0.00    -0.208 F 
HETATM   21  F2  UNL     1      14.653   3.826  18.383  1.00  0.00    -0.208 F 
ENDBRANCH  10  19
TORSDOF 1
ENDMDL
MODEL 2
REMARK VINA RESULT: -7.180791945      0.998      1.051
REMARK  1 active torsions:
REMARK  status: ('A' for Active; 'I' for Inactive)
REMARK    1  A    between atoms: C5_10  and  C6_11 
ROOT
HETATM    1  N1  UNL     1      18.834   4.939  11.318  1.00  0.00    -0.388 N 
ATOM      2  H11 UNL     1      18.773   4.659  10.338  1.00  0.00     0.157 HD
ATOM      3  H12 UNL     1      19.621   5.530  11.049  1.00  0.00     0.157 HD
HETATM    4  C1  UNL     1      18.175   4.637  12.378  1.00  0.00     0.088 C 
HETATM    5  N2  UNL     1      18.261   5.025  13.736  1.00  0.00    -0.352 N 
ATOM      6  H2  UNL     1      19.001   5.345  14.359  1.00  0.00     0.163 HD
HETATM    7  C2  UNL     1      16.852   4.770  13.857  1.00  0.00     0.122 C 
HETATM    8  C3  UNL     1      15.953   5.945  13.569  1.00  0.00     0.061 C 
HETATM    9  C4  UNL     1      14.699   5.560  14.301  1.00  0.00     0.062 C 
HETATM   10  C5  UNL     1      15.224   4.698  15.397  1.00  0.00     0.049 C 
HETATM   11  N3  UNL     1      16.403   4.283  15.124  1.00  0.00    -0.365 N 
ATOM     12  H3  UNL     1      16.954   3.679  15.734  1.00  0.00     0.161 HD
HETATM   13  C7  UNL     1      17.028   3.773  12.769  1.00  0.00     0.083 C 
HETATM   14  C8  UNL     1      15.934   3.662  11.758  1.00  0.00     0.026 C 
HETATM   15  C9  UNL     1      16.288   2.605  10.742  1.00  0.00     0.028 C 
HETATM   16  C10 UNL     1      16.751   1.320  11.379  1.00  0.00     0.167 C 
HETATM   17  O1  UNL     1      16.665   1.404  12.788  1.00  0.00    -0.390 OA
HETATM   18  C11 UNL     1      17.500   2.430  13.222  1.00  0.00     0.189 C 
ENDROOT
BRANCH  10  19
HETATM   19  C6  UNL     1      14.419   4.406  16.618  1.00  0.00     0.398 C 
HETATM   20  F1  UNL     1      13.482   3.414  16.341  1.00  0.00    -0.208 F 
HETATM   21  F2  UNL     1      13.720   5.515  17.050  1.00  0.00    -0.208 F 
ENDBRANCH  10  19
TORSDOF 1
ENDMDL
MODEL 3
REMARK VINA RESULT: -7.164040242      2.151      3.311
REMARK  1 active torsions:
REMARK  status: ('A' for Active; 'I' for Inactive)
REMARK    1  A    between atoms: C5_10  and  C6_11 
ROOT
HETATM    1  N1  UNL     1      18.663   4.208  11.922  1.00  0.00    -0.388 N 
ATOM      2  H11 UNL     1      19.580   4.645  11.829  1.00  0.00     0.157 HD
ATOM      3  H12 UNL     1      18.890   3.665  11.089  1.00  0.00     0.157 HD
HETATM    4  C1  UNL     1      17.691   4.334  12.753  1.00  0.00     0.088 C 
HETATM    5  N2  UNL     1      16.419   3.728  12.881  1.00  0.00    -0.352 N 
ATOM      6  H2  UNL     1      15.743   3.307  12.245  1.00  0.00     0.163 HD
HETATM    7  C2  UNL     1      16.492   3.966  14.296  1.00  0.00     0.122 C 
HETATM    8  C3  UNL     1      17.112   2.857  15.109  1.00  0.00     0.061 C 
HETATM    9  C4  UNL     1      16.543   3.123  16.474  1.00  0.00     0.062 C 
HETATM   10  C5  UNL     1      15.251   3.790  16.155  1.00  0.00     0.049 C 
HETATM   11  N3  UNL     1      15.254   4.240  14.957  1.00  0.00    -0.365 N 
ATOM     12  H3  UNL     1      14.472   4.733  14.527  1.00  0.00     0.161 HD
HETATM   13  C7  UNL     1      17.359   5.127  13.968  1.00  0.00     0.083 C 
HETATM   14  C8  UNL     1      18.505   5.408  14.884  1.00  0.00     0.026 C 
HETATM   15  C9  UNL     1      19.264   6.615  14.393  1.00  0.00     0.028 C 
HETATM   16  C10 UNL     1      18.358   7.776  14.070  1.00  0.00     0.167 C 
HETATM   17  O1  UNL     1      17.015   7.463  14.383  1.00  0.00    -0.390 OA
HETATM   18  C11 UNL     1      16.622   6.375  13.607  1.00  0.00     0.189 C 
ENDROOT
BRANCH  10  19
HETATM   19  C6  UNL     1      14.147   3.881  17.155  1.00  0.00     0.398 C 
HETATM   20  F1  UNL     1      14.679   4.040  18.433  1.00  0.00    -0.208 F 
HETATM   21  F2  UNL     1      13.377   2.736  17.176  1.00  0.00    -0.208 F 
ENDBRANCH  10  19
TORSDOF 1
ENDMDL
MODEL 4
REMARK VINA RESULT: -6.457300568      4.142      5.218
REMARK  1 active torsions:
REMARK  status: ('A' for Active; 'I' for Inactive)
REMARK    1  A    between atoms: C5_10  and  C6_11 
ROOT
HETATM    1  N1  UNL     1      21.166   7.131  11.389  1.00  0.00    -0.388 N 
ATOM      2  H11 UNL     1      21.217   7.907  10.729  1.00  0.00     0.157 HD
ATOM      3  H12 UNL     1      21.645   7.731  12.059  1.00  0.00     0.157 HD
HETATM    4  C1  UNL     1      20.689   5.939  11.334  1.00  0.00     0.088 C 
HETATM    5  N2  UNL     1      20.619   4.862  12.249  1.00  0.00    -0.352 N 
ATOM      6  H2  UNL     1      21.171   4.541  13.044  1.00  0.00     0.163 HD
HETATM    7  C2  UNL     1      19.433   4.416  11.573  1.00  0.00     0.122 C 
HETATM    8  C3  UNL     1      18.134   4.966  12.106  1.00  0.00     0.061 C 
HETATM    9  C4  UNL     1      17.146   3.940  11.629  1.00  0.00     0.062 C 
HETATM   10  C5  UNL     1      17.979   2.708  11.553  1.00  0.00     0.049 C 
HETATM   11  N3  UNL     1      19.225   3.002  11.525  1.00  0.00    -0.365 N 
ATOM     12  H3  UNL     1      19.975   2.314  11.473  1.00  0.00     0.161 HD
HETATM   13  C7  UNL     1      19.989   5.062  10.356  1.00  0.00     0.083 C 
HETATM   14  C8  UNL     1      19.028   5.755   9.446  1.00  0.00     0.026 C 
HETATM   15  C9  UNL     1      19.772   6.344   8.274  1.00  0.00     0.028 C 
HETATM   16  C10 UNL     1      20.717   5.359   7.634  1.00  0.00     0.167 C 
HETATM   17  O1  UNL     1      20.612   4.093   8.253  1.00  0.00    -0.390 OA
HETATM   18  C11 UNL     1      20.965   4.226   9.594  1.00  0.00     0.189 C 
ENDROOT
BRANCH  10  19
HETATM   19  C6  UNL     1      17.367   1.349  11.520  1.00  0.00     0.398 C 
HETATM   20  F1  UNL     1      16.925   0.998  12.794  1.00  0.00    -0.208 F 
HETATM   21  F2  UNL     1      18.275   0.386  11.127  1.00  0.00    -0.208 F 
ENDBRANCH  10  19
TORSDOF 1
ENDMDL
MODEL 5
REMARK VINA RESULT: -6.373243306      3.841      5.350
REMARK  1 active torsions:
REMARK  status: ('A' for Active; 'I' for Inactive)
REMARK    1  A    between atoms: C5_10  and  C6_11 
ROOT
HETATM    1  N1  UNL     1      14.788   4.891  15.447  1.00  0.00    -0.388 N 
ATOM      2  H11 UNL     1      14.283   5.760  15.623  1.00  0.00     0.157 HD
ATOM      3  H12 UNL     1      14.115   4.431  16.058  1.00  0.00     0.157 HD
HETATM    4  C1  UNL     1      15.821   4.582  14.747  1.00  0.00     0.088 C 
HETATM    5  N2  UNL     1      16.522   3.378  14.502  1.00  0.00    -0.352 N 
ATOM      6  H2  UNL     1      16.679   2.508  15.011  1.00  0.00     0.163 HD
HETATM    7  C2  UNL     1      16.916   3.911  13.229  1.00  0.00     0.122 C 
HETATM    8  C3  UNL     1      15.984   3.612  12.082  1.00  0.00     0.061 C 
HETATM    9  C4  UNL     1      16.894   3.770  10.897  1.00  0.00     0.062 C 
HETATM   10  C5  UNL     1      18.225   3.432  11.472  1.00  0.00     0.049 C 
HETATM   11  N3  UNL     1      18.204   3.519  12.749  1.00  0.00    -0.365 N 
ATOM     12  H3  UNL     1      19.007   3.332  13.350  1.00  0.00     0.161 HD
HETATM   13  C7  UNL     1      16.805   5.254  13.855  1.00  0.00     0.083 C 
HETATM   14  C8  UNL     1      16.257   6.361  13.013  1.00  0.00     0.026 C 
HETATM   15  C9  UNL     1      16.221   7.638  13.814  1.00  0.00     0.028 C 
HETATM   16  C10 UNL     1      17.522   7.912  14.526  1.00  0.00     0.167 C 
HETATM   17  O1  UNL     1      18.484   6.929  14.200  1.00  0.00    -0.390 OA
HETATM   18  C11 UNL     1      18.011   5.689  14.621  1.00  0.00     0.189 C 
ENDROOT
BRANCH  10  19
HETATM   19  C6  UNL     1      19.380   3.054  10.607  1.00  0.00     0.398 C 
HETATM   20  F1  UNL     1      20.126   2.053  11.226  1.00  0.00    -0.208 F 
HETATM   21  F2  UNL     1      20.232   4.119  10.392  1.00  0.00    -0.208 F 
ENDBRANCH  10  19
TORSDOF 1
ENDMDL
