MODEL 1
REMARK VINA RESULT: -6.986452445      0.000      0.000
REMARK  11 active torsions:
REMARK  status: ('A' for Active; 'I' for Inactive)
REMARK       I    between atoms: N1_2  and  C3_4 
REMARK    1  A    between atoms: C3_4  and  C4_6 
REMARK    2  A    between atoms: C4_6  and  S1_7 
REMARK    3  A    between atoms: S1_7  and  C5_8 
REMARK    4  A    between atoms: C8_14  and  C9_15 
REMARK    5  A    between atoms: C11_18  and  C12_19 
REMARK    6  A    between atoms: C12_19  and  O2_20 
REMARK    7  A    between atoms: C12_19  and  N3_22 
REMARK    8  A    between atoms: N3_22  and  C13_24 
REMARK    9  A    between atoms: C13_24  and  C14_25 
REMARK   10  A    between atoms: C14_25  and  C15_26 
REMARK   11  A    between atoms: C15_26  and  O3_27 
ROOT
HETATM    1  C9  UNL     1      13.143 -15.007  20.007  1.00  0.00    -0.047 C 
HETATM    2  C10 UNL     1      12.216 -15.693  19.569  1.00  0.00     0.010 C 
HETATM    3 CL2  UNL     1      10.936 -16.672  18.958  1.00  0.00    -0.023 Cl
ENDROOT
BRANCH   1   4
HETATM    4  C8  UNL     1      14.285 -14.199  20.513  1.00  0.00     0.056 A 
HETATM    5  C7  UNL     1      15.454 -14.768  20.952  1.00  0.00     0.057 A 
HETATM    6  C6  UNL     1      15.800 -16.131  21.017  1.00  0.00     0.120 A 
HETATM    7  C16 UNL     1      16.423 -13.926  21.388  1.00  0.00     0.091 A 
HETATM    8  N2  UNL     1      16.993 -16.515  21.476  1.00  0.00    -0.327 N 
HETATM    9 CL1  UNL     1      14.672 -17.392  20.495  1.00  0.00    -0.063 Cl
HETATM   10  C5  UNL     1      17.937 -15.682  21.902  1.00  0.00     0.146 A 
ATOM     11  H2  UNL     1      17.194 -17.514  21.502  1.00  0.00     0.169 HD
HETATM   12  N4  UNL     1      17.640 -14.364  21.855  1.00  0.00    -0.330 N 
ATOM     13  H4  UNL     1      18.330 -13.683  22.172  1.00  0.00     0.168 HD
HETATM   14  S2  UNL     1      15.742 -12.385  21.199  1.00  0.00    -0.066 SA
HETATM   15  C11 UNL     1      14.178 -12.848  20.545  1.00  0.00     0.077 A 
BRANCH  10  16
HETATM   16  S1  UNL     1      19.521 -16.223  22.514  1.00  0.00    -0.085 SA
BRANCH  16  17
HETATM   17  C4  UNL     1      20.438 -14.800  23.128  1.00  0.00     0.185 C 
BRANCH  17  18
HETATM   18  C3  UNL     1      20.079 -14.554  24.538  1.00  0.00     0.228 C 
HETATM   19  N1  UNL     1      21.103 -14.322  25.513  1.00  0.00    -0.360 N 
HETATM   20  C1  UNL     1      22.470 -14.333  25.087  1.00  0.00     0.152 C 
HETATM   21  C2  UNL     1      20.762 -14.080  26.894  1.00  0.00     0.152 C 
HETATM   22  O1  UNL     1      18.891 -14.537  24.944  1.00  0.00    -0.273 OA
ENDBRANCH  17  18
ENDBRANCH  16  17
ENDBRANCH  10  16
BRANCH  15  23
HETATM   23  C12 UNL     1      13.156 -11.872  20.192  1.00  0.00     0.154 C 
BRANCH  23  24
HETATM   24  O2  UNL     1      13.092 -11.508  18.940  1.00  0.00    -0.345 OA
ATOM     25  H2  UNL     1      12.235 -11.518  18.531  1.00  0.00     0.219 HD
ENDBRANCH  23  24
BRANCH  23  26
HETATM   26  N3  UNL     1      12.215 -11.254  21.004  1.00  0.00    -0.370 N 
ATOM     27  H3  UNL     1      11.240 -11.222  20.703  1.00  0.00     0.161 HD
BRANCH  26  28
HETATM   28  C13 UNL     1      12.593 -10.643  22.294  1.00  0.00     0.123 C 
BRANCH  28  29
HETATM   29  C14 UNL     1      11.524 -10.971  23.300  1.00  0.00     0.045 C 
BRANCH  29  30
HETATM   30  C15 UNL     1      11.185 -12.453  23.125  1.00  0.00     0.165 C 
BRANCH  30  31
HETATM   31  O3  UNL     1      10.014 -12.774  23.787  1.00  0.00    -0.401 OA
ATOM     32  H3  UNL     1       9.489 -13.380  23.277  1.00  0.00     0.209 HD
ENDBRANCH  30  31
ENDBRANCH  29  30
ENDBRANCH  28  29
ENDBRANCH  26  28
ENDBRANCH  23  26
ENDBRANCH  15  23
ENDBRANCH   1   4
TORSDOF 11
ENDMDL
MODEL 2
REMARK VINA RESULT: -6.866506032      0.879      1.038
REMARK  11 active torsions:
REMARK  status: ('A' for Active; 'I' for Inactive)
REMARK       I    between atoms: N1_2  and  C3_4 
REMARK    1  A    between atoms: C3_4  and  C4_6 
REMARK    2  A    between atoms: C4_6  and  S1_7 
REMARK    3  A    between atoms: S1_7  and  C5_8 
REMARK    4  A    between atoms: C8_14  and  C9_15 
REMARK    5  A    between atoms: C11_18  and  C12_19 
REMARK    6  A    between atoms: C12_19  and  O2_20 
REMARK    7  A    between atoms: C12_19  and  N3_22 
REMARK    8  A    between atoms: N3_22  and  C13_24 
REMARK    9  A    between atoms: C13_24  and  C14_25 
REMARK   10  A    between atoms: C14_25  and  C15_26 
REMARK   11  A    between atoms: C15_26  and  O3_27 
ROOT
HETATM    1  C9  UNL     1      13.169 -15.042  19.864  1.00  0.00    -0.047 C 
HETATM    2  C10 UNL     1      12.204 -15.717  19.495  1.00  0.00     0.010 C 
HETATM    3 CL2  UNL     1      10.856 -16.670  19.002  1.00  0.00    -0.023 Cl
ENDROOT
BRANCH   1   4
HETATM    4  C8  UNL     1      14.345 -14.260  20.329  1.00  0.00     0.056 A 
HETATM    5  C7  UNL     1      15.541 -14.848  20.653  1.00  0.00     0.057 A 
HETATM    6  C6  UNL     1      15.889 -16.212  20.621  1.00  0.00     0.120 A 
HETATM    7  C16 UNL     1      16.541 -14.028  21.062  1.00  0.00     0.091 A 
HETATM    8  N2  UNL     1      17.112 -16.616  20.973  1.00  0.00    -0.327 N 
HETATM    9 CL1  UNL     1      14.725 -17.446  20.116  1.00  0.00    -0.063 Cl
HETATM   10  C5  UNL     1      18.085 -15.804  21.374  1.00  0.00     0.146 A 
ATOM     11  H2  UNL     1      17.313 -17.615  20.933  1.00  0.00     0.169 HD
HETATM   12  N4  UNL     1      17.787 -14.487  21.418  1.00  0.00    -0.330 N 
ATOM     13  H4  UNL     1      18.499 -13.822  21.720  1.00  0.00     0.168 HD
HETATM   14  S2  UNL     1      15.849 -12.481  21.004  1.00  0.00    -0.066 SA
HETATM   15  C11 UNL     1      14.242 -12.912  20.440  1.00  0.00     0.077 A 
BRANCH  10  16
HETATM   16  S1  UNL     1      19.708 -16.374  21.842  1.00  0.00    -0.085 SA
BRANCH  16  17
HETATM   17  C4  UNL     1      19.809 -16.466  23.638  1.00  0.00     0.185 C 
BRANCH  17  18
HETATM   18  C3  UNL     1      20.489 -15.263  24.156  1.00  0.00     0.228 C 
HETATM   19  N1  UNL     1      20.256 -14.825  25.499  1.00  0.00    -0.360 N 
HETATM   20  C1  UNL     1      19.357 -15.580  26.320  1.00  0.00     0.152 C 
HETATM   21  C2  UNL     1      20.916 -13.650  26.014  1.00  0.00     0.152 C 
HETATM   22  O1  UNL     1      21.283 -14.580  23.463  1.00  0.00    -0.273 OA
ENDBRANCH  17  18
ENDBRANCH  16  17
ENDBRANCH  10  16
BRANCH  15  23
HETATM   23  C12 UNL     1      13.199 -11.922  20.213  1.00  0.00     0.154 C 
BRANCH  23  24
HETATM   24  O2  UNL     1      13.089 -11.445  19.002  1.00  0.00    -0.345 OA
ATOM     25  H2  UNL     1      13.426 -10.570  18.852  1.00  0.00     0.219 HD
ENDBRANCH  23  24
BRANCH  23  26
HETATM   26  N3  UNL     1      12.280 -11.393  21.109  1.00  0.00    -0.370 N 
ATOM     27  H3  UNL     1      11.283 -11.468  20.904  1.00  0.00     0.161 HD
BRANCH  26  28
HETATM   28  C13 UNL     1      12.715 -10.726  22.352  1.00  0.00     0.123 C 
BRANCH  28  29
HETATM   29  C14 UNL     1      11.685 -10.998  23.415  1.00  0.00     0.045 C 
BRANCH  29  30
HETATM   30  C15 UNL     1      11.207 -12.437  23.216  1.00  0.00     0.165 C 
BRANCH  30  31
HETATM   31  O3  UNL     1      10.051 -12.679  23.936  1.00  0.00    -0.401 OA
ATOM     32  H3  UNL     1      10.237 -13.181  24.721  1.00  0.00     0.209 HD
ENDBRANCH  30  31
ENDBRANCH  29  30
ENDBRANCH  28  29
ENDBRANCH  26  28
ENDBRANCH  23  26
ENDBRANCH  15  23
ENDBRANCH   1   4
TORSDOF 11
ENDMDL
MODEL 3
REMARK VINA RESULT: -6.742535705      2.298      2.791
REMARK  11 active torsions:
REMARK  status: ('A' for Active; 'I' for Inactive)
REMARK       I    between atoms: N1_2  and  C3_4 
REMARK    1  A    between atoms: C3_4  and  C4_6 
REMARK    2  A    between atoms: C4_6  and  S1_7 
REMARK    3  A    between atoms: S1_7  and  C5_8 
REMARK    4  A    between atoms: C8_14  and  C9_15 
REMARK    5  A    between atoms: C11_18  and  C12_19 
REMARK    6  A    between atoms: C12_19  and  O2_20 
REMARK    7  A    between atoms: C12_19  and  N3_22 
REMARK    8  A    between atoms: N3_22  and  C13_24 
REMARK    9  A    between atoms: C13_24  and  C14_25 
REMARK   10  A    between atoms: C14_25  and  C15_26 
REMARK   11  A    between atoms: C15_26  and  O3_27 
ROOT
HETATM    1  C9  UNL     1      15.135 -15.179  21.350  1.00  0.00    -0.047 C 
HETATM    2  C10 UNL     1      13.954 -15.533  21.339  1.00  0.00     0.010 C 
HETATM    3 CL2  UNL     1      12.308 -16.044  21.306  1.00  0.00    -0.023 Cl
ENDROOT
BRANCH   1   4
HETATM    4  C8  UNL     1      16.561 -14.756  21.325  1.00  0.00     0.056 A 
HETATM    5  C7  UNL     1      17.578 -15.563  21.767  1.00  0.00     0.057 A 
HETATM    6  C6  UNL     1      17.501 -16.864  22.300  1.00  0.00     0.120 A 
HETATM    7  C16 UNL     1      18.837 -15.066  21.691  1.00  0.00     0.091 A 
HETATM    8  N2  UNL     1      18.602 -17.514  22.685  1.00  0.00    -0.327 N 
HETATM    9 CL1  UNL     1      15.948 -17.693  22.484  1.00  0.00    -0.063 Cl
HETATM   10  C5  UNL     1      19.833 -17.017  22.607  1.00  0.00     0.146 A 
ATOM     11  H2  UNL     1      18.492 -18.453  23.065  1.00  0.00     0.169 HD
HETATM   12  N4  UNL     1      19.945 -15.770  22.101  1.00  0.00    -0.330 N 
ATOM     13  H4  UNL     1      20.868 -15.342  22.021  1.00  0.00     0.168 HD
HETATM   14  S2  UNL     1      18.627 -13.520  21.027  1.00  0.00    -0.066 SA
HETATM   15  C11 UNL     1      16.879 -13.527  20.849  1.00  0.00     0.077 A 
BRANCH  10  16
HETATM   16  S1  UNL     1      21.285 -17.907  23.133  1.00  0.00    -0.085 SA
BRANCH  16  17
HETATM   17  C4  UNL     1      21.789 -17.314  24.757  1.00  0.00     0.185 C 
BRANCH  17  18
HETATM   18  C3  UNL     1      21.690 -15.842  24.796  1.00  0.00     0.228 C 
HETATM   19  N1  UNL     1      20.782 -15.203  25.701  1.00  0.00    -0.360 N 
HETATM   20  C1  UNL     1      19.980 -16.022  26.560  1.00  0.00     0.152 C 
HETATM   21  C2  UNL     1      20.679 -13.764  25.746  1.00  0.00     0.152 C 
HETATM   22  O1  UNL     1      22.379 -15.095  24.058  1.00  0.00    -0.273 OA
ENDBRANCH  17  18
ENDBRANCH  16  17
ENDBRANCH  10  16
BRANCH  15  23
HETATM   23  C12 UNL     1      16.142 -12.394  20.305  1.00  0.00     0.154 C 
BRANCH  23  24
HETATM   24  O2  UNL     1      16.249 -12.178  19.022  1.00  0.00    -0.345 OA
ATOM     25  H2  UNL     1      15.542 -11.701  18.605  1.00  0.00     0.219 HD
ENDBRANCH  23  24
BRANCH  23  26
HETATM   26  N3  UNL     1      15.322 -11.485  20.960  1.00  0.00    -0.370 N 
ATOM     27  H3  UNL     1      15.675 -10.549  21.159  1.00  0.00     0.161 HD
BRANCH  26  28
HETATM   28  C13 UNL     1      13.950 -11.844  21.372  1.00  0.00     0.123 C 
BRANCH  28  29
HETATM   29  C14 UNL     1      13.339 -10.651  22.055  1.00  0.00     0.045 C 
BRANCH  29  30
HETATM   30  C15 UNL     1      12.104 -10.256  21.242  1.00  0.00     0.165 C 
BRANCH  30  31
HETATM   31  O3  UNL     1      12.454  -9.899  19.952  1.00  0.00    -0.401 OA
ATOM     32  H3  UNL     1      12.199 -10.573  19.332  1.00  0.00     0.209 HD
ENDBRANCH  30  31
ENDBRANCH  29  30
ENDBRANCH  28  29
ENDBRANCH  26  28
ENDBRANCH  23  26
ENDBRANCH  15  23
ENDBRANCH   1   4
TORSDOF 11
ENDMDL
MODEL 4
REMARK VINA RESULT: -6.726054168      4.244      4.725
REMARK  11 active torsions:
REMARK  status: ('A' for Active; 'I' for Inactive)
REMARK       I    between atoms: N1_2  and  C3_4 
REMARK    1  A    between atoms: C3_4  and  C4_6 
REMARK    2  A    between atoms: C4_6  and  S1_7 
REMARK    3  A    between atoms: S1_7  and  C5_8 
REMARK    4  A    between atoms: C8_14  and  C9_15 
REMARK    5  A    between atoms: C11_18  and  C12_19 
REMARK    6  A    between atoms: C12_19  and  O2_20 
REMARK    7  A    between atoms: C12_19  and  N3_22 
REMARK    8  A    between atoms: N3_22  and  C13_24 
REMARK    9  A    between atoms: C13_24  and  C14_25 
REMARK   10  A    between atoms: C14_25  and  C15_26 
REMARK   11  A    between atoms: C15_26  and  O3_27 
ROOT
HETATM    1  C9  UNL     1      14.235 -12.900  18.729  1.00  0.00    -0.047 C 
HETATM    2  C10 UNL     1      14.689 -12.434  17.681  1.00  0.00     0.010 C 
HETATM    3 CL2  UNL     1      15.310 -11.764  16.219  1.00  0.00    -0.023 Cl
ENDROOT
BRANCH   1   4
HETATM    4  C8  UNL     1      13.652 -13.447  19.983  1.00  0.00     0.056 A 
HETATM    5  C7  UNL     1      13.806 -14.757  20.359  1.00  0.00     0.057 A 
HETATM    6  C6  UNL     1      14.494 -15.789  19.692  1.00  0.00     0.120 A 
HETATM    7  C16 UNL     1      13.229 -15.136  21.526  1.00  0.00     0.091 A 
HETATM    8  N2  UNL     1      14.546 -17.021  20.204  1.00  0.00    -0.327 N 
HETATM    9 CL1  UNL     1      15.317 -15.500  18.151  1.00  0.00    -0.063 Cl
HETATM   10  C5  UNL     1      13.976 -17.383  21.349  1.00  0.00     0.146 A 
ATOM     11  H2  UNL     1      15.057 -17.732  19.682  1.00  0.00     0.169 HD
HETATM   12  N4  UNL     1      13.306 -16.418  22.017  1.00  0.00    -0.330 N 
ATOM     13  H4  UNL     1      12.849 -16.645  22.900  1.00  0.00     0.168 HD
HETATM   14  S2  UNL     1      12.488 -13.721  22.093  1.00  0.00    -0.066 SA
HETATM   15  C11 UNL     1      12.938 -12.627  20.794  1.00  0.00     0.077 A 
BRANCH  10  16
HETATM   16  S1  UNL     1      14.058 -19.038  22.006  1.00  0.00    -0.085 SA
BRANCH  16  17
HETATM   17  C4  UNL     1      15.187 -19.064  23.409  1.00  0.00     0.185 C 
BRANCH  17  18
HETATM   18  C3  UNL     1      14.618 -19.902  24.483  1.00  0.00     0.228 C 
HETATM   19  N1  UNL     1      15.414 -20.254  25.620  1.00  0.00    -0.360 N 
HETATM   20  C1  UNL     1      16.762 -19.776  25.689  1.00  0.00     0.152 C 
HETATM   21  C2  UNL     1      14.867 -21.073  26.675  1.00  0.00     0.152 C 
HETATM   22  O1  UNL     1      13.441 -20.337  24.454  1.00  0.00    -0.273 OA
ENDBRANCH  17  18
ENDBRANCH  16  17
ENDBRANCH  10  16
BRANCH  15  23
HETATM   23  C12 UNL     1      12.542 -11.226  20.776  1.00  0.00     0.154 C 
BRANCH  23  24
HETATM   24  O2  UNL     1      12.765 -10.562  19.674  1.00  0.00    -0.345 OA
ATOM     25  H2  UNL     1      13.399  -9.856  19.717  1.00  0.00     0.219 HD
ENDBRANCH  23  24
BRANCH  23  26
HETATM   26  N3  UNL     1      11.949 -10.468  21.776  1.00  0.00    -0.370 N 
ATOM     27  H3  UNL     1      11.005 -10.107  21.635  1.00  0.00     0.161 HD
BRANCH  26  28
HETATM   28  C13 UNL     1      12.654 -10.176  23.040  1.00  0.00     0.123 C 
BRANCH  28  29
HETATM   29  C14 UNL     1      11.622  -9.931  24.107  1.00  0.00     0.045 C 
BRANCH  29  30
HETATM   30  C15 UNL     1      11.240 -11.297  24.681  1.00  0.00     0.165 C 
BRANCH  30  31
HETATM   31  O3  UNL     1      10.160 -11.835  24.003  1.00  0.00    -0.401 OA
ATOM     32  H3  UNL     1       9.400 -11.268  24.068  1.00  0.00     0.209 HD
ENDBRANCH  30  31
ENDBRANCH  29  30
ENDBRANCH  28  29
ENDBRANCH  26  28
ENDBRANCH  23  26
ENDBRANCH  15  23
ENDBRANCH   1   4
TORSDOF 11
ENDMDL
MODEL 5
REMARK VINA RESULT: -6.705416272      1.102      1.157
REMARK  11 active torsions:
REMARK  status: ('A' for Active; 'I' for Inactive)
REMARK       I    between atoms: N1_2  and  C3_4 
REMARK    1  A    between atoms: C3_4  and  C4_6 
REMARK    2  A    between atoms: C4_6  and  S1_7 
REMARK    3  A    between atoms: S1_7  and  C5_8 
REMARK    4  A    between atoms: C8_14  and  C9_15 
REMARK    5  A    between atoms: C11_18  and  C12_19 
REMARK    6  A    between atoms: C12_19  and  O2_20 
REMARK    7  A    between atoms: C12_19  and  N3_22 
REMARK    8  A    between atoms: N3_22  and  C13_24 
REMARK    9  A    between atoms: C13_24  and  C14_25 
REMARK   10  A    between atoms: C14_25  and  C15_26 
REMARK   11  A    between atoms: C15_26  and  O3_27 
ROOT
HETATM    1  C9  UNL     1      13.158 -15.021  19.881  1.00  0.00    -0.047 C 
HETATM    2  C10 UNL     1      12.217 -15.709  19.476  1.00  0.00     0.010 C 
HETATM    3 CL2  UNL     1      10.913 -16.690  18.921  1.00  0.00    -0.023 Cl
ENDROOT
BRANCH   1   4
HETATM    4  C8  UNL     1      14.317 -14.222  20.360  1.00  0.00     0.056 A 
HETATM    5  C7  UNL     1      15.494 -14.797  20.765  1.00  0.00     0.057 A 
HETATM    6  C6  UNL     1      15.835 -16.163  20.815  1.00  0.00     0.120 A 
HETATM    7  C16 UNL     1      16.479 -13.962  21.179  1.00  0.00     0.091 A 
HETATM    8  N2  UNL     1      17.038 -16.554  21.241  1.00  0.00    -0.327 N 
HETATM    9 CL1  UNL     1      14.688 -17.416  20.318  1.00  0.00    -0.063 Cl
HETATM   10  C5  UNL     1      17.997 -15.727  21.646  1.00  0.00     0.146 A 
ATOM     11  H2  UNL     1      17.235 -17.554  21.258  1.00  0.00     0.169 HD
HETATM   12  N4  UNL     1      17.705 -14.408  21.612  1.00  0.00    -0.330 N 
ATOM     13  H4  UNL     1      18.406 -13.732  21.914  1.00  0.00     0.168 HD
HETATM   14  S2  UNL     1      15.799 -12.417  21.015  1.00  0.00    -0.066 SA
HETATM   15  C11 UNL     1      14.217 -12.870  20.401  1.00  0.00     0.077 A 
BRANCH  10  16
HETATM   16  S1  UNL     1      19.594 -16.279  22.214  1.00  0.00    -0.085 SA
BRANCH  16  17
HETATM   17  C4  UNL     1      20.100 -15.280  23.624  1.00  0.00     0.185 C 
BRANCH  17  18
HETATM   18  C3  UNL     1      19.160 -15.495  24.742  1.00  0.00     0.228 C 
HETATM   19  N1  UNL     1      19.534 -16.324  25.848  1.00  0.00    -0.360 N 
HETATM   20  C1  UNL     1      20.831 -16.933  25.842  1.00  0.00     0.152 C 
HETATM   21  C2  UNL     1      18.622 -16.541  26.946  1.00  0.00     0.152 C 
HETATM   22  O1  UNL     1      18.018 -14.976  24.779  1.00  0.00    -0.273 OA
ENDBRANCH  17  18
ENDBRANCH  16  17
ENDBRANCH  10  16
BRANCH  15  23
HETATM   23  C12 UNL     1      13.190 -11.888  20.079  1.00  0.00     0.154 C 
BRANCH  23  24
HETATM   24  O2  UNL     1      13.131 -11.477  18.840  1.00  0.00    -0.345 OA
ATOM     25  H2  UNL     1      13.807 -11.789  18.251  1.00  0.00     0.219 HD
ENDBRANCH  23  24
BRANCH  23  26
HETATM   26  N3  UNL     1      12.241 -11.307  20.908  1.00  0.00    -0.370 N 
ATOM     27  H3  UNL     1      11.887 -10.376  20.685  1.00  0.00     0.161 HD
BRANCH  26  28
HETATM   28  C13 UNL     1      11.733 -12.006  22.105  1.00  0.00     0.123 C 
BRANCH  28  29
HETATM   29  C14 UNL     1      11.695 -11.023  23.243  1.00  0.00     0.045 C 
BRANCH  29  30
HETATM   30  C15 UNL     1      10.960 -11.704  24.398  1.00  0.00     0.165 C 
BRANCH  30  31
HETATM   31  O3  UNL     1      10.104 -12.685  23.931  1.00  0.00    -0.401 OA
ATOM     32  H3  UNL     1      10.391 -13.548  24.207  1.00  0.00     0.209 HD
ENDBRANCH  30  31
ENDBRANCH  29  30
ENDBRANCH  28  29
ENDBRANCH  26  28
ENDBRANCH  23  26
ENDBRANCH  15  23
ENDBRANCH   1   4
TORSDOF 11
ENDMDL
