MODEL 1
REMARK VINA RESULT: -12.093837021      0.000      0.000
REMARK  5 active torsions:
REMARK  status: ('A' for Active; 'I' for Inactive)
REMARK    1  A    between atoms: C1_1  and  C24_28 
REMARK    2  A    between atoms: C2_2  and  C3_3 
REMARK    3  A    between atoms: C5_5  and  C6_6 
REMARK    4  A    between atoms: C7_7  and  C8_8 
REMARK    5  A    between atoms: C17_19  and  C18_20 
ROOT
HETATM    1  C3  UNL     1      57.306  34.433  26.328  1.00  0.00     0.033 A 
HETATM    2  C4  UNL     1      56.834  34.365  27.649  1.00  0.00     0.041 A 
HETATM    3  C5  UNL     1      57.445  35.031  28.664  1.00  0.00    -0.032 A 
HETATM    4  C16 UNL     1      58.578  35.794  28.326  1.00  0.00     0.042 A 
HETATM    5  C17 UNL     1      59.056  35.875  27.047  1.00  0.00     0.043 A 
HETATM    6  N2  UNL     1      58.384  35.176  26.084  1.00  0.00    -0.356 N 
ATOM      7  H2  UNL     1      58.728  35.226  25.125  1.00  0.00     0.166 HD
ENDROOT
BRANCH   3   8
HETATM    8  C6  UNL     1      57.019  35.018  30.084  1.00  0.00     0.012 C 
HETATM    9  C7  UNL     1      57.913  34.832  31.008  1.00  0.00     0.014 C 
BRANCH   9  10
HETATM   10  C8  UNL     1      57.760  34.777  32.436  1.00  0.00    -0.008 A 
HETATM   11  C9  UNL     1      57.559  33.582  33.156  1.00  0.00     0.100 A 
HETATM   12  N1  UNL     1      57.455  33.863  34.448  1.00  0.00    -0.364 N 
HETATM   13  C10 UNL     1      57.578  35.179  34.606  1.00  0.00     0.043 A 
ATOM     14  H1  UNL     1      57.306  33.185  35.195  1.00  0.00     0.165 HD
HETATM   15  C11 UNL     1      57.537  35.922  35.762  1.00  0.00     0.030 A 
HETATM   16  C15 UNL     1      57.770  35.789  33.369  1.00  0.00     0.002 A 
HETATM   17  C12 UNL     1      57.690  37.278  35.674  1.00  0.00     0.002 A 
HETATM   18  C13 UNL     1      57.881  37.921  34.477  1.00  0.00     0.001 A 
HETATM   19  C14 UNL     1      57.921  37.162  33.309  1.00  0.00     0.014 A 
ENDBRANCH   9  10
ENDBRANCH   3   8
BRANCH   1  20
HETATM   20  C2  UNL     1      56.604  33.691  25.268  1.00  0.00     0.030 C 
HETATM   21  C1  UNL     1      56.601  34.112  24.028  1.00  0.00     0.013 C 
BRANCH  21  22
HETATM   22  C24 UNL     1      55.918  33.401  22.967  1.00  0.00    -0.036 A 
HETATM   23  C25 UNL     1      54.720  32.759  23.161  1.00  0.00     0.011 A 
HETATM   24  C26 UNL     1      54.134  32.101  22.094  1.00  0.00     0.001 A 
HETATM   25  C27 UNL     1      54.706  32.065  20.843  1.00  0.00     0.000 A 
HETATM   26  C28 UNL     1      55.909  32.709  20.654  1.00  0.00     0.001 A 
HETATM   27  C29 UNL     1      56.480  33.353  21.703  1.00  0.00     0.011 A 
ENDBRANCH  21  22
ENDBRANCH   1  20
BRANCH   5  28
HETATM   28  C18 UNL     1      60.222  36.660  26.696  1.00  0.00    -0.009 A 
HETATM   29  C19 UNL     1      61.288  36.784  27.542  1.00  0.00     0.013 A 
HETATM   30  C20 UNL     1      62.391  37.551  27.164  1.00  0.00     0.001 A 
HETATM   31  C21 UNL     1      62.418  38.184  25.946  1.00  0.00     0.000 A 
HETATM   32  C22 UNL     1      61.333  38.059  25.081  1.00  0.00     0.001 A 
HETATM   33  C23 UNL     1      60.249  37.309  25.448  1.00  0.00     0.013 A 
ENDBRANCH   5  28
TORSDOF 5
ENDMDL
MODEL 2
REMARK VINA RESULT: -12.071198190      0.132      1.214
REMARK  5 active torsions:
REMARK  status: ('A' for Active; 'I' for Inactive)
REMARK    1  A    between atoms: C1_1  and  C24_28 
REMARK    2  A    between atoms: C2_2  and  C3_3 
REMARK    3  A    between atoms: C5_5  and  C6_6 
REMARK    4  A    between atoms: C7_7  and  C8_8 
REMARK    5  A    between atoms: C17_19  and  C18_20 
ROOT
HETATM    1  C3  UNL     1      57.275  34.465  26.196  1.00  0.00     0.033 A 
HETATM    2  C4  UNL     1      56.815  34.364  27.518  1.00  0.00     0.041 A 
HETATM    3  C5  UNL     1      57.437  35.003  28.545  1.00  0.00    -0.032 A 
HETATM    4  C16 UNL     1      58.568  35.772  28.217  1.00  0.00     0.042 A 
HETATM    5  C17 UNL     1      59.035  35.885  26.936  1.00  0.00     0.043 A 
HETATM    6  N2  UNL     1      58.353  35.212  25.961  1.00  0.00    -0.356 N 
ATOM      7  H2  UNL     1      58.688  35.286  25.000  1.00  0.00     0.166 HD
ENDROOT
BRANCH   3   8
HETATM    8  C6  UNL     1      57.023  34.954  29.968  1.00  0.00     0.012 C 
HETATM    9  C7  UNL     1      57.938  34.867  30.887  1.00  0.00     0.014 C 
BRANCH   9  10
HETATM   10  C8  UNL     1      57.800  34.805  32.315  1.00  0.00    -0.008 A 
HETATM   11  C9  UNL     1      57.641  33.604  33.036  1.00  0.00     0.100 A 
HETATM   12  N1  UNL     1      57.542  33.880  34.329  1.00  0.00    -0.364 N 
HETATM   13  C10 UNL     1      57.628  35.199  34.489  1.00  0.00     0.043 A 
ATOM     14  H1  UNL     1      57.420  33.196  35.076  1.00  0.00     0.165 HD
HETATM   15  C11 UNL     1      57.577  35.938  35.647  1.00  0.00     0.030 A 
HETATM   16  C15 UNL     1      57.791  35.816  33.251  1.00  0.00     0.002 A 
HETATM   17  C12 UNL     1      57.690  37.298  35.559  1.00  0.00     0.002 A 
HETATM   18  C13 UNL     1      57.850  37.948  34.362  1.00  0.00     0.001 A 
HETATM   19  C14 UNL     1      57.901  37.192  33.193  1.00  0.00     0.014 A 
ENDBRANCH   9  10
ENDBRANCH   3   8
BRANCH   1  20
HETATM   20  C2  UNL     1      56.563  33.752  25.123  1.00  0.00     0.030 C 
HETATM   21  C1  UNL     1      56.693  34.101  23.868  1.00  0.00     0.013 C 
BRANCH  21  22
HETATM   22  C24 UNL     1      56.003  33.416  22.795  1.00  0.00    -0.036 A 
HETATM   23  C25 UNL     1      56.521  33.318  21.528  1.00  0.00     0.011 A 
HETATM   24  C26 UNL     1      55.796  32.645  20.559  1.00  0.00     0.001 A 
HETATM   25  C27 UNL     1      54.573  32.069  20.818  1.00  0.00     0.000 A 
HETATM   26  C28 UNL     1      54.057  32.171  22.090  1.00  0.00     0.001 A 
HETATM   27  C29 UNL     1      54.771  32.832  23.037  1.00  0.00     0.011 A 
ENDBRANCH  21  22
ENDBRANCH   1  20
BRANCH   5  28
HETATM   28  C18 UNL     1      60.199  36.677  26.595  1.00  0.00    -0.009 A 
HETATM   29  C19 UNL     1      60.282  37.365  25.418  1.00  0.00     0.013 A 
HETATM   30  C20 UNL     1      61.423  38.115  25.128  1.00  0.00     0.001 A 
HETATM   31  C21 UNL     1      62.468  38.170  26.018  1.00  0.00     0.000 A 
HETATM   32  C22 UNL     1      62.387  37.469  27.219  1.00  0.00     0.001 A 
HETATM   33  C23 UNL     1      61.270  36.732  27.507  1.00  0.00     0.013 A 
ENDBRANCH   5  28
TORSDOF 5
ENDMDL
MODEL 3
REMARK VINA RESULT: -11.847039835      1.286      1.667
REMARK  5 active torsions:
REMARK  status: ('A' for Active; 'I' for Inactive)
REMARK    1  A    between atoms: C1_1  and  C24_28 
REMARK    2  A    between atoms: C2_2  and  C3_3 
REMARK    3  A    between atoms: C5_5  and  C6_6 
REMARK    4  A    between atoms: C7_7  and  C8_8 
REMARK    5  A    between atoms: C17_19  and  C18_20 
ROOT
HETATM    1  C3  UNL     1      57.541  34.395  25.106  1.00  0.00     0.033 A 
HETATM    2  C4  UNL     1      56.919  33.910  26.268  1.00  0.00     0.041 A 
HETATM    3  C5  UNL     1      57.310  34.303  27.508  1.00  0.00    -0.032 A 
HETATM    4  C16 UNL     1      58.374  35.222  27.573  1.00  0.00     0.042 A 
HETATM    5  C17 UNL     1      58.995  35.708  26.456  1.00  0.00     0.043 A 
HETATM    6  N2  UNL     1      58.542  35.263  25.246  1.00  0.00    -0.356 N 
ATOM      7  H2  UNL     1      58.995  35.616  24.403  1.00  0.00     0.166 HD
ENDROOT
BRANCH   3   8
HETATM    8  C6  UNL     1      56.713  33.845  28.786  1.00  0.00     0.012 C 
HETATM    9  C7  UNL     1      56.443  34.723  29.705  1.00  0.00     0.014 C 
BRANCH   9  10
HETATM   10  C8  UNL     1      55.870  34.540  31.010  1.00  0.00    -0.008 A 
HETATM   11  C9  UNL     1      54.696  33.798  31.253  1.00  0.00     0.100 A 
HETATM   12  N1  UNL     1      54.429  33.817  32.552  1.00  0.00    -0.364 N 
HETATM   13  C10 UNL     1      55.368  34.532  33.167  1.00  0.00     0.043 A 
ATOM     14  H1  UNL     1      53.636  33.360  33.003  1.00  0.00     0.165 HD
HETATM   15  C11 UNL     1      55.501  34.822  34.505  1.00  0.00     0.030 A 
HETATM   16  C15 UNL     1      56.290  35.003  32.237  1.00  0.00     0.002 A 
HETATM   17  C12 UNL     1      56.562  35.585  34.905  1.00  0.00     0.002 A 
HETATM   18  C13 UNL     1      57.494  36.072  34.024  1.00  0.00     0.001 A 
HETATM   19  C14 UNL     1      57.353  35.774  32.670  1.00  0.00     0.014 A 
ENDBRANCH   9  10
ENDBRANCH   3   8
BRANCH   1  20
HETATM   20  C2  UNL     1      57.076  33.935  23.788  1.00  0.00     0.030 C 
HETATM   21  C1  UNL     1      55.841  33.542  23.598  1.00  0.00     0.013 C 
BRANCH  21  22
HETATM   22  C24 UNL     1      55.359  33.086  22.311  1.00  0.00    -0.036 A 
HETATM   23  C25 UNL     1      54.340  32.175  22.185  1.00  0.00     0.011 A 
HETATM   24  C26 UNL     1      53.940  31.791  20.917  1.00  0.00     0.001 A 
HETATM   25  C27 UNL     1      54.526  32.287  19.774  1.00  0.00     0.000 A 
HETATM   26  C28 UNL     1      55.548  33.200  19.907  1.00  0.00     0.001 A 
HETATM   27  C29 UNL     1      55.938  33.574  21.152  1.00  0.00     0.011 A 
ENDBRANCH  21  22
ENDBRANCH   1  20
BRANCH   5  28
HETATM   28  C18 UNL     1      60.090  36.654  26.519  1.00  0.00    -0.009 A 
HETATM   29  C19 UNL     1      61.002  36.633  27.536  1.00  0.00     0.013 A 
HETATM   30  C20 UNL     1      62.042  37.564  27.558  1.00  0.00     0.001 A 
HETATM   31  C21 UNL     1      62.159  38.505  26.565  1.00  0.00     0.000 A 
HETATM   32  C22 UNL     1      61.230  38.530  25.527  1.00  0.00     0.001 A 
HETATM   33  C23 UNL     1      60.209  37.619  25.501  1.00  0.00     0.013 A 
ENDBRANCH   5  28
TORSDOF 5
ENDMDL
MODEL 4
REMARK VINA RESULT: -11.820466192      1.592      9.245
REMARK  5 active torsions:
REMARK  status: ('A' for Active; 'I' for Inactive)
REMARK    1  A    between atoms: C1_1  and  C24_28 
REMARK    2  A    between atoms: C2_2  and  C3_3 
REMARK    3  A    between atoms: C5_5  and  C6_6 
REMARK    4  A    between atoms: C7_7  and  C8_8 
REMARK    5  A    between atoms: C17_19  and  C18_20 
ROOT
HETATM    1  C3  UNL     1      58.113  35.230  28.875  1.00  0.00     0.033 A 
HETATM    2  C4  UNL     1      57.310  34.343  28.141  1.00  0.00     0.041 A 
HETATM    3  C5  UNL     1      57.400  34.246  26.788  1.00  0.00    -0.032 A 
HETATM    4  C16 UNL     1      58.341  35.080  26.156  1.00  0.00     0.042 A 
HETATM    5  C17 UNL     1      59.134  35.952  26.850  1.00  0.00     0.043 A 
HETATM    6  N2  UNL     1      58.982  35.989  28.208  1.00  0.00    -0.356 N 
ATOM      7  H2  UNL     1      59.566  36.634  28.741  1.00  0.00     0.166 HD
ENDROOT
BRANCH   3   8
HETATM    8  C6  UNL     1      56.595  33.340  25.933  1.00  0.00     0.012 C 
HETATM    9  C7  UNL     1      56.016  33.823  24.875  1.00  0.00     0.014 C 
BRANCH   9  10
HETATM   10  C8  UNL     1      55.194  33.166  23.897  1.00  0.00    -0.008 A 
HETATM   11  C9  UNL     1      54.034  32.431  24.217  1.00  0.00     0.100 A 
HETATM   12  N1  UNL     1      53.501  31.950  23.101  1.00  0.00    -0.364 N 
HETATM   13  C10 UNL     1      54.254  32.333  22.073  1.00  0.00     0.043 A 
ATOM     14  H1  UNL     1      52.656  31.381  23.042  1.00  0.00     0.165 HD
HETATM   15  C11 UNL     1      54.091  32.071  20.733  1.00  0.00     0.030 A 
HETATM   16  C15 UNL     1      55.325  33.097  22.528  1.00  0.00     0.002 A 
HETATM   17  C12 UNL     1      55.005  32.578  19.852  1.00  0.00     0.002 A 
HETATM   18  C13 UNL     1      56.076  33.335  20.256  1.00  0.00     0.001 A 
HETATM   19  C14 UNL     1      56.235  33.596  21.615  1.00  0.00     0.014 A 
ENDBRANCH   9  10
ENDBRANCH   3   8
BRANCH   1  20
HETATM   20  C2  UNL     1      57.974  35.293  30.339  1.00  0.00     0.030 C 
HETATM   21  C1  UNL     1      56.798  35.260  30.914  1.00  0.00     0.013 C 
BRANCH  21  22
HETATM   22  C24 UNL     1      56.635  35.322  32.352  1.00  0.00    -0.036 A 
HETATM   23  C25 UNL     1      55.690  34.583  33.020  1.00  0.00     0.011 A 
HETATM   24  C26 UNL     1      55.599  34.701  34.396  1.00  0.00     0.001 A 
HETATM   25  C27 UNL     1      56.422  35.531  35.123  1.00  0.00     0.000 A 
HETATM   26  C28 UNL     1      57.368  36.270  34.448  1.00  0.00     0.001 A 
HETATM   27  C29 UNL     1      57.453  36.152  33.099  1.00  0.00     0.011 A 
ENDBRANCH  21  22
ENDBRANCH   1  20
BRANCH   5  28
HETATM   28  C18 UNL     1      60.103  36.812  26.203  1.00  0.00    -0.009 A 
HETATM   29  C19 UNL     1      59.875  37.355  24.971  1.00  0.00     0.013 A 
HETATM   30  C20 UNL     1      60.836  38.179  24.383  1.00  0.00     0.001 A 
HETATM   31  C21 UNL     1      62.015  38.451  25.033  1.00  0.00     0.000 A 
HETATM   32  C22 UNL     1      62.252  37.898  26.290  1.00  0.00     0.001 A 
HETATM   33  C23 UNL     1      61.312  37.090  26.870  1.00  0.00     0.013 A 
ENDBRANCH   5  28
TORSDOF 5
ENDMDL
MODEL 5
REMARK VINA RESULT: -11.808445902      1.764      9.284
REMARK  5 active torsions:
REMARK  status: ('A' for Active; 'I' for Inactive)
REMARK    1  A    between atoms: C1_1  and  C24_28 
REMARK    2  A    between atoms: C2_2  and  C3_3 
REMARK    3  A    between atoms: C5_5  and  C6_6 
REMARK    4  A    between atoms: C7_7  and  C8_8 
REMARK    5  A    between atoms: C17_19  and  C18_20 
ROOT
HETATM    1  C3  UNL     1      58.385  35.360  27.987  1.00  0.00     0.033 A 
HETATM    2  C4  UNL     1      57.556  34.784  27.012  1.00  0.00     0.041 A 
HETATM    3  C5  UNL     1      56.369  34.205  27.331  1.00  0.00    -0.032 A 
HETATM    4  C16 UNL     1      56.009  34.210  28.691  1.00  0.00     0.042 A 
HETATM    5  C17 UNL     1      56.800  34.764  29.659  1.00  0.00     0.043 A 
HETATM    6  N2  UNL     1      57.979  35.327  29.256  1.00  0.00    -0.356 N 
ATOM      7  H2  UNL     1      58.580  35.745  29.966  1.00  0.00     0.166 HD
ENDROOT
BRANCH   3   8
HETATM    8  C6  UNL     1      55.431  33.575  26.370  1.00  0.00     0.012 C 
HETATM    9  C7  UNL     1      55.739  33.560  25.107  1.00  0.00     0.014 C 
BRANCH   9  10
HETATM   10  C8  UNL     1      55.013  33.020  23.992  1.00  0.00    -0.008 A 
HETATM   11  C9  UNL     1      53.802  32.308  24.116  1.00  0.00     0.100 A 
HETATM   12  N1  UNL     1      53.385  31.943  22.911  1.00  0.00    -0.364 N 
HETATM   13  C10 UNL     1      54.262  32.380  22.009  1.00  0.00     0.043 A 
ATOM     14  H1  UNL     1      52.535  31.416  22.709  1.00  0.00     0.165 HD
HETATM   15  C11 UNL     1      54.244  32.237  20.642  1.00  0.00     0.030 A 
HETATM   16  C15 UNL     1      55.297  33.059  22.645  1.00  0.00     0.002 A 
HETATM   17  C12 UNL     1      55.267  32.778  19.914  1.00  0.00     0.002 A 
HETATM   18  C13 UNL     1      56.308  33.455  20.498  1.00  0.00     0.001 A 
HETATM   19  C14 UNL     1      56.319  33.596  21.885  1.00  0.00     0.014 A 
ENDBRANCH   9  10
ENDBRANCH   3   8
BRANCH   1  20
HETATM   20  C2  UNL     1      59.661  35.974  27.585  1.00  0.00     0.030 C 
HETATM   21  C1  UNL     1      59.800  36.558  26.422  1.00  0.00     0.013 C 
BRANCH  21  22
HETATM   22  C24 UNL     1      61.045  37.169  26.003  1.00  0.00    -0.036 A 
HETATM   23  C25 UNL     1      62.209  37.039  26.720  1.00  0.00     0.011 A 
HETATM   24  C26 UNL     1      63.356  37.655  26.250  1.00  0.00     0.001 A 
HETATM   25  C27 UNL     1      63.375  38.396  25.091  1.00  0.00     0.000 A 
HETATM   26  C28 UNL     1      62.205  38.525  24.376  1.00  0.00     0.001 A 
HETATM   27  C29 UNL     1      61.083  37.919  24.840  1.00  0.00     0.011 A 
ENDBRANCH  21  22
ENDBRANCH   1  20
BRANCH   5  28
HETATM   28  C18 UNL     1      56.432  34.771  31.060  1.00  0.00    -0.009 A 
HETATM   29  C19 UNL     1      57.155  35.463  31.991  1.00  0.00     0.013 A 
HETATM   30  C20 UNL     1      56.766  35.442  33.331  1.00  0.00     0.001 A 
HETATM   31  C21 UNL     1      55.660  34.731  33.727  1.00  0.00     0.000 A 
HETATM   32  C22 UNL     1      54.921  34.024  32.780  1.00  0.00     0.001 A 
HETATM   33  C23 UNL     1      55.299  34.041  31.465  1.00  0.00     0.013 A 
ENDBRANCH   5  28
TORSDOF 5
ENDMDL
