MODEL 1
REMARK VINA RESULT: -7.937675385      0.000      0.000
REMARK  3 active torsions:
REMARK  status: ('A' for Active; 'I' for Inactive)
REMARK       I    between atoms: N1_10  and  C9_11 
REMARK    1  A    between atoms: C9_11  and  C10_13 
REMARK    2  A    between atoms: C18_22  and  O3_23 
REMARK    3  A    between atoms: C18_22  and  C19_25 
ROOT
HETATM    1  C1  UNL     1      22.884   1.661  24.966  1.00  0.00     0.015 C 
HETATM    2  C2  UNL     1      23.207   1.176  23.519  1.00  0.00    -0.039 A 
HETATM    3  C3  UNL     1      22.754  -0.194  23.283  1.00  0.00     0.010 C 
HETATM    4  C4  UNL     1      21.615  -0.302  22.299  1.00  0.00     0.001 C 
HETATM    5  C5  UNL     1      21.154   1.071  22.051  1.00  0.00     0.001 C 
HETATM    6  C6  UNL     1      21.778   1.866  20.950  1.00  0.00     0.023 C 
HETATM    7  C7  UNL     1      23.228   2.249  21.135  1.00  0.00     0.086 C 
HETATM    8  C8  UNL     1      23.145   3.737  20.874  1.00  0.00     0.239 C 
HETATM    9  O1  UNL     1      22.182   4.248  21.524  1.00  0.00    -0.272 OA
HETATM   10  N1  UNL     1      23.794   4.715  20.145  1.00  0.00    -0.287 N 
HETATM   11  C9  UNL     1      23.105   5.935  19.840  1.00  0.00     0.230 C 
HETATM   12  O2  UNL     1      21.903   5.987  20.274  1.00  0.00    -0.273 OA
HETATM   13  C15 UNL     1      25.144   4.622  19.641  1.00  0.00     0.136 C 
HETATM   14  C16 UNL     1      25.827   3.583  20.456  1.00  0.00     0.039 C 
HETATM   15  C17 UNL     1      25.497   2.235  19.970  1.00  0.00     0.104 C 
HETATM   16 BR1  UNL     1      26.124   2.446  18.103  1.00  0.00    -0.088 Br
HETATM   17  C18 UNL     1      24.185   1.616  20.141  1.00  0.00     0.185 C 
HETATM   18  C20 UNL     1      23.670   2.109  22.570  1.00  0.00     0.015 A 
HETATM   19  C21 UNL     1      24.712   1.360  23.200  1.00  0.00     0.016 A 
ENDROOT
BRANCH  17  20
HETATM   20  O3  UNL     1      24.444   0.333  20.735  1.00  0.00    -0.379 OA
ATOM     21  H3  UNL     1      24.566  -0.223  19.974  1.00  0.00     0.211 HD
ENDBRANCH  17  20
BRANCH  17  22
HETATM   22  C19 UNL     1      23.712   1.097  18.847  1.00  0.00     0.420 C 
HETATM   23  F1  UNL     1      22.925  -0.040  18.806  1.00  0.00    -0.168 F 
HETATM   24  F2  UNL     1      24.836   0.425  18.279  1.00  0.00    -0.168 F 
HETATM   25  F3  UNL     1      23.314   2.043  17.940  1.00  0.00    -0.168 F 
ENDBRANCH  17  22
BRANCH  11  26
HETATM   26  C10 UNL     1      23.629   7.071  19.114  1.00  0.00     0.078 C 
HETATM   27  C11 UNL     1      22.657   8.078  18.609  1.00  0.00     0.014 C 
HETATM   28  C12 UNL     1      23.386   8.702  17.409  1.00  0.00     0.001 C 
HETATM   29  C13 UNL     1      24.557   7.828  17.106  1.00  0.00     0.001 C 
HETATM   30  C14 UNL     1      24.238   6.544  17.802  1.00  0.00     0.014 C 
ENDBRANCH  11  26
TORSDOF 3
ENDMDL
MODEL 2
REMARK VINA RESULT: -7.276821115      2.272      3.369
REMARK  3 active torsions:
REMARK  status: ('A' for Active; 'I' for Inactive)
REMARK       I    between atoms: N1_10  and  C9_11 
REMARK    1  A    between atoms: C9_11  and  C10_13 
REMARK    2  A    between atoms: C18_22  and  O3_23 
REMARK    3  A    between atoms: C18_22  and  C19_25 
ROOT
HETATM    1  C1  UNL     1      24.490   2.094  27.539  1.00  0.00     0.015 C 
HETATM    2  C2  UNL     1      23.909   1.201  26.400  1.00  0.00    -0.039 A 
HETATM    3  C3  UNL     1      23.246   0.005  26.920  1.00  0.00     0.010 C 
HETATM    4  C4  UNL     1      21.751  -0.004  26.717  1.00  0.00     0.001 C 
HETATM    5  C5  UNL     1      21.391   1.341  26.248  1.00  0.00     0.001 C 
HETATM    6  C6  UNL     1      21.396   1.631  24.781  1.00  0.00     0.023 C 
HETATM    7  C7  UNL     1      22.743   1.612  24.096  1.00  0.00     0.086 C 
HETATM    8  C8  UNL     1      22.702   2.951  23.393  1.00  0.00     0.239 C 
HETATM    9  O1  UNL     1      22.320   3.860  24.192  1.00  0.00    -0.272 OA
HETATM   10  N1  UNL     1      22.953   3.494  22.147  1.00  0.00    -0.287 N 
HETATM   11  C9  UNL     1      22.356   4.749  21.796  1.00  0.00     0.230 C 
HETATM   12  O2  UNL     1      21.604   5.249  22.702  1.00  0.00    -0.273 OA
HETATM   13  C15 UNL     1      23.785   2.896  21.129  1.00  0.00     0.136 C 
HETATM   14  C16 UNL     1      24.678   1.933  21.826  1.00  0.00     0.039 C 
HETATM   15  C17 UNL     1      23.983   0.662  22.079  1.00  0.00     0.104 C 
HETATM   16 BR1  UNL     1      23.503   0.225  20.208  1.00  0.00    -0.088 Br
HETATM   17  C18 UNL     1      22.918   0.509  23.068  1.00  0.00     0.185 C 
HETATM   18  C20 UNL     1      23.880   1.702  25.083  1.00  0.00     0.015 A 
HETATM   19  C21 UNL     1      25.002   0.860  25.356  1.00  0.00     0.016 A 
ENDROOT
BRANCH  17  20
HETATM   20  O3  UNL     1      23.310  -0.610  23.879  1.00  0.00    -0.379 OA
ATOM     21  H3  UNL     1      22.583  -0.689  24.485  1.00  0.00     0.211 HD
ENDBRANCH  17  20
BRANCH  17  22
HETATM   22  C19 UNL     1      21.757  -0.148  22.445  1.00  0.00     0.420 C 
HETATM   23  F1  UNL     1      20.925  -0.947  23.208  1.00  0.00    -0.168 F 
HETATM   24  F2  UNL     1      22.295  -1.264  21.736  1.00  0.00    -0.168 F 
HETATM   25  F3  UNL     1      21.068   0.607  21.535  1.00  0.00    -0.168 F 
ENDBRANCH  17  22
BRANCH  11  26
HETATM   26  C10 UNL     1      22.522   5.475  20.556  1.00  0.00     0.078 C 
HETATM   27  C11 UNL     1      23.893   5.564  19.984  1.00  0.00     0.014 C 
HETATM   28  C12 UNL     1      23.844   6.854  19.150  1.00  0.00     0.001 C 
HETATM   29  C13 UNL     1      22.597   7.577  19.536  1.00  0.00     0.001 C 
HETATM   30  C14 UNL     1      22.207   6.955  20.838  1.00  0.00     0.014 C 
ENDBRANCH  11  26
TORSDOF 3
ENDMDL
MODEL 3
REMARK VINA RESULT: -6.865327230      3.690      4.721
REMARK  3 active torsions:
REMARK  status: ('A' for Active; 'I' for Inactive)
REMARK       I    between atoms: N1_10  and  C9_11 
REMARK    1  A    between atoms: C9_11  and  C10_13 
REMARK    2  A    between atoms: C18_22  and  O3_23 
REMARK    3  A    between atoms: C18_22  and  C19_25 
ROOT
HETATM    1  C1  UNL     1      25.131   0.465  27.271  1.00  0.00     0.015 C 
HETATM    2  C2  UNL     1      24.419   0.219  25.904  1.00  0.00    -0.039 A 
HETATM    3  C3  UNL     1      24.189  -1.202  25.651  1.00  0.00     0.010 C 
HETATM    4  C4  UNL     1      22.733  -1.599  25.668  1.00  0.00     0.001 C 
HETATM    5  C5  UNL     1      21.995  -0.436  26.178  1.00  0.00     0.001 C 
HETATM    6  C6  UNL     1      21.504   0.598  25.216  1.00  0.00     0.023 C 
HETATM    7  C7  UNL     1      22.560   1.415  24.509  1.00  0.00     0.086 C 
HETATM    8  C8  UNL     1      22.050   2.811  24.795  1.00  0.00     0.239 C 
HETATM    9  O1  UNL     1      21.756   2.933  26.023  1.00  0.00    -0.272 OA
HETATM   10  N1  UNL     1      21.806   3.999  24.131  1.00  0.00    -0.287 N 
HETATM   11  C9  UNL     1      20.898   4.949  24.705  1.00  0.00     0.230 C 
HETATM   12  O2  UNL     1      20.371   4.576  25.810  1.00  0.00    -0.273 OA
HETATM   13  C15 UNL     1      22.393   4.386  22.870  1.00  0.00     0.136 C 
HETATM   14  C16 UNL     1      23.623   3.567  22.709  1.00  0.00     0.039 C 
HETATM   15  C17 UNL     1      23.297   2.224  22.205  1.00  0.00     0.104 C 
HETATM   16 BR1  UNL     1      22.373   2.765  20.539  1.00  0.00    -0.088 Br
HETATM   17  C18 UNL     1      22.629   1.203  23.008  1.00  0.00     0.185 C 
HETATM   18  C20 UNL     1      23.900   1.321  25.194  1.00  0.00     0.015 A 
HETATM   19  C21 UNL     1      25.193   0.905  24.751  1.00  0.00     0.016 A 
ENDROOT
BRANCH  17  20
HETATM   20  O3  UNL     1      23.456   0.033  22.900  1.00  0.00    -0.379 OA
ATOM     21  H3  UNL     1      23.204  -0.319  22.054  1.00  0.00     0.211 HD
ENDBRANCH  17  20
BRANCH  17  22
HETATM   22  C19 UNL     1      21.486   0.656  22.258  1.00  0.00     0.420 C 
HETATM   23  F1  UNL     1      21.080  -0.649  22.474  1.00  0.00    -0.168 F 
HETATM   24  F2  UNL     1      21.997   0.357  20.960  1.00  0.00    -0.168 F 
HETATM   25  F3  UNL     1      20.430   1.510  22.084  1.00  0.00    -0.168 F 
ENDBRANCH  17  22
BRANCH  11  26
HETATM   26  C10 UNL     1      20.541   6.244  24.170  1.00  0.00     0.078 C 
HETATM   27  C11 UNL     1      21.644   7.141  23.732  1.00  0.00     0.014 C 
HETATM   28  C12 UNL     1      21.034   8.544  23.870  1.00  0.00     0.001 C 
HETATM   29  C13 UNL     1      19.774   8.398  24.657  1.00  0.00     0.001 C 
HETATM   30  C14 UNL     1      19.912   7.062  25.312  1.00  0.00     0.014 C 
ENDBRANCH  11  26
TORSDOF 3
ENDMDL
MODEL 4
REMARK VINA RESULT: -6.679876642      2.158      3.011
REMARK  3 active torsions:
REMARK  status: ('A' for Active; 'I' for Inactive)
REMARK       I    between atoms: N1_10  and  C9_11 
REMARK    1  A    between atoms: C9_11  and  C10_13 
REMARK    2  A    between atoms: C18_22  and  O3_23 
REMARK    3  A    between atoms: C18_22  and  C19_25 
ROOT
HETATM    1  C1  UNL     1      24.467   1.630  27.239  1.00  0.00     0.015 C 
HETATM    2  C2  UNL     1      23.914   1.055  25.898  1.00  0.00    -0.039 A 
HETATM    3  C3  UNL     1      23.245  -0.232  26.085  1.00  0.00     0.010 C 
HETATM    4  C4  UNL     1      21.755  -0.187  25.853  1.00  0.00     0.001 C 
HETATM    5  C5  UNL     1      21.400   1.233  25.731  1.00  0.00     0.001 C 
HETATM    6  C6  UNL     1      21.436   1.885  24.386  1.00  0.00     0.023 C 
HETATM    7  C7  UNL     1      22.797   2.037  23.748  1.00  0.00     0.086 C 
HETATM    8  C8  UNL     1      22.766   3.511  23.406  1.00  0.00     0.239 C 
HETATM    9  O1  UNL     1      22.363   4.188  24.399  1.00  0.00    -0.272 OA
HETATM   10  N1  UNL     1      23.042   4.350  22.343  1.00  0.00    -0.287 N 
HETATM   11  C9  UNL     1      22.447   5.654  22.307  1.00  0.00     0.230 C 
HETATM   12  O2  UNL     1      21.674   5.910  23.294  1.00  0.00    -0.273 OA
HETATM   13  C15 UNL     1      23.898   4.028  21.226  1.00  0.00     0.136 C 
HETATM   14  C16 UNL     1      24.779   2.919  21.676  1.00  0.00     0.039 C 
HETATM   15  C17 UNL     1      24.084   1.626  21.584  1.00  0.00     0.104 C 
HETATM   16 BR1  UNL     1      23.647   1.677  19.653  1.00  0.00    -0.088 Br
HETATM   17  C18 UNL     1      22.999   1.230  22.479  1.00  0.00     0.185 C 
HETATM   18  C20 UNL     1      23.912   1.873  24.750  1.00  0.00     0.015 A 
HETATM   19  C21 UNL     1      25.031   0.988  24.826  1.00  0.00     0.016 A 
ENDROOT
BRANCH  17  20
HETATM   20  O3  UNL     1      23.378  -0.059  22.989  1.00  0.00    -0.379 OA
ATOM     21  H3  UNL     1      22.876  -0.651  22.442  1.00  0.00     0.211 HD
ENDBRANCH  17  20
BRANCH  17  22
HETATM   22  C19 UNL     1      21.855   0.753  21.684  1.00  0.00     0.420 C 
HETATM   23  F1  UNL     1      20.807   1.610  21.400  1.00  0.00    -0.168 F 
HETATM   24  F2  UNL     1      21.068  -0.022  22.588  1.00  0.00    -0.168 F 
HETATM   25  F3  UNL     1      22.167  -0.062  20.629  1.00  0.00    -0.168 F 
ENDBRANCH  17  22
BRANCH  11  26
HETATM   26  C10 UNL     1      22.638   6.670  21.295  1.00  0.00     0.078 C 
HETATM   27  C11 UNL     1      21.994   7.993  21.511  1.00  0.00     0.014 C 
HETATM   28  C12 UNL     1      21.816   8.537  20.085  1.00  0.00     0.001 C 
HETATM   29  C13 UNL     1      22.062   7.400  19.150  1.00  0.00     0.001 C 
HETATM   30  C14 UNL     1      21.932   6.188  20.015  1.00  0.00     0.014 C 
ENDBRANCH  11  26
TORSDOF 3
ENDMDL
MODEL 5
REMARK VINA RESULT: -6.661381386      3.300      6.575
REMARK  3 active torsions:
REMARK  status: ('A' for Active; 'I' for Inactive)
REMARK       I    between atoms: N1_10  and  C9_11 
REMARK    1  A    between atoms: C9_11  and  C10_13 
REMARK    2  A    between atoms: C18_22  and  O3_23 
REMARK    3  A    between atoms: C18_22  and  C19_25 
ROOT
HETATM    1  C1  UNL     1      25.897   3.141  19.258  1.00  0.00     0.015 C 
HETATM    2  C2  UNL     1      24.509   2.566  19.680  1.00  0.00    -0.039 A 
HETATM    3  C3  UNL     1      23.845   1.866  18.581  1.00  0.00     0.010 C 
HETATM    4  C4  UNL     1      23.725   0.377  18.788  1.00  0.00     0.001 C 
HETATM    5  C5  UNL     1      24.544   0.057  19.965  1.00  0.00     0.001 C 
HETATM    6  C6  UNL     1      23.923   0.103  21.324  1.00  0.00     0.023 C 
HETATM    7  C7  UNL     1      23.502   1.464  21.826  1.00  0.00     0.086 C 
HETATM    8  C8  UNL     1      24.180   1.469  23.179  1.00  0.00     0.239 C 
HETATM    9  O1  UNL     1      25.385   1.088  23.074  1.00  0.00    -0.272 OA
HETATM   10  N1  UNL     1      23.892   1.761  24.499  1.00  0.00    -0.287 N 
HETATM   11  C9  UNL     1      24.707   1.199  25.536  1.00  0.00     0.230 C 
HETATM   12  O2  UNL     1      25.645   0.437  25.116  1.00  0.00    -0.273 OA
HETATM   13  C15 UNL     1      22.809   2.603  24.950  1.00  0.00     0.136 C 
HETATM   14  C16 UNL     1      22.430   3.458  23.794  1.00  0.00     0.039 C 
HETATM   15  C17 UNL     1      21.549   2.730  22.870  1.00  0.00     0.104 C 
HETATM   16 BR1  UNL     1      20.103   2.285  24.148  1.00  0.00    -0.088 Br
HETATM   17  C18 UNL     1      22.006   1.640  22.012  1.00  0.00     0.185 C 
HETATM   18  C20 UNL     1      24.148   2.580  21.042  1.00  0.00     0.015 A 
HETATM   19  C21 UNL     1      23.619   3.676  20.294  1.00  0.00     0.016 A 
ENDROOT
BRANCH  17  20
HETATM   20  O3  UNL     1      21.570   1.988  20.688  1.00  0.00    -0.379 OA
ATOM     21  H3  UNL     1      21.654   2.935  20.687  1.00  0.00     0.211 HD
ENDBRANCH  17  20
BRANCH  17  22
HETATM   22  C19 UNL     1      21.113   0.480  22.170  1.00  0.00     0.420 C 
HETATM   23  F1  UNL     1      21.277  -0.375  23.245  1.00  0.00    -0.168 F 
HETATM   24  F2  UNL     1      21.588  -0.489  21.237  1.00  0.00    -0.168 F 
HETATM   25  F3  UNL     1      19.795   0.704  21.876  1.00  0.00    -0.168 F 
ENDBRANCH  17  22
BRANCH  11  26
HETATM   26  C10 UNL     1      24.572   1.410  26.960  1.00  0.00     0.078 C 
HETATM   27  C11 UNL     1      23.267   1.917  27.465  1.00  0.00     0.014 C 
HETATM   28  C12 UNL     1      23.646   2.629  28.772  1.00  0.00     0.001 C 
HETATM   29  C13 UNL     1      25.132   2.766  28.780  1.00  0.00     0.001 C 
HETATM   30  C14 UNL     1      25.521   2.557  27.352  1.00  0.00     0.014 C 
ENDBRANCH  11  26
TORSDOF 3
ENDMDL
