MODEL 1
REMARK VINA RESULT: -8.562586300      0.000      0.000
REMARK  4 active torsions:
REMARK  status: ('A' for Active; 'I' for Inactive)
REMARK    1  A    between atoms: N1_6  and  C6_7 
REMARK    2  A    between atoms: C6_7  and  O1_8 
REMARK    3  A    between atoms: C6_7  and  C7_10 
REMARK       I    between atoms: N2_17  and  C12_18 
REMARK       I    between atoms: C12_18  and  N3_20 
REMARK    4  A    between atoms: N3_20  and  C13_22 
ROOT
HETATM    1  C7  UNL     1      22.578   6.173  20.701  1.00  0.00     0.163 C 
HETATM    2  C8  UNL     1      22.429   7.678  20.828  1.00  0.00     0.040 C 
HETATM    3  C9  UNL     1      21.440   8.096  21.870  1.00  0.00     0.083 C 
HETATM    4  C10 UNL     1      21.462   7.330  23.142  1.00  0.00     0.259 C 
HETATM    5  F1  UNL     1      21.645   8.165  24.253  1.00  0.00    -0.205 F 
HETATM    6  F2  UNL     1      20.248   6.695  23.314  1.00  0.00    -0.205 F 
HETATM    7  C11 UNL     1      22.617   6.375  23.154  1.00  0.00     0.207 C 
HETATM    8  N2  UNL     1      22.443   5.529  21.954  1.00  0.00    -0.316 N 
HETATM    9  C12 UNL     1      22.132   4.185  22.148  1.00  0.00     0.319 C 
HETATM   10  O2  UNL     1      22.049   3.732  23.321  1.00  0.00    -0.247 OA
HETATM   11  N3  UNL     1      21.890   3.246  21.111  1.00  0.00    -0.338 N 
ATOM     12  H3  UNL     1      21.949   3.582  20.149  1.00  0.00     0.164 HD
ENDROOT
BRANCH   1  13
HETATM   13  C6  UNL     1      23.733   5.929  19.863  1.00  0.00     0.137 C 
BRANCH  13  14
HETATM   14  N1  UNL     1      24.123   6.372  18.609  1.00  0.00    -0.363 N 
HETATM   15  C5  UNL     1      24.007   5.387  17.501  1.00  0.00     0.124 C 
HETATM   16  C4  UNL     1      25.173   5.631  16.547  1.00  0.00     0.020 C 
HETATM   17  C3  UNL     1      24.931   6.951  15.828  1.00  0.00     0.007 C 
HETATM   18  C2  UNL     1      24.328   7.975  16.722  1.00  0.00    -0.001 C 
HETATM   19  C1  UNL     1      22.893   8.298  16.463  1.00  0.00     0.011 C 
HETATM   20  C22 UNL     1      24.618   7.632  18.177  1.00  0.00     0.128 C 
ENDBRANCH  13  14
BRANCH  13  21
HETATM   21  O1  UNL     1      24.580   5.104  20.440  1.00  0.00    -0.348 OA
ATOM     22  H1  UNL     1      24.947   5.421  21.257  1.00  0.00     0.219 HD
ENDBRANCH  13  21
ENDBRANCH   1  13
BRANCH  11  23
HETATM   23  C13 UNL     1      21.569   1.871  21.309  1.00  0.00     0.097 C 
HETATM   24  C14 UNL     1      21.334   1.513  22.755  1.00  0.00     0.015 C 
HETATM   25  C15 UNL     1      19.870   1.218  22.996  1.00  0.00     0.013 C 
HETATM   26  C16 UNL     1      22.205   0.343  23.104  1.00  0.00    -0.007 C 
HETATM   27  C17 UNL     1      21.537  -0.994  22.846  1.00  0.00     0.018 C 
HETATM   28  C18 UNL     1      22.672   0.369  24.538  1.00  0.00     0.018 C 
HETATM   29  C19 UNL     1      23.373   0.508  22.137  1.00  0.00     0.125 C 
HETATM   30 CL1  UNL     1      24.532   1.729  22.682  1.00  0.00    -0.100 Cl
HETATM   31 CL2  UNL     1      24.251  -1.023  21.915  1.00  0.00    -0.100 Cl
HETATM   32  C20 UNL     1      22.668   0.931  20.860  1.00  0.00     0.044 C 
HETATM   33  C21 UNL     1      23.603   1.498  19.858  1.00  0.00     0.015 C 
ENDBRANCH  11  23
TORSDOF 4
ENDMDL
MODEL 2
REMARK VINA RESULT: -8.486319747      3.123      4.735
REMARK  4 active torsions:
REMARK  status: ('A' for Active; 'I' for Inactive)
REMARK    1  A    between atoms: N1_6  and  C6_7 
REMARK    2  A    between atoms: C6_7  and  O1_8 
REMARK    3  A    between atoms: C6_7  and  C7_10 
REMARK       I    between atoms: N2_17  and  C12_18 
REMARK       I    between atoms: C12_18  and  N3_20 
REMARK    4  A    between atoms: N3_20  and  C13_22 
ROOT
HETATM    1  C7  UNL     1      23.871   3.990  21.564  1.00  0.00     0.163 C 
HETATM    2  C8  UNL     1      24.790   4.237  20.381  1.00  0.00     0.040 C 
HETATM    3  C9  UNL     1      25.258   2.982  19.714  1.00  0.00     0.083 C 
HETATM    4  C10 UNL     1      24.244   1.911  19.545  1.00  0.00     0.259 C 
HETATM    5  F1  UNL     1      24.116   1.519  18.204  1.00  0.00    -0.205 F 
HETATM    6  F2  UNL     1      24.638   0.793  20.252  1.00  0.00    -0.205 F 
HETATM    7  C11 UNL     1      22.891   2.406  19.956  1.00  0.00     0.207 C 
HETATM    8  N2  UNL     1      23.045   2.861  21.354  1.00  0.00    -0.316 N 
HETATM    9  C12 UNL     1      22.397   2.131  22.349  1.00  0.00     0.319 C 
HETATM   10  O2  UNL     1      21.679   1.147  22.026  1.00  0.00    -0.247 OA
HETATM   11  N3  UNL     1      22.473   2.403  23.740  1.00  0.00    -0.338 N 
ATOM     12  H3  UNL     1      23.046   3.194  24.035  1.00  0.00     0.164 HD
ENDROOT
BRANCH   1  13
HETATM   13  C6  UNL     1      23.301   5.268  21.935  1.00  0.00     0.137 C 
BRANCH  13  14
HETATM   14  N1  UNL     1      22.674   6.282  21.229  1.00  0.00    -0.363 N 
HETATM   15  C5  UNL     1      22.661   7.620  21.879  1.00  0.00     0.124 C 
HETATM   16  C4  UNL     1      21.335   8.288  21.525  1.00  0.00     0.020 C 
HETATM   17  C3  UNL     1      21.364   8.650  20.047  1.00  0.00     0.007 C 
HETATM   18  C2  UNL     1      22.044   7.613  19.228  1.00  0.00    -0.001 C 
HETATM   19  C1  UNL     1      23.389   7.984  18.696  1.00  0.00     0.011 C 
HETATM   20  C22 UNL     1      22.032   6.278  19.962  1.00  0.00     0.128 C 
ENDBRANCH  13  14
BRANCH  13  21
HETATM   21  O1  UNL     1      23.418   5.490  23.226  1.00  0.00    -0.348 OA
ATOM     22  H1  UNL     1      23.348   6.403  23.478  1.00  0.00     0.219 HD
ENDBRANCH  13  21
ENDBRANCH   1  13
BRANCH  11  23
HETATM   23  C13 UNL     1      21.811   1.655  24.759  1.00  0.00     0.097 C 
HETATM   24  C14 UNL     1      21.465   2.475  25.975  1.00  0.00     0.015 C 
HETATM   25  C15 UNL     1      19.968   2.685  26.063  1.00  0.00     0.013 C 
HETATM   26  C16 UNL     1      22.005   1.781  27.189  1.00  0.00    -0.007 C 
HETATM   27  C17 UNL     1      21.025   0.791  27.792  1.00  0.00     0.018 C 
HETATM   28  C18 UNL     1      22.433   2.740  28.270  1.00  0.00     0.018 C 
HETATM   29  C19 UNL     1      23.196   1.014  26.622  1.00  0.00     0.125 C 
HETATM   30 CL1  UNL     1      24.614   2.048  26.394  1.00  0.00    -0.100 Cl
HETATM   31 CL2  UNL     1      23.662  -0.335  27.682  1.00  0.00    -0.100 Cl
HETATM   32  C20 UNL     1      22.646   0.513  25.297  1.00  0.00     0.044 C 
HETATM   33  C21 UNL     1      23.715   0.036  24.385  1.00  0.00     0.015 C 
ENDBRANCH  11  23
TORSDOF 4
ENDMDL
MODEL 3
REMARK VINA RESULT: -8.296907624      2.275      3.376
REMARK  4 active torsions:
REMARK  status: ('A' for Active; 'I' for Inactive)
REMARK    1  A    between atoms: N1_6  and  C6_7 
REMARK    2  A    between atoms: C6_7  and  O1_8 
REMARK    3  A    between atoms: C6_7  and  C7_10 
REMARK       I    between atoms: N2_17  and  C12_18 
REMARK       I    between atoms: C12_18  and  N3_20 
REMARK    4  A    between atoms: N3_20  and  C13_22 
ROOT
HETATM    1  C7  UNL     1      23.695   3.987  20.818  1.00  0.00     0.163 C 
HETATM    2  C8  UNL     1      23.813   5.122  19.818  1.00  0.00     0.040 C 
HETATM    3  C9  UNL     1      22.864   6.250  20.077  1.00  0.00     0.083 C 
HETATM    4  C10 UNL     1      22.685   6.643  21.498  1.00  0.00     0.259 C 
HETATM    5  F1  UNL     1      22.958   8.002  21.703  1.00  0.00    -0.205 F 
HETATM    6  F2  UNL     1      21.369   6.440  21.864  1.00  0.00    -0.205 F 
HETATM    7  C11 UNL     1      23.647   5.896  22.370  1.00  0.00     0.207 C 
HETATM    8  N2  UNL     1      23.383   4.464  22.113  1.00  0.00    -0.316 N 
HETATM    9  C12 UNL     1      22.826   3.711  23.144  1.00  0.00     0.319 C 
HETATM   10  O2  UNL     1      22.604   4.257  24.258  1.00  0.00    -0.247 OA
HETATM   11  N3  UNL     1      22.471   2.340  23.053  1.00  0.00    -0.338 N 
ATOM     12  H3  UNL     1      22.638   1.868  22.164  1.00  0.00     0.164 HD
ENDROOT
BRANCH   1  13
HETATM   13  C6  UNL     1      24.828   3.111  20.602  1.00  0.00     0.137 C 
BRANCH  13  14
HETATM   14  N1  UNL     1      25.654   2.854  19.520  1.00  0.00    -0.363 N 
HETATM   15  C5  UNL     1      25.261   1.711  18.653  1.00  0.00     0.124 C 
HETATM   16  C4  UNL     1      26.544   1.044  18.166  1.00  0.00     0.020 C 
HETATM   17  C3  UNL     1      27.221   1.980  17.175  1.00  0.00     0.007 C 
HETATM   18  C2  UNL     1      27.098   3.407  17.575  1.00  0.00    -0.001 C 
HETATM   19  C1  UNL     1      26.166   4.234  16.753  1.00  0.00     0.011 C 
HETATM   20  C22 UNL     1      26.834   3.506  19.072  1.00  0.00     0.128 C 
ENDBRANCH  13  14
BRANCH  13  21
HETATM   21  O1  UNL     1      25.113   2.419  21.685  1.00  0.00    -0.348 OA
ATOM     22  H1  UNL     1      25.599   2.900  22.345  1.00  0.00     0.219 HD
ENDBRANCH  13  21
ENDBRANCH   1  13
BRANCH  11  23
HETATM   23  C13 UNL     1      21.898   1.570  24.108  1.00  0.00     0.097 C 
HETATM   24  C14 UNL     1      22.909   1.095  25.120  1.00  0.00     0.015 C 
HETATM   25  C15 UNL     1      22.730   1.828  26.432  1.00  0.00     0.013 C 
HETATM   26  C16 UNL     1      22.762  -0.388  25.284  1.00  0.00    -0.007 C 
HETATM   27  C17 UNL     1      21.763  -0.771  26.360  1.00  0.00     0.018 C 
HETATM   28  C18 UNL     1      24.069  -1.077  25.585  1.00  0.00     0.018 C 
HETATM   29  C19 UNL     1      22.210  -0.811  23.925  1.00  0.00     0.125 C 
HETATM   30 CL1  UNL     1      23.474  -0.919  22.690  1.00  0.00    -0.100 Cl
HETATM   31 CL2  UNL     1      21.397  -2.389  24.019  1.00  0.00    -0.100 Cl
HETATM   32  C20 UNL     1      21.224   0.304  23.625  1.00  0.00     0.044 C 
HETATM   33  C21 UNL     1      20.807   0.323  22.201  1.00  0.00     0.015 C 
ENDBRANCH  11  23
TORSDOF 4
ENDMDL
MODEL 4
REMARK VINA RESULT: -8.177769285      2.305      3.456
REMARK  4 active torsions:
REMARK  status: ('A' for Active; 'I' for Inactive)
REMARK    1  A    between atoms: N1_6  and  C6_7 
REMARK    2  A    between atoms: C6_7  and  O1_8 
REMARK    3  A    between atoms: C6_7  and  C7_10 
REMARK       I    between atoms: N2_17  and  C12_18 
REMARK       I    between atoms: C12_18  and  N3_20 
REMARK    4  A    between atoms: N3_20  and  C13_22 
ROOT
HETATM    1  C7  UNL     1      22.087   6.158  22.086  1.00  0.00     0.163 C 
HETATM    2  C8  UNL     1      21.974   7.410  21.237  1.00  0.00     0.040 C 
HETATM    3  C9  UNL     1      20.812   8.280  21.605  1.00  0.00     0.083 C 
HETATM    4  C10 UNL     1      20.550   8.445  23.057  1.00  0.00     0.259 C 
HETATM    5  F1  UNL     1      20.538   9.795  23.436  1.00  0.00    -0.205 F 
HETATM    6  F2  UNL     1      19.302   7.935  23.356  1.00  0.00    -0.205 F 
HETATM    7  C11 UNL     1      21.641   7.805  23.859  1.00  0.00     0.207 C 
HETATM    8  N2  UNL     1      21.678   6.394  23.420  1.00  0.00    -0.316 N 
HETATM    9  C12 UNL     1      21.282   5.420  24.334  1.00  0.00     0.319 C 
HETATM   10  O2  UNL     1      20.949   5.764  25.499  1.00  0.00    -0.247 OA
HETATM   11  N3  UNL     1      21.217   4.027  24.064  1.00  0.00    -0.338 N 
ATOM     12  H3  UNL     1      21.481   3.716  23.129  1.00  0.00     0.164 HD
ENDROOT
BRANCH   1  13
HETATM   13  C6  UNL     1      23.376   5.564  21.799  1.00  0.00     0.137 C 
BRANCH  13  14
HETATM   14  N1  UNL     1      23.795   4.514  20.998  1.00  0.00    -0.363 N 
HETATM   15  C5  UNL     1      22.720   3.717  20.348  1.00  0.00     0.124 C 
HETATM   16  C4  UNL     1      23.191   2.266  20.301  1.00  0.00     0.020 C 
HETATM   17  C3  UNL     1      24.322   2.165  19.288  1.00  0.00     0.007 C 
HETATM   18  C2  UNL     1      25.215   3.353  19.323  1.00  0.00    -0.001 C 
HETATM   19  C1  UNL     1      25.104   4.284  18.160  1.00  0.00     0.011 C 
HETATM   20  C22 UNL     1      25.098   4.054  20.671  1.00  0.00     0.128 C 
ENDBRANCH  13  14
BRANCH  13  21
HETATM   21  O1  UNL     1      24.341   6.172  22.455  1.00  0.00    -0.348 OA
ATOM     22  H1  UNL     1      24.868   6.761  21.928  1.00  0.00     0.219 HD
ENDBRANCH  13  21
ENDBRANCH   1  13
BRANCH  11  23
HETATM   23  C13 UNL     1      20.809   3.030  24.999  1.00  0.00     0.097 C 
HETATM   24  C14 UNL     1      21.755   2.878  26.163  1.00  0.00     0.015 C 
HETATM   25  C15 UNL     1      21.120   3.402  27.433  1.00  0.00     0.013 C 
HETATM   26  C16 UNL     1      22.136   1.433  26.284  1.00  0.00    -0.007 C 
HETATM   27  C17 UNL     1      21.193   0.642  27.172  1.00  0.00     0.018 C 
HETATM   28  C18 UNL     1      23.541   1.239  26.795  1.00  0.00     0.018 C 
HETATM   29  C19 UNL     1      21.994   0.939  24.847  1.00  0.00     0.125 C 
HETATM   30 CL1  UNL     1      23.384   1.380  23.844  1.00  0.00    -0.100 Cl
HETATM   31 CL2  UNL     1      21.810  -0.829  24.786  1.00  0.00    -0.100 Cl
HETATM   32  C20 UNL     1      20.727   1.644  24.395  1.00  0.00     0.044 C 
HETATM   33  C21 UNL     1      20.558   1.614  22.921  1.00  0.00     0.015 C 
ENDBRANCH  11  23
TORSDOF 4
ENDMDL
MODEL 5
REMARK VINA RESULT: -8.149453354      2.244      3.202
REMARK  4 active torsions:
REMARK  status: ('A' for Active; 'I' for Inactive)
REMARK    1  A    between atoms: N1_6  and  C6_7 
REMARK    2  A    between atoms: C6_7  and  O1_8 
REMARK    3  A    between atoms: C6_7  and  C7_10 
REMARK       I    between atoms: N2_17  and  C12_18 
REMARK       I    between atoms: C12_18  and  N3_20 
REMARK    4  A    between atoms: N3_20  and  C13_22 
ROOT
HETATM    1  C7  UNL     1      21.177   6.449  23.543  1.00  0.00     0.163 C 
HETATM    2  C8  UNL     1      20.744   7.892  23.360  1.00  0.00     0.040 C 
HETATM    3  C9  UNL     1      19.687   8.327  24.326  1.00  0.00     0.083 C 
HETATM    4  C10 UNL     1      19.846   7.862  25.727  1.00  0.00     0.259 C 
HETATM    5  F1  UNL     1      19.859   8.931  26.634  1.00  0.00    -0.205 F 
HETATM    6  F2  UNL     1      18.773   7.063  26.067  1.00  0.00    -0.205 F 
HETATM    7  C11 UNL     1      21.161   7.164  25.898  1.00  0.00     0.207 C 
HETATM    8  N2  UNL     1      21.158   6.068  24.906  1.00  0.00    -0.316 N 
HETATM    9  C12 UNL     1      21.106   4.761  25.384  1.00  0.00     0.319 C 
HETATM   10  O2  UNL     1      21.104   4.557  26.628  1.00  0.00    -0.247 OA
HETATM   11  N3  UNL     1      21.053   3.597  24.573  1.00  0.00    -0.338 N 
ATOM     12  H3  UNL     1      21.054   3.728  23.561  1.00  0.00     0.164 HD
ENDROOT
BRANCH   1  13
HETATM   13  C6  UNL     1      22.362   6.255  22.735  1.00  0.00     0.137 C 
BRANCH  13  14
HETATM   14  N1  UNL     1      22.726   6.636  21.453  1.00  0.00    -0.363 N 
HETATM   15  C5  UNL     1      22.854   5.539  20.456  1.00  0.00     0.124 C 
HETATM   16  C4  UNL     1      24.001   5.905  19.518  1.00  0.00     0.020 C 
HETATM   17  C3  UNL     1      23.555   7.075  18.653  1.00  0.00     0.007 C 
HETATM   18  C2  UNL     1      22.726   8.049  19.411  1.00  0.00    -0.001 C 
HETATM   19  C1  UNL     1      21.271   8.065  19.074  1.00  0.00     0.011 C 
HETATM   20  C22 UNL     1      22.999   7.916  20.903  1.00  0.00     0.128 C 
ENDBRANCH  13  14
BRANCH  13  21
HETATM   21  O1  UNL     1      23.276   5.563  23.381  1.00  0.00    -0.348 OA
ATOM     22  H1  UNL     1      22.932   4.858  23.918  1.00  0.00     0.219 HD
ENDBRANCH  13  21
ENDBRANCH   1  13
BRANCH  11  23
HETATM   23  C13 UNL     1      20.998   2.258  25.062  1.00  0.00     0.097 C 
HETATM   24  C14 UNL     1      22.307   1.774  25.631  1.00  0.00     0.015 C 
HETATM   25  C15 UNL     1      22.214   1.639  27.135  1.00  0.00     0.013 C 
HETATM   26  C16 UNL     1      22.661   0.474  24.973  1.00  0.00    -0.007 C 
HETATM   27  C17 UNL     1      22.099  -0.733  25.701  1.00  0.00     0.018 C 
HETATM   28  C18 UNL     1      24.149   0.282  24.819  1.00  0.00     0.018 C 
HETATM   29  C19 UNL     1      21.974   0.598  23.617  1.00  0.00     0.125 C 
HETATM   30 CL1  UNL     1      22.896   1.597  22.484  1.00  0.00    -0.100 Cl
HETATM   31 CL2  UNL     1      21.726  -0.996  22.868  1.00  0.00    -0.100 Cl
HETATM   32  C20 UNL     1      20.652   1.246  23.992  1.00  0.00     0.044 C 
HETATM   33  C21 UNL     1      19.939   1.800  22.815  1.00  0.00     0.015 C 
ENDBRANCH  11  23
TORSDOF 4
ENDMDL
