MODEL 1
REMARK VINA RESULT: -6.705850421      0.000      0.000
REMARK  2 active torsions:
REMARK  status: ('A' for Active; 'I' for Inactive)
REMARK       I    between atoms: N1_6  and  C5_7 
REMARK    1  A    between atoms: C5_7  and  C6_9 
REMARK    2  A    between atoms: C16_22  and  O2_23 
ROOT
HETATM    1  C6  UNL     1      22.502   3.510  22.256  1.00  0.00     0.069 C 
HETATM    2  C7  UNL     1      21.136   2.792  22.188  1.00  0.00     0.034 C 
HETATM    3  C8  UNL     1      21.307   1.350  22.551  1.00  0.00    -0.005 C 
HETATM    4  C9  UNL     1      19.956   0.680  22.442  1.00  0.00     0.018 C 
HETATM    5  C10 UNL     1      22.291   0.625  21.646  1.00  0.00     0.019 C 
HETATM    6  C11 UNL     1      23.604   1.381  21.691  1.00  0.00     0.018 C 
HETATM    7  C12 UNL     1      24.169   1.312  23.068  1.00  0.00     0.031 C 
HETATM    8  C13 UNL     1      23.169   1.855  24.032  1.00  0.00     0.056 C 
HETATM    9 BR1  UNL     1      23.898   1.815  25.827  1.00  0.00    -0.082 Br
HETATM   10  C14 UNL     1      22.934   3.317  23.676  1.00  0.00     0.046 C 
HETATM   11  C15 UNL     1      21.835   1.169  23.969  1.00  0.00     0.138 C 
HETATM   12 CL2  UNL     1      21.937  -0.543  24.359  1.00  0.00    -0.099 Cl
HETATM   13 CL3  UNL     1      20.718   1.986  25.064  1.00  0.00    -0.099 Cl
HETATM   14  C16 UNL     1      23.316   2.784  21.224  1.00  0.00     0.140 C 
ENDROOT
BRANCH   1  15
HETATM   15  C5  UNL     1      22.344   4.943  22.003  1.00  0.00     0.231 C 
HETATM   16  N1  UNL     1      21.668   5.873  22.789  1.00  0.00    -0.351 N 
HETATM   17  C4  UNL     1      20.963   5.691  24.016  1.00  0.00     0.127 C 
HETATM   18  C17 UNL     1      21.634   7.286  22.346  1.00  0.00     0.127 C 
HETATM   19  C3  UNL     1      21.404   6.849  24.927  1.00  0.00     0.045 C 
HETATM   20  C2  UNL     1      20.608   8.047  24.504  1.00  0.00     0.036 C 
HETATM   21  C1  UNL     1      19.227   7.921  25.139  1.00  0.00     0.033 C 
HETATM   22 CL1  UNL     1      21.341   9.557  25.045  1.00  0.00    -0.119 Cl
HETATM   23  C18 UNL     1      20.470   8.003  23.000  1.00  0.00     0.045 C 
HETATM   24  O1  UNL     1      22.900   5.369  20.929  1.00  0.00    -0.272 OA
ENDBRANCH   1  15
BRANCH  14  25
HETATM   25  O2  UNL     1      22.460   2.633  20.100  1.00  0.00    -0.394 OA
ATOM     26  H2  UNL     1      21.633   2.324  20.451  1.00  0.00     0.210 HD
ENDBRANCH  14  25
TORSDOF 2
ENDMDL
MODEL 2
REMARK VINA RESULT: -6.697533689      2.509      3.181
REMARK  2 active torsions:
REMARK  status: ('A' for Active; 'I' for Inactive)
REMARK       I    between atoms: N1_6  and  C5_7 
REMARK    1  A    between atoms: C5_7  and  C6_9 
REMARK    2  A    between atoms: C16_22  and  O2_23 
ROOT
HETATM    1  C6  UNL     1      21.432   2.685  24.113  1.00  0.00     0.069 C 
HETATM    2  C7  UNL     1      21.776   1.276  24.645  1.00  0.00     0.034 C 
HETATM    3  C8  UNL     1      22.138   0.380  23.502  1.00  0.00    -0.005 C 
HETATM    4  C9  UNL     1      22.434  -0.992  24.063  1.00  0.00     0.018 C 
HETATM    5  C10 UNL     1      21.028   0.261  22.469  1.00  0.00     0.019 C 
HETATM    6  C11 UNL     1      20.676   1.660  22.005  1.00  0.00     0.018 C 
HETATM    7  C12 UNL     1      21.844   2.257  21.298  1.00  0.00     0.031 C 
HETATM    8  C13 UNL     1      23.023   2.242  22.212  1.00  0.00     0.056 C 
HETATM    9 BR1  UNL     1      24.547   3.053  21.331  1.00  0.00    -0.082 Br
HETATM   10  C14 UNL     1      22.685   3.115  23.415  1.00  0.00     0.046 C 
HETATM   11  C15 UNL     1      23.361   0.879  22.742  1.00  0.00     0.138 C 
HETATM   12 CL2  UNL     1      23.779  -0.256  21.466  1.00  0.00    -0.099 Cl
HETATM   13 CL3  UNL     1      24.686   1.025  23.898  1.00  0.00    -0.099 Cl
HETATM   14  C16 UNL     1      20.248   2.431  23.226  1.00  0.00     0.140 C 
ENDROOT
BRANCH   1  15
HETATM   15  C5  UNL     1      21.173   3.605  25.220  1.00  0.00     0.231 C 
HETATM   16  N1  UNL     1      21.017   4.988  25.156  1.00  0.00    -0.351 N 
HETATM   17  C4  UNL     1      21.070   5.861  24.028  1.00  0.00     0.127 C 
HETATM   18  C17 UNL     1      20.755   5.733  26.409  1.00  0.00     0.127 C 
HETATM   19  C3  UNL     1      19.873   6.814  24.183  1.00  0.00     0.045 C 
HETATM   20  C2  UNL     1      20.293   7.863  25.169  1.00  0.00     0.036 C 
HETATM   21  C1  UNL     1      21.150   8.876  24.418  1.00  0.00     0.033 C 
HETATM   22 CL1  UNL     1      18.912   8.706  25.871  1.00  0.00    -0.119 Cl
HETATM   23  C18 UNL     1      21.132   7.190  26.230  1.00  0.00     0.045 C 
HETATM   24  O1  UNL     1      21.082   3.053  26.375  1.00  0.00    -0.272 OA
ENDBRANCH   1  15
BRANCH  14  25
HETATM   25  O2  UNL     1      19.412   1.541  23.953  1.00  0.00    -0.394 OA
ATOM     26  H2  UNL     1      18.582   1.537  23.491  1.00  0.00     0.210 HD
ENDBRANCH  14  25
TORSDOF 2
ENDMDL
MODEL 3
REMARK VINA RESULT: -6.317768289      3.786      5.370
REMARK  2 active torsions:
REMARK  status: ('A' for Active; 'I' for Inactive)
REMARK       I    between atoms: N1_6  and  C5_7 
REMARK    1  A    between atoms: C5_7  and  C6_9 
REMARK    2  A    between atoms: C16_22  and  O2_23 
ROOT
HETATM    1  C6  UNL     1      23.326   1.135  21.552  1.00  0.00     0.069 C 
HETATM    2  C7  UNL     1      22.483  -0.100  21.938  1.00  0.00     0.034 C 
HETATM    3  C8  UNL     1      22.178  -0.063  23.404  1.00  0.00    -0.005 C 
HETATM    4  C9  UNL     1      21.382  -1.303  23.743  1.00  0.00     0.018 C 
HETATM    5  C10 UNL     1      23.429  -0.030  24.268  1.00  0.00     0.019 C 
HETATM    6  C11 UNL     1      24.261   1.160  23.830  1.00  0.00     0.018 C 
HETATM    7  C12 UNL     1      23.516   2.419  24.119  1.00  0.00     0.031 C 
HETATM    8  C13 UNL     1      22.194   2.369  23.432  1.00  0.00     0.056 C 
HETATM    9 BR1  UNL     1      21.222   4.014  23.757  1.00  0.00    -0.082 Br
HETATM   10  C14 UNL     1      22.455   2.292  21.933  1.00  0.00     0.046 C 
HETATM   11  C15 UNL     1      21.369   1.167  23.794  1.00  0.00     0.138 C 
HETATM   12 CL2  UNL     1      20.977   1.110  25.508  1.00  0.00    -0.099 Cl
HETATM   13 CL3  UNL     1      19.895   1.169  22.824  1.00  0.00    -0.099 Cl
HETATM   14  C16 UNL     1      24.573   0.963  22.371  1.00  0.00     0.140 C 
ENDROOT
BRANCH   1  15
HETATM   15  C5  UNL     1      23.552   1.174  20.107  1.00  0.00     0.231 C 
HETATM   16  N1  UNL     1      24.074   2.225  19.357  1.00  0.00    -0.351 N 
HETATM   17  C4  UNL     1      24.517   3.515  19.779  1.00  0.00     0.127 C 
HETATM   18  C17 UNL     1      24.223   2.050  17.894  1.00  0.00     0.127 C 
HETATM   19  C3  UNL     1      25.851   3.755  19.053  1.00  0.00     0.045 C 
HETATM   20  C2  UNL     1      25.503   4.194  17.661  1.00  0.00     0.036 C 
HETATM   21  C1  UNL     1      25.140   5.673  17.729  1.00  0.00     0.033 C 
HETATM   22 CL1  UNL     1      26.853   3.995  16.544  1.00  0.00    -0.119 Cl
HETATM   23  C18 UNL     1      24.293   3.405  17.218  1.00  0.00     0.045 C 
HETATM   24  O1  UNL     1      23.222   0.106  19.477  1.00  0.00    -0.272 OA
ENDBRANCH   1  15
BRANCH  14  25
HETATM   25  O2  UNL     1      24.922  -0.410  22.248  1.00  0.00    -0.394 OA
ATOM     26  H2  UNL     1      24.402  -0.863  22.901  1.00  0.00     0.210 HD
ENDBRANCH  14  25
TORSDOF 2
ENDMDL
MODEL 4
REMARK VINA RESULT: -6.031527953      3.616      6.927
REMARK  2 active torsions:
REMARK  status: ('A' for Active; 'I' for Inactive)
REMARK       I    between atoms: N1_6  and  C5_7 
REMARK    1  A    between atoms: C5_7  and  C6_9 
REMARK    2  A    between atoms: C16_22  and  O2_23 
ROOT
HETATM    1  C6  UNL     1      23.192   1.019  21.720  1.00  0.00     0.069 C 
HETATM    2  C7  UNL     1      23.109   2.250  22.650  1.00  0.00     0.034 C 
HETATM    3  C8  UNL     1      22.213   1.945  23.810  1.00  0.00    -0.005 C 
HETATM    4  C9  UNL     1      22.135   3.183  24.674  1.00  0.00     0.018 C 
HETATM    5  C10 UNL     1      20.807   1.552  23.385  1.00  0.00     0.019 C 
HETATM    6  C11 UNL     1      20.924   0.377  22.433  1.00  0.00     0.018 C 
HETATM    7  C12 UNL     1      21.487  -0.796  23.160  1.00  0.00     0.031 C 
HETATM    8  C13 UNL     1      22.801  -0.414  23.753  1.00  0.00     0.056 C 
HETATM    9 BR1  UNL     1      23.576  -1.937  24.669  1.00  0.00    -0.082 Br
HETATM   10  C14 UNL     1      23.738  -0.057  22.606  1.00  0.00     0.046 C 
HETATM   11  C15 UNL     1      22.733   0.787  24.652  1.00  0.00     0.138 C 
HETATM   12 CL2  UNL     1      21.682   0.532  26.039  1.00  0.00    -0.099 Cl
HETATM   13 CL3  UNL     1      24.365   1.200  25.182  1.00  0.00    -0.099 Cl
HETATM   14  C16 UNL     1      21.770   0.835  21.275  1.00  0.00     0.140 C 
ENDROOT
BRANCH   1  15
HETATM   15  C5  UNL     1      24.141   1.258  20.632  1.00  0.00     0.231 C 
HETATM   16  N1  UNL     1      24.707   0.315  19.778  1.00  0.00    -0.351 N 
HETATM   17  C4  UNL     1      24.526  -1.101  19.731  1.00  0.00     0.127 C 
HETATM   18  C17 UNL     1      25.650   0.777  18.733  1.00  0.00     0.127 C 
HETATM   19  C3  UNL     1      24.342  -1.449  18.245  1.00  0.00     0.045 C 
HETATM   20  C2  UNL     1      25.716  -1.481  17.645  1.00  0.00     0.036 C 
HETATM   21  C1  UNL     1      26.336  -2.827  18.003  1.00  0.00     0.033 C 
HETATM   22 CL1  UNL     1      25.677  -1.328  15.888  1.00  0.00    -0.119 Cl
HETATM   23  C18 UNL     1      26.525  -0.376  18.282  1.00  0.00     0.045 C 
HETATM   24  O1  UNL     1      24.477   2.484  20.464  1.00  0.00    -0.272 OA
ENDBRANCH   1  15
BRANCH  14  25
HETATM   25  O2  UNL     1      21.297   2.139  20.963  1.00  0.00    -0.394 OA
ATOM     26  H2  UNL     1      20.576   2.010  20.358  1.00  0.00     0.210 HD
ENDBRANCH  14  25
TORSDOF 2
ENDMDL
MODEL 5
REMARK VINA RESULT: -6.028933363      1.805      2.439
REMARK  2 active torsions:
REMARK  status: ('A' for Active; 'I' for Inactive)
REMARK       I    between atoms: N1_6  and  C5_7 
REMARK    1  A    between atoms: C5_7  and  C6_9 
REMARK    2  A    between atoms: C16_22  and  O2_23 
ROOT
HETATM    1  C6  UNL     1      22.060   2.320  23.333  1.00  0.00     0.069 C 
HETATM    2  C7  UNL     1      21.123   1.092  23.337  1.00  0.00     0.034 C 
HETATM    3  C8  UNL     1      21.930  -0.157  23.167  1.00  0.00    -0.005 C 
HETATM    4  C9  UNL     1      20.974  -1.328  23.144  1.00  0.00     0.018 C 
HETATM    5  C10 UNL     1      22.746  -0.163  21.884  1.00  0.00     0.019 C 
HETATM    6  C11 UNL     1      23.615   1.079  21.883  1.00  0.00     0.018 C 
HETATM    7  C12 UNL     1      24.594   1.000  23.004  1.00  0.00     0.031 C 
HETATM    8  C13 UNL     1      23.851   0.829  24.285  1.00  0.00     0.056 C 
HETATM    9 BR1  UNL     1      25.101   0.767  25.766  1.00  0.00    -0.082 Br
HETATM   10  C14 UNL     1      22.983   2.066  24.484  1.00  0.00     0.046 C 
HETATM   11  C15 UNL     1      22.931  -0.357  24.298  1.00  0.00     0.138 C 
HETATM   12 CL2  UNL     1      23.788  -1.878  24.080  1.00  0.00    -0.099 Cl
HETATM   13 CL3  UNL     1      22.030  -0.369  25.815  1.00  0.00    -0.099 Cl
HETATM   14  C16 UNL     1      22.688   2.262  21.970  1.00  0.00     0.140 C 
ENDROOT
BRANCH   1  15
HETATM   15  C5  UNL     1      21.306   3.546  23.600  1.00  0.00     0.231 C 
HETATM   16  N1  UNL     1      21.584   4.830  23.140  1.00  0.00    -0.351 N 
HETATM   17  C4  UNL     1      22.650   5.293  22.311  1.00  0.00     0.127 C 
HETATM   18  C17 UNL     1      20.679   5.936  23.530  1.00  0.00     0.127 C 
HETATM   19  C3  UNL     1      21.999   6.226  21.277  1.00  0.00     0.045 C 
HETATM   20  C2  UNL     1      21.798   7.544  21.964  1.00  0.00     0.036 C 
HETATM   21  C1  UNL     1      23.137   8.272  21.950  1.00  0.00     0.033 C 
HETATM   22 CL1  UNL     1      20.603   8.547  21.142  1.00  0.00    -0.119 Cl
HETATM   23  C18 UNL     1      21.399   7.263  23.394  1.00  0.00     0.045 C 
HETATM   24  O1  UNL     1      20.273   3.395  24.345  1.00  0.00    -0.272 OA
ENDBRANCH   1  15
BRANCH  14  25
HETATM   25  O2  UNL     1      21.625   1.967  21.074  1.00  0.00    -0.394 OA
ATOM     26  H2  UNL     1      21.783   2.504  20.307  1.00  0.00     0.210 HD
ENDBRANCH  14  25
TORSDOF 2
ENDMDL
