MODEL 1
REMARK VINA RESULT: -7.737311439      0.000      0.000
REMARK  1 active torsions:
REMARK  status: ('A' for Active; 'I' for Inactive)
REMARK    1  A    between atoms: C26_32  and  O2_33 
ROOT
HETATM    1  C1  UNL     1      23.141   3.812  21.921  1.00  0.00     0.314 C 
HETATM    2  N1  UNL     1      24.150   2.837  21.612  1.00  0.00     0.120 N 
HETATM    3  C2  UNL     1      25.472   3.236  21.982  1.00  0.00     0.277 C 
HETATM    4  C3  UNL     1      26.325   2.310  21.139  1.00  0.00     0.044 C 
HETATM    5  C4  UNL     1      25.574   2.236  19.816  1.00  0.00     0.083 C 
HETATM    6  C5  UNL     1      25.899   0.921  19.081  1.00  0.00    -0.063 C 
HETATM    7  C6  UNL     1      27.190   0.870  18.828  1.00  0.00    -0.022 C 
HETATM    8  C7  UNL     1      28.078  -0.129  18.156  1.00  0.00     0.034 C 
HETATM    9  C8  UNL     1      27.903  -0.214  16.723  1.00  0.00     0.025 C 
HETATM   10  C9  UNL     1      27.278  -1.496  16.383  1.00  0.00     0.023 C 
HETATM   11  C10 UNL     1      27.929  -2.631  15.707  1.00  0.00     0.009 C 
HETATM   12  C11 UNL     1      27.441  -2.631  14.226  1.00  0.00     0.020 C 
HETATM   13  C12 UNL     1      27.279  -1.173  14.203  1.00  0.00     0.043 C 
HETATM   14  C13 UNL     1      28.709  -0.699  14.516  1.00  0.00     0.052 C 
HETATM   15  C14 UNL     1      28.793   0.279  15.661  1.00  0.00     0.112 C 
HETATM   16 CL1  UNL     1      30.472   0.150  16.277  1.00  0.00    -0.112 Cl
HETATM   17  C15 UNL     1      28.486   1.637  15.085  1.00  0.00     0.283 C 
HETATM   18  F1  UNL     1      27.740   2.407  16.005  1.00  0.00    -0.200 F 
HETATM   19  F2  UNL     1      29.725   2.327  15.147  1.00  0.00    -0.200 F 
HETATM   20  C16 UNL     1      28.043   1.813  13.718  1.00  0.00     0.055 C 
HETATM   21  C17 UNL     1      27.185   0.898  12.983  1.00  0.00     0.040 C 
HETATM   22  C18 UNL     1      26.802  -0.378  13.112  1.00  0.00     0.105 C 
HETATM   23  F3  UNL     1      25.958  -0.881  12.178  1.00  0.00    -0.210 F 
HETATM   24  C19 UNL     1      26.316  -1.023  15.306  1.00  0.00     0.147 C 
HETATM   25  O1  UNL     1      25.210  -1.614  15.596  1.00  0.00    -0.356 OA
HETATM   26  C20 UNL     1      24.468  -0.757  16.463  1.00  0.00     0.132 C 
HETATM   27  C21 UNL     1      24.513  -0.983  17.895  1.00  0.00     0.011 C 
HETATM   28  C22 UNL     1      24.744   0.096  18.869  1.00  0.00    -0.001 C 
HETATM   29  C23 UNL     1      24.314  -0.620  20.193  1.00  0.00     0.024 C 
HETATM   30  C24 UNL     1      23.581   1.066  18.521  1.00  0.00     0.023 C 
HETATM   31  C25 UNL     1      23.127   1.650  19.814  1.00  0.00     0.073 C 
HETATM   32  C26 UNL     1      24.243   2.586  20.168  1.00  0.00     0.265 C 
ENDROOT
BRANCH  32  33
HETATM   33  O2  UNL     1      23.832   3.837  19.621  1.00  0.00    -0.362 OA
ATOM     34  H2  UNL     1      22.886   3.777  19.678  1.00  0.00     0.212 HD
ENDBRANCH  32  33
TORSDOF 1
ENDMDL
MODEL 2
REMARK VINA RESULT: -6.923334418      1.085      1.266
REMARK  1 active torsions:
REMARK  status: ('A' for Active; 'I' for Inactive)
REMARK    1  A    between atoms: C26_32  and  O2_33 
ROOT
HETATM    1  C1  UNL     1      22.536   5.259  21.682  1.00  0.00     0.314 C 
HETATM    2  N1  UNL     1      23.587   4.281  21.649  1.00  0.00     0.120 N 
HETATM    3  C2  UNL     1      24.878   4.810  21.963  1.00  0.00     0.277 C 
HETATM    4  C3  UNL     1      25.797   3.747  21.395  1.00  0.00     0.044 C 
HETATM    5  C4  UNL     1      25.110   3.334  20.100  1.00  0.00     0.083 C 
HETATM    6  C5  UNL     1      25.508   1.897  19.710  1.00  0.00    -0.063 C 
HETATM    7  C6  UNL     1      26.810   1.841  19.524  1.00  0.00    -0.022 C 
HETATM    8  C7  UNL     1      27.759   0.749  19.141  1.00  0.00     0.034 C 
HETATM    9  C8  UNL     1      27.652   0.322  17.763  1.00  0.00     0.025 C 
HETATM   10  C9  UNL     1      27.082  -1.029  17.713  1.00  0.00     0.023 C 
HETATM   11  C10 UNL     1      27.799  -2.263  17.349  1.00  0.00     0.009 C 
HETATM   12  C11 UNL     1      27.379  -2.631  15.893  1.00  0.00     0.020 C 
HETATM   13  C12 UNL     1      27.173  -1.227  15.520  1.00  0.00     0.043 C 
HETATM   14  C13 UNL     1      28.572  -0.635  15.765  1.00  0.00     0.052 C 
HETATM   15  C14 UNL     1      28.573   0.587  16.648  1.00  0.00     0.112 C 
HETATM   16 CL1  UNL     1      30.225   0.676  17.338  1.00  0.00    -0.112 Cl
HETATM   17  C15 UNL     1      28.251   1.758  15.757  1.00  0.00     0.283 C 
HETATM   18  F1  UNL     1      27.440   2.692  16.440  1.00  0.00    -0.200 F 
HETATM   19  F2  UNL     1      29.464   2.494  15.699  1.00  0.00    -0.200 F 
HETATM   20  C16 UNL     1      27.866   1.590  14.371  1.00  0.00     0.055 C 
HETATM   21  C17 UNL     1      27.070   0.494  13.843  1.00  0.00     0.040 C 
HETATM   22  C18 UNL     1      26.722  -0.731  14.255  1.00  0.00     0.105 C 
HETATM   23  F3  UNL     1      25.937  -1.473  13.436  1.00  0.00    -0.210 F 
HETATM   24  C19 UNL     1      26.157  -0.861  16.520  1.00  0.00     0.147 C 
HETATM   25  O1  UNL     1      25.057  -1.412  16.900  1.00  0.00    -0.356 OA
HETATM   26  C20 UNL     1      24.250  -0.406  17.513  1.00  0.00     0.132 C 
HETATM   27  C21 UNL     1      24.237  -0.288  18.958  1.00  0.00     0.011 C 
HETATM   28  C22 UNL     1      24.390   0.999  19.657  1.00  0.00    -0.001 C 
HETATM   29  C23 UNL     1      23.922   0.597  21.096  1.00  0.00     0.024 C 
HETATM   30  C24 UNL     1      23.214   1.811  19.047  1.00  0.00     0.023 C 
HETATM   31  C25 UNL     1      22.685   2.664  20.147  1.00  0.00     0.073 C 
HETATM   32  C26 UNL     1      23.754   3.701  20.311  1.00  0.00     0.265 C 
ENDROOT
BRANCH  32  33
HETATM   33  O2  UNL     1      23.330   4.771  19.468  1.00  0.00    -0.362 OA
ATOM     34  H2  UNL     1      23.121   4.317  18.661  1.00  0.00     0.212 HD
ENDBRANCH  32  33
TORSDOF 1
ENDMDL
MODEL 3
REMARK VINA RESULT: -6.910816146      6.121      8.455
REMARK  1 active torsions:
REMARK  status: ('A' for Active; 'I' for Inactive)
REMARK    1  A    between atoms: C26_32  and  O2_33 
ROOT
HETATM    1  C1  UNL     1      29.218  -1.268  27.650  1.00  0.00     0.314 C 
HETATM    2  N1  UNL     1      28.215  -1.582  26.671  1.00  0.00     0.120 N 
HETATM    3  C2  UNL     1      28.745  -2.089  25.444  1.00  0.00     0.277 C 
HETATM    4  C3  UNL     1      27.588  -1.868  24.490  1.00  0.00     0.044 C 
HETATM    5  C4  UNL     1      27.020  -0.522  24.921  1.00  0.00     0.083 C 
HETATM    6  C5  UNL     1      25.532  -0.412  24.534  1.00  0.00    -0.063 C 
HETATM    7  C6  UNL     1      25.414  -0.512  23.227  1.00  0.00    -0.022 C 
HETATM    8  C7  UNL     1      24.252  -0.480  22.283  1.00  0.00     0.034 C 
HETATM    9  C8  UNL     1      23.644   0.823  22.131  1.00  0.00     0.025 C 
HETATM   10  C9  UNL     1      22.316   0.818  22.754  1.00  0.00     0.023 C 
HETATM   11  C10 UNL     1      21.023   0.861  22.050  1.00  0.00     0.009 C 
HETATM   12  C11 UNL     1      20.471   2.313  22.185  1.00  0.00     0.020 C 
HETATM   13  C12 UNL     1      21.815   2.899  22.230  1.00  0.00     0.043 C 
HETATM   14  C13 UNL     1      22.394   2.444  20.879  1.00  0.00     0.052 C 
HETATM   15  C14 UNL     1      23.726   1.745  20.988  1.00  0.00     0.112 C 
HETATM   16 CL1  UNL     1      23.861   0.742  19.509  1.00  0.00    -0.112 Cl
HETATM   17  C15 UNL     1      24.772   2.828  21.055  1.00  0.00     0.283 C 
HETATM   18  F1  UNL     1      25.814   2.455  21.934  1.00  0.00    -0.200 F 
HETATM   19  F2  UNL     1      25.458   2.724  19.816  1.00  0.00    -0.200 F 
HETATM   20  C16 UNL     1      24.426   4.230  21.159  1.00  0.00     0.055 C 
HETATM   21  C17 UNL     1      23.290   4.768  21.891  1.00  0.00     0.040 C 
HETATM   22  C18 UNL     1      22.145   4.283  22.385  1.00  0.00     0.105 C 
HETATM   23  F3  UNL     1      21.320   5.146  23.027  1.00  0.00    -0.210 F 
HETATM   24  C19 UNL     1      22.344   2.189  23.406  1.00  0.00     0.147 C 
HETATM   25  O1  UNL     1      21.883   1.980  24.590  1.00  0.00    -0.356 OA
HETATM   26  C20 UNL     1      22.986   1.685  25.446  1.00  0.00     0.132 C 
HETATM   27  C21 UNL     1      23.302   0.303  25.747  1.00  0.00     0.011 C 
HETATM   28  C22 UNL     1      24.668  -0.242  25.666  1.00  0.00    -0.001 C 
HETATM   29  C23 UNL     1      24.482  -1.590  26.440  1.00  0.00     0.024 C 
HETATM   30  C24 UNL     1      25.422   0.701  26.646  1.00  0.00     0.023 C 
HETATM   31  C25 UNL     1      26.434  -0.145  27.339  1.00  0.00     0.073 C 
HETATM   32  C26 UNL     1      27.452  -0.394  26.268  1.00  0.00     0.265 C 
ENDROOT
BRANCH  32  33
HETATM   33  O2  UNL     1      28.408   0.649  26.451  1.00  0.00    -0.362 OA
ATOM     34  H2  UNL     1      28.825   0.395  27.266  1.00  0.00     0.212 HD
ENDBRANCH  32  33
TORSDOF 1
ENDMDL
MODEL 4
REMARK VINA RESULT: -6.852162675      6.299     10.947
REMARK  1 active torsions:
REMARK  status: ('A' for Active; 'I' for Inactive)
REMARK    1  A    between atoms: C26_32  and  O2_33 
ROOT
HETATM    1  C1  UNL     1      25.821   2.210  18.760  1.00  0.00     0.314 C 
HETATM    2  N1  UNL     1      24.659   1.885  19.537  1.00  0.00     0.120 N 
HETATM    3  C2  UNL     1      23.484   2.599  19.146  1.00  0.00     0.277 C 
HETATM    4  C3  UNL     1      22.604   2.448  20.370  1.00  0.00     0.044 C 
HETATM    5  C4  UNL     1      23.581   2.576  21.532  1.00  0.00     0.083 C 
HETATM    6  C5  UNL     1      23.038   1.852  22.779  1.00  0.00    -0.063 C 
HETATM    7  C6  UNL     1      21.896   2.399  23.138  1.00  0.00    -0.022 C 
HETATM    8  C7  UNL     1      20.921   2.138  24.242  1.00  0.00     0.034 C 
HETATM    9  C8  UNL     1      21.391   2.519  25.555  1.00  0.00     0.025 C 
HETATM   10  C9  UNL     1      21.640   1.313  26.354  1.00  0.00     0.023 C 
HETATM   11  C10 UNL     1      20.840   0.847  27.499  1.00  0.00     0.009 C 
HETATM   12  C11 UNL     1      21.637   1.197  28.794  1.00  0.00     0.020 C 
HETATM   13  C12 UNL     1      22.254   2.379  28.182  1.00  0.00     0.043 C 
HETATM   14  C13 UNL     1      21.016   3.218  27.820  1.00  0.00     0.052 C 
HETATM   15  C14 UNL     1      20.980   3.665  26.380  1.00  0.00     0.112 C 
HETATM   16 CL1  UNL     1      19.253   3.980  26.020  1.00  0.00    -0.112 Cl
HETATM   17  C15 UNL     1      21.828   4.908  26.297  1.00  0.00     0.283 C 
HETATM   18  F1  UNL     1      22.542   4.939  25.078  1.00  0.00    -0.200 F 
HETATM   19  F2  UNL     1      20.895   5.949  26.053  1.00  0.00    -0.200 F 
HETATM   20  C16 UNL     1      22.613   5.382  27.418  1.00  0.00     0.055 C 
HETATM   21  C17 UNL     1      23.284   4.542  28.396  1.00  0.00     0.040 C 
HETATM   22  C18 UNL     1      23.200   3.265  28.789  1.00  0.00     0.105 C 
HETATM   23  F3  UNL     1      24.036   2.852  29.773  1.00  0.00    -0.210 F 
HETATM   24  C19 UNL     1      22.926   1.734  27.043  1.00  0.00     0.147 C 
HETATM   25  O1  UNL     1      23.687   0.701  26.938  1.00  0.00    -0.356 OA
HETATM   26  C20 UNL     1      24.436   0.827  25.730  1.00  0.00     0.132 C 
HETATM   27  C21 UNL     1      23.987   0.133  24.540  1.00  0.00     0.011 C 
HETATM   28  C22 UNL     1      23.888   0.784  23.223  1.00  0.00    -0.001 C 
HETATM   29  C23 UNL     1      23.745  -0.470  22.296  1.00  0.00     0.024 C 
HETATM   30  C24 UNL     1      25.346   1.284  23.027  1.00  0.00     0.023 C 
HETATM   31  C25 UNL     1      25.644   1.135  21.575  1.00  0.00     0.073 C 
HETATM   32  C26 UNL     1      24.832   2.231  20.954  1.00  0.00     0.265 C 
ENDROOT
BRANCH  32  33
HETATM   33  O2  UNL     1      25.735   3.332  20.881  1.00  0.00    -0.362 OA
ATOM     34  H2  UNL     1      26.181   3.278  21.719  1.00  0.00     0.212 HD
ENDBRANCH  32  33
TORSDOF 1
ENDMDL
MODEL 5
REMARK VINA RESULT: -6.735462806      4.379      6.523
REMARK  1 active torsions:
REMARK  status: ('A' for Active; 'I' for Inactive)
REMARK    1  A    between atoms: C26_32  and  O2_33 
ROOT
HETATM    1  C1  UNL     1      21.488  -0.893  27.961  1.00  0.00     0.314 C 
HETATM    2  N1  UNL     1      22.324   0.077  27.312  1.00  0.00     0.120 N 
HETATM    3  C2  UNL     1      21.723   1.369  27.191  1.00  0.00     0.277 C 
HETATM    4  C3  UNL     1      22.561   2.002  26.098  1.00  0.00     0.044 C 
HETATM    5  C4  UNL     1      22.808   0.855  25.127  1.00  0.00     0.083 C 
HETATM    6  C5  UNL     1      24.100   1.096  24.322  1.00  0.00    -0.063 C 
HETATM    7  C6  UNL     1      23.981   2.208  23.628  1.00  0.00    -0.022 C 
HETATM    8  C7  UNL     1      24.877   2.944  22.682  1.00  0.00     0.034 C 
HETATM    9  C8  UNL     1      25.059   2.293  21.404  1.00  0.00     0.025 C 
HETATM   10  C9  UNL     1      26.433   1.788  21.304  1.00  0.00     0.023 C 
HETATM   11  C10 UNL     1      27.497   2.324  20.439  1.00  0.00     0.009 C 
HETATM   12  C11 UNL     1      27.642   1.354  19.227  1.00  0.00     0.020 C 
HETATM   13  C12 UNL     1      26.225   0.976  19.266  1.00  0.00     0.043 C 
HETATM   14  C13 UNL     1      25.538   2.336  19.054  1.00  0.00     0.052 C 
HETATM   15  C14 UNL     1      24.501   2.668  20.096  1.00  0.00     0.112 C 
HETATM   16 CL1  UNL     1      24.358   4.455  20.077  1.00  0.00    -0.112 Cl
HETATM   17  C15 UNL     1      23.231   1.978  19.670  1.00  0.00     0.283 C 
HETATM   18  F1  UNL     1      22.529   1.495  20.796  1.00  0.00    -0.200 F 
HETATM   19  F2  UNL     1      22.370   3.041  19.290  1.00  0.00    -0.200 F 
HETATM   20  C16 UNL     1      23.190   1.063  18.548  1.00  0.00     0.055 C 
HETATM   21  C17 UNL     1      24.254   0.150  18.164  1.00  0.00     0.040 C 
HETATM   22  C18 UNL     1      25.563   0.033  18.417  1.00  0.00     0.105 C 
HETATM   23  F3  UNL     1      26.227  -0.999  17.841  1.00  0.00    -0.210 F 
HETATM   24  C19 UNL     1      26.157   0.450  20.639  1.00  0.00     0.147 C 
HETATM   25  O1  UNL     1      26.882  -0.381  21.301  1.00  0.00    -0.356 OA
HETATM   26  C20 UNL     1      26.096  -0.892  22.377  1.00  0.00     0.132 C 
HETATM   27  C21 UNL     1      26.240  -0.315  23.699  1.00  0.00     0.011 C 
HETATM   28  C22 UNL     1      25.090   0.078  24.531  1.00  0.00    -0.001 C 
HETATM   29  C23 UNL     1      25.791   0.252  25.920  1.00  0.00     0.024 C 
HETATM   30  C24 UNL     1      24.314  -1.266  24.620  1.00  0.00     0.023 C 
HETATM   31  C25 UNL     1      23.734  -1.320  25.991  1.00  0.00     0.073 C 
HETATM   32  C26 UNL     1      22.633  -0.305  25.929  1.00  0.00     0.265 C 
ENDROOT
BRANCH  32  33
HETATM   33  O2  UNL     1      21.483  -1.065  25.566  1.00  0.00    -0.362 OA
ATOM     34  H2  UNL     1      21.815  -1.954  25.597  1.00  0.00     0.212 HD
ENDBRANCH  32  33
TORSDOF 1
ENDMDL
