MODEL 1
REMARK VINA RESULT: -9.735577313      0.000      0.000
REMARK  7 active torsions:
REMARK  status: ('A' for Active; 'I' for Inactive)
REMARK    1  A    between atoms: N1_1  and  C1_4 
REMARK    2  A    between atoms: C1_4  and  C2_5 
REMARK    3  A    between atoms: C1_4  and  N9_25 
REMARK    4  A    between atoms: C2_5  and  N2_6 
REMARK    5  A    between atoms: C4_12  and  N5_13 
REMARK    6  A    between atoms: C5_18  and  N7_19 
REMARK    7  A    between atoms: N9_25  and  N10_27 
ROOT
HETATM    1  N2  UNL     1      24.827   4.225  25.997  1.00  0.00    -0.252 N 
HETATM    2  N3  UNL     1      25.149   4.750  27.162  1.00  0.00    -0.238 N 
ATOM      3  H3  UNL     1      26.077   5.105  27.395  1.00  0.00     0.208 HD
HETATM    4  N4  UNL     1      24.123   4.760  27.989  1.00  0.00    -0.279 N 
ATOM      5  H4  UNL     1      24.133   5.118  28.944  1.00  0.00     0.189 HD
HETATM    6  C3  UNL     1      23.060   4.221  27.365  1.00  0.00     0.140 A 
HETATM    7  C4  UNL     1      21.756   3.985  27.744  1.00  0.00     0.147 A 
HETATM    8  N6  UNL     1      20.950   3.413  26.830  1.00  0.00    -0.175 N 
ATOM      9  H6  UNL     1      19.977   3.220  27.066  1.00  0.00     0.186 HD
HETATM   10  C5  UNL     1      21.420   3.092  25.598  1.00  0.00     0.679 A 
HETATM   11  N8  UNL     1      22.690   3.320  25.223  1.00  0.00    -0.173 N 
ATOM     12  H8  UNL     1      23.008   3.065  24.288  1.00  0.00     0.186 HD
HETATM   13  C6  UNL     1      23.528   3.884  26.091  1.00  0.00     0.171 A 
ENDROOT
BRANCH   1  14
HETATM   14  C2  UNL     1      25.682   4.035  24.817  1.00  0.00     0.229 C 
BRANCH  14  15
HETATM   15  C1  UNL     1      26.276   5.336  24.443  1.00  0.00     0.109 C 
BRANCH  15  16
HETATM   16  N1  UNL     1      27.461   5.622  24.852  1.00  0.00    -0.386 N 
ATOM     17  H12 UNL     1      27.583   6.323  25.582  1.00  0.00     0.157 HD
ATOM     18  H11 UNL     1      28.258   5.140  24.436  1.00  0.00     0.157 HD
ENDBRANCH  15  16
BRANCH  15  19
HETATM   19  N9  UNL     1      25.577   6.262  23.655  1.00  0.00    -0.288 N 
ATOM     20  H9  UNL     1      25.010   5.894  22.891  1.00  0.00     0.188 HD
BRANCH  19  21
HETATM   21  N10 UNL     1      25.596   7.631  23.830  1.00  0.00    -0.307 N 
HETATM   22  C7  UNL     1      24.548   8.382  23.804  1.00  0.00     0.004 C 
HETATM   23  C8  UNL     1      23.227   7.766  23.576  1.00  0.00     0.054 C 
HETATM   24  C12 UNL     1      24.740   9.836  24.009  1.00  0.00     0.054 C 
HETATM   25  C9  UNL     1      22.178   8.755  23.135  1.00  0.00     0.006 C 
HETATM   26  C10 UNL     1      22.883   9.852  22.358  1.00  0.00     0.001 C 
HETATM   27  C11 UNL     1      23.669  10.662  23.372  1.00  0.00     0.006 C 
ATOM     28  H10 UNL     1      26.498   8.079  23.990  1.00  0.00     0.186 HD
ENDBRANCH  19  21
ENDBRANCH  15  19
ENDBRANCH  14  15
ENDBRANCH   1  14
BRANCH   7  29
HETATM   29  N5  UNL     1      21.322   4.295  28.918  1.00  0.00    -0.383 N 
ATOM     30  H52 UNL     1      21.768   3.931  29.760  1.00  0.00     0.157 HD
ATOM     31  H51 UNL     1      20.521   4.912  29.050  1.00  0.00     0.157 HD
ENDBRANCH   7  29
BRANCH  10  32
HETATM   32  N7  UNL     1      20.598   2.547  24.768  1.00  0.00    -0.234 N 
ATOM     33  H72 UNL     1      20.396   1.549  24.839  1.00  0.00     0.174 HD
ATOM     34  H71 UNL     1      20.174   3.145  24.059  1.00  0.00     0.174 HD
ENDBRANCH  10  32
TORSDOF 7
ENDMDL
MODEL 2
REMARK VINA RESULT: -9.507710456      1.072      1.542
REMARK  7 active torsions:
REMARK  status: ('A' for Active; 'I' for Inactive)
REMARK    1  A    between atoms: N1_1  and  C1_4 
REMARK    2  A    between atoms: C1_4  and  C2_5 
REMARK    3  A    between atoms: C1_4  and  N9_25 
REMARK    4  A    between atoms: C2_5  and  N2_6 
REMARK    5  A    between atoms: C4_12  and  N5_13 
REMARK    6  A    between atoms: C5_18  and  N7_19 
REMARK    7  A    between atoms: N9_25  and  N10_27 
ROOT
HETATM    1  N2  UNL     1      24.224   4.125  26.424  1.00  0.00    -0.252 N 
HETATM    2  N3  UNL     1      24.364   4.715  27.595  1.00  0.00    -0.238 N 
ATOM      3  H3  UNL     1      25.228   5.151  27.918  1.00  0.00     0.208 HD
HETATM    4  N4  UNL     1      23.248   4.671  28.295  1.00  0.00    -0.279 N 
ATOM      5  H4  UNL     1      23.117   5.061  29.228  1.00  0.00     0.189 HD
HETATM    6  C3  UNL     1      22.311   4.027  27.576  1.00  0.00     0.140 A 
HETATM    7  C4  UNL     1      20.994   3.700  27.810  1.00  0.00     0.147 A 
HETATM    8  N6  UNL     1      20.348   3.034  26.835  1.00  0.00    -0.175 N 
ATOM      9  H6  UNL     1      19.371   2.771  26.964  1.00  0.00     0.186 HD
HETATM   10  C5  UNL     1      20.985   2.708  25.681  1.00  0.00     0.679 A 
HETATM   11  N8  UNL     1      22.270   3.025  25.447  1.00  0.00    -0.173 N 
ATOM     12  H8  UNL     1      22.716   2.764  24.568  1.00  0.00     0.186 HD
HETATM   13  C6  UNL     1      22.953   3.685  26.381  1.00  0.00     0.171 A 
ENDROOT
BRANCH   1  14
HETATM   14  C2  UNL     1      25.226   3.963  25.361  1.00  0.00     0.229 C 
BRANCH  14  15
HETATM   15  C1  UNL     1      25.006   5.005  24.336  1.00  0.00     0.109 C 
BRANCH  15  16
HETATM   16  N1  UNL     1      25.279   4.740  23.108  1.00  0.00    -0.386 N 
ATOM     17  H12 UNL     1      25.791   3.887  22.881  1.00  0.00     0.157 HD
ATOM     18  H11 UNL     1      24.978   5.390  22.382  1.00  0.00     0.157 HD
ENDBRANCH  15  16
BRANCH  15  19
HETATM   19  N9  UNL     1      24.507   6.272  24.672  1.00  0.00    -0.288 N 
ATOM     20  H9  UNL     1      24.816   6.679  25.555  1.00  0.00     0.188 HD
BRANCH  19  21
HETATM   21  N10 UNL     1      23.630   7.012  23.904  1.00  0.00    -0.307 N 
HETATM   22  C7  UNL     1      23.873   8.200  23.465  1.00  0.00     0.004 C 
HETATM   23  C8  UNL     1      25.165   8.836  23.785  1.00  0.00     0.054 C 
HETATM   24  C12 UNL     1      22.824   8.859  22.653  1.00  0.00     0.054 C 
HETATM   25  C9  UNL     1      25.151  10.333  23.606  1.00  0.00     0.006 C 
HETATM   26  C10 UNL     1      23.738  10.813  23.886  1.00  0.00     0.001 C 
HETATM   27  C11 UNL     1      22.887  10.351  22.718  1.00  0.00     0.006 C 
ATOM     28  H10 UNL     1      22.731   6.592  23.668  1.00  0.00     0.186 HD
ENDBRANCH  19  21
ENDBRANCH  15  19
ENDBRANCH  14  15
ENDBRANCH   1  14
BRANCH   7  29
HETATM   29  N5  UNL     1      20.399   4.014  28.911  1.00  0.00    -0.383 N 
ATOM     30  H52 UNL     1      20.900   4.481  29.667  1.00  0.00     0.157 HD
ATOM     31  H51 UNL     1      19.413   3.810  29.067  1.00  0.00     0.157 HD
ENDBRANCH   7  29
BRANCH  10  32
HETATM   32  N7  UNL     1      20.312   2.070  24.785  1.00  0.00    -0.234 N 
ATOM     33  H72 UNL     1      19.722   1.286  25.061  1.00  0.00     0.174 HD
ATOM     34  H71 UNL     1      20.398   2.381  23.818  1.00  0.00     0.174 HD
ENDBRANCH  10  32
TORSDOF 7
ENDMDL
MODEL 3
REMARK VINA RESULT: -8.190155098      2.538      4.916
REMARK  7 active torsions:
REMARK  status: ('A' for Active; 'I' for Inactive)
REMARK    1  A    between atoms: N1_1  and  C1_4 
REMARK    2  A    between atoms: C1_4  and  C2_5 
REMARK    3  A    between atoms: C1_4  and  N9_25 
REMARK    4  A    between atoms: C2_5  and  N2_6 
REMARK    5  A    between atoms: C4_12  and  N5_13 
REMARK    6  A    between atoms: C5_18  and  N7_19 
REMARK    7  A    between atoms: N9_25  and  N10_27 
ROOT
HETATM    1  N2  UNL     1      24.755   7.613  24.285  1.00  0.00    -0.252 N 
HETATM    2  N3  UNL     1      25.837   7.844  23.568  1.00  0.00    -0.238 N 
ATOM      3  H3  UNL     1      26.005   8.702  23.042  1.00  0.00     0.208 HD
HETATM    4  N4  UNL     1      26.674   6.827  23.614  1.00  0.00    -0.279 N 
ATOM      5  H4  UNL     1      27.575   6.778  23.138  1.00  0.00     0.189 HD
HETATM    6  C3  UNL     1      26.145   5.865  24.392  1.00  0.00     0.140 A 
HETATM    7  C4  UNL     1      26.574   4.616  24.782  1.00  0.00     0.147 A 
HETATM    8  N6  UNL     1      25.758   3.915  25.589  1.00  0.00    -0.175 N 
ATOM      9  H6  UNL     1      26.035   2.985  25.904  1.00  0.00     0.186 HD
HETATM   10  C5  UNL     1      24.568   4.433  25.989  1.00  0.00     0.679 A 
HETATM   11  N8  UNL     1      24.144   5.651  25.612  1.00  0.00    -0.173 N 
ATOM     12  H8  UNL     1      23.244   6.009  25.933  1.00  0.00     0.186 HD
HETATM   13  C6  UNL     1      24.917   6.386  24.813  1.00  0.00     0.171 A 
ENDROOT
BRANCH   1  14
HETATM   14  C2  UNL     1      23.595   8.491  24.489  1.00  0.00     0.229 C 
BRANCH  14  15
HETATM   15  C1  UNL     1      23.322   9.221  23.233  1.00  0.00     0.109 C 
BRANCH  15  16
HETATM   16  N1  UNL     1      22.695   8.620  22.285  1.00  0.00    -0.386 N 
ATOM     17  H12 UNL     1      22.573   7.608  22.328  1.00  0.00     0.157 HD
ATOM     18  H11 UNL     1      22.332   9.169  21.505  1.00  0.00     0.157 HD
ENDBRANCH  15  16
BRANCH  15  19
HETATM   19  N9  UNL     1      23.730  10.552  23.054  1.00  0.00    -0.288 N 
ATOM     20  H9  UNL     1      23.637  10.949  22.119  1.00  0.00     0.188 HD
BRANCH  19  21
HETATM   21  N10 UNL     1      24.246  11.366  24.042  1.00  0.00    -0.307 N 
HETATM   22  C7  UNL     1      24.003  12.628  24.145  1.00  0.00     0.004 C 
HETATM   23  C8  UNL     1      23.116  13.273  23.158  1.00  0.00     0.054 C 
HETATM   24  C12 UNL     1      24.638  13.360  25.264  1.00  0.00     0.054 C 
HETATM   25  C9  UNL     1      23.263  14.773  23.118  1.00  0.00     0.006 C 
HETATM   26  C10 UNL     1      24.696  15.101  23.493  1.00  0.00     0.001 C 
HETATM   27  C11 UNL     1      24.830  14.814  24.977  1.00  0.00     0.006 C 
ATOM     28  H10 UNL     1      24.861  10.942  24.736  1.00  0.00     0.186 HD
ENDBRANCH  19  21
ENDBRANCH  15  19
ENDBRANCH  14  15
ENDBRANCH   1  14
BRANCH   7  29
HETATM   29  N5  UNL     1      27.707   4.134  24.394  1.00  0.00    -0.383 N 
ATOM     30  H52 UNL     1      27.792   3.626  23.515  1.00  0.00     0.157 HD
ATOM     31  H51 UNL     1      28.556   4.243  24.949  1.00  0.00     0.157 HD
ENDBRANCH   7  29
BRANCH  10  32
HETATM   32  N7  UNL     1      23.831   3.712  26.763  1.00  0.00    -0.234 N 
ATOM     33  H72 UNL     1      22.944   3.347  26.417  1.00  0.00     0.174 HD
ATOM     34  H71 UNL     1      24.170   3.532  27.707  1.00  0.00     0.174 HD
ENDBRANCH  10  32
TORSDOF 7
ENDMDL
MODEL 4
REMARK VINA RESULT: -8.081938654      2.397      4.789
REMARK  7 active torsions:
REMARK  status: ('A' for Active; 'I' for Inactive)
REMARK    1  A    between atoms: N1_1  and  C1_4 
REMARK    2  A    between atoms: C1_4  and  C2_5 
REMARK    3  A    between atoms: C1_4  and  N9_25 
REMARK    4  A    between atoms: C2_5  and  N2_6 
REMARK    5  A    between atoms: C4_12  and  N5_13 
REMARK    6  A    between atoms: C5_18  and  N7_19 
REMARK    7  A    between atoms: N9_25  and  N10_27 
ROOT
HETATM    1  N2  UNL     1      24.790   7.538  24.427  1.00  0.00    -0.252 N 
HETATM    2  N3  UNL     1      25.864   7.744  23.690  1.00  0.00    -0.238 N 
ATOM      3  H3  UNL     1      26.086   8.628  23.233  1.00  0.00     0.208 HD
HETATM    4  N4  UNL     1      26.615   6.663  23.618  1.00  0.00    -0.279 N 
ATOM      5  H4  UNL     1      27.493   6.583  23.105  1.00  0.00     0.189 HD
HETATM    6  C3  UNL     1      26.033   5.682  24.332  1.00  0.00     0.140 A 
HETATM    7  C4  UNL     1      26.370   4.374  24.598  1.00  0.00     0.147 A 
HETATM    8  N6  UNL     1      25.524   3.672  25.374  1.00  0.00    -0.175 N 
ATOM      9  H6  UNL     1      25.733   2.699  25.598  1.00  0.00     0.186 HD
HETATM   10  C5  UNL     1      24.395   4.247  25.863  1.00  0.00     0.679 A 
HETATM   11  N8  UNL     1      24.062   5.523  25.607  1.00  0.00    -0.173 N 
ATOM     12  H8  UNL     1      23.205   5.922  25.991  1.00  0.00     0.186 HD
HETATM   13  C6  UNL     1      24.866   6.260  24.843  1.00  0.00     0.171 A 
ENDROOT
BRANCH   1  14
HETATM   14  C2  UNL     1      23.714   8.485  24.750  1.00  0.00     0.229 C 
BRANCH  14  15
HETATM   15  C1  UNL     1      23.121   8.981  23.490  1.00  0.00     0.109 C 
BRANCH  15  16
HETATM   16  N1  UNL     1      22.077   8.398  23.019  1.00  0.00    -0.386 N 
ATOM     17  H12 UNL     1      22.184   7.545  22.469  1.00  0.00     0.157 HD
ATOM     18  H11 UNL     1      21.158   8.802  23.204  1.00  0.00     0.157 HD
ENDBRANCH  15  16
BRANCH  15  19
HETATM   19  N9  UNL     1      23.672  10.072  22.799  1.00  0.00    -0.288 N 
ATOM     20  H9  UNL     1      24.494   9.895  22.222  1.00  0.00     0.188 HD
BRANCH  19  21
HETATM   21  N10 UNL     1      23.189  11.364  22.838  1.00  0.00    -0.307 N 
HETATM   22  C7  UNL     1      23.860  12.378  23.267  1.00  0.00     0.004 C 
HETATM   23  C8  UNL     1      25.238  12.177  23.752  1.00  0.00     0.054 C 
HETATM   24  C12 UNL     1      23.195  13.701  23.243  1.00  0.00     0.054 C 
HETATM   25  C9  UNL     1      25.738  13.310  24.612  1.00  0.00     0.006 C 
HETATM   26  C10 UNL     1      24.537  13.906  25.324  1.00  0.00     0.001 C 
HETATM   27  C11 UNL     1      23.734  14.645  24.270  1.00  0.00     0.006 C 
ATOM     28  H10 UNL     1      22.238  11.529  22.506  1.00  0.00     0.186 HD
ENDBRANCH  19  21
ENDBRANCH  15  19
ENDBRANCH  14  15
ENDBRANCH   1  14
BRANCH   7  29
HETATM   29  N5  UNL     1      27.445   3.839  24.127  1.00  0.00    -0.383 N 
ATOM     30  H52 UNL     1      27.559   3.672  23.128  1.00  0.00     0.157 HD
ATOM     31  H51 UNL     1      28.219   3.564  24.732  1.00  0.00     0.157 HD
ENDBRANCH   7  29
BRANCH  10  32
HETATM   32  N7  UNL     1      23.625   3.522  26.601  1.00  0.00    -0.234 N 
ATOM     33  H72 UNL     1      23.717   2.507  26.581  1.00  0.00     0.174 HD
ATOM     34  H71 UNL     1      22.942   4.002  27.187  1.00  0.00     0.174 HD
ENDBRANCH  10  32
TORSDOF 7
ENDMDL
MODEL 5
REMARK VINA RESULT: -7.487353844      1.175      2.540
REMARK  7 active torsions:
REMARK  status: ('A' for Active; 'I' for Inactive)
REMARK    1  A    between atoms: N1_1  and  C1_4 
REMARK    2  A    between atoms: C1_4  and  C2_5 
REMARK    3  A    between atoms: C1_4  and  N9_25 
REMARK    4  A    between atoms: C2_5  and  N2_6 
REMARK    5  A    between atoms: C4_12  and  N5_13 
REMARK    6  A    between atoms: C5_18  and  N7_19 
REMARK    7  A    between atoms: N9_25  and  N10_27 
ROOT
HETATM    1  N2  UNL     1      25.906   4.351  24.446  1.00  0.00    -0.252 N 
HETATM    2  N3  UNL     1      25.144   3.887  23.476  1.00  0.00    -0.238 N 
ATOM      3  H3  UNL     1      25.455   3.757  22.514  1.00  0.00     0.208 HD
HETATM    4  N4  UNL     1      23.928   3.612  23.906  1.00  0.00    -0.279 N 
ATOM      5  H4  UNL     1      23.167   3.242  23.337  1.00  0.00     0.189 HD
HETATM    6  C3  UNL     1      23.858   3.899  25.218  1.00  0.00     0.140 A 
HETATM    7  C4  UNL     1      22.854   3.809  26.157  1.00  0.00     0.147 A 
HETATM    8  N6  UNL     1      23.154   4.196  27.410  1.00  0.00    -0.175 N 
ATOM      9  H6  UNL     1      22.442   4.147  28.138  1.00  0.00     0.186 HD
HETATM   10  C5  UNL     1      24.396   4.652  27.715  1.00  0.00     0.679 A 
HETATM   11  N8  UNL     1      25.380   4.742  26.803  1.00  0.00    -0.173 N 
ATOM     12  H8  UNL     1      26.301   5.089  27.067  1.00  0.00     0.186 HD
HETATM   13  C6  UNL     1      25.133   4.370  25.548  1.00  0.00     0.171 A 
ENDROOT
BRANCH   1  14
HETATM   14  C2  UNL     1      27.313   4.769  24.376  1.00  0.00     0.229 C 
BRANCH  14  15
HETATM   15  C1  UNL     1      27.367   6.239  24.226  1.00  0.00     0.109 C 
BRANCH  15  16
HETATM   16  N1  UNL     1      28.328   6.888  24.782  1.00  0.00    -0.386 N 
ATOM     17  H12 UNL     1      29.196   7.037  24.268  1.00  0.00     0.157 HD
ATOM     18  H11 UNL     1      28.202   7.242  25.731  1.00  0.00     0.157 HD
ENDBRANCH  15  16
BRANCH  15  19
HETATM   19  N9  UNL     1      26.398   6.938  23.492  1.00  0.00    -0.288 N 
ATOM     20  H9  UNL     1      25.899   6.424  22.765  1.00  0.00     0.188 HD
BRANCH  19  21
HETATM   21  N10 UNL     1      26.065   8.265  23.673  1.00  0.00    -0.307 N 
HETATM   22  C7  UNL     1      24.857   8.712  23.720  1.00  0.00     0.004 C 
HETATM   23  C8  UNL     1      23.733   7.767  23.575  1.00  0.00     0.054 C 
HETATM   24  C12 UNL     1      24.670  10.168  23.921  1.00  0.00     0.054 C 
HETATM   25  C9  UNL     1      22.435   8.439  23.209  1.00  0.00     0.006 C 
HETATM   26  C10 UNL     1      22.773   9.674  22.394  1.00  0.00     0.001 C 
HETATM   27  C11 UNL     1      23.381  10.675  23.360  1.00  0.00     0.006 C 
ATOM     28  H10 UNL     1      26.825   8.937  23.778  1.00  0.00     0.186 HD
ENDBRANCH  19  21
ENDBRANCH  15  19
ENDBRANCH  14  15
ENDBRANCH   1  14
BRANCH   7  29
HETATM   29  N5  UNL     1      21.677   3.374  25.855  1.00  0.00    -0.383 N 
ATOM     30  H52 UNL     1      21.235   3.618  24.970  1.00  0.00     0.157 HD
ATOM     31  H51 UNL     1      21.147   2.774  26.487  1.00  0.00     0.157 HD
ENDBRANCH   7  29
BRANCH  10  32
HETATM   32  N7  UNL     1      24.622   5.008  28.933  1.00  0.00    -0.234 N 
ATOM     33  H72 UNL     1      24.560   4.317  29.680  1.00  0.00     0.174 HD
ATOM     34  H71 UNL     1      24.858   5.985  29.105  1.00  0.00     0.174 HD
ENDBRANCH  10  32
TORSDOF 7
ENDMDL
