MODEL 1
REMARK VINA RESULT: -9.147818135      0.000      0.000
REMARK  19 active torsions:
REMARK  status: ('A' for Active; 'I' for Inactive)
REMARK    1  A    between atoms: O1_2  and  C2_3 
REMARK    2  A    between atoms: C2_3  and  C3_5 
REMARK    3  A    between atoms: C3_5  and  C4_6 
REMARK    4  A    between atoms: C4_6  and  C5_7 
REMARK    5  A    between atoms: C6_8  and  C7_9 
REMARK    6  A    between atoms: C8_11  and  C9_12 
REMARK    7  A    between atoms: C9_12  and  C10_13 
REMARK    8  A    between atoms: C9_12  and  C16_19 
REMARK    9  A    between atoms: C16_19  and  C17_20 
REMARK   10  A    between atoms: C16_19  and  C25_29 
REMARK   11  A    between atoms: C17_20  and  C18_21 
REMARK   12  A    between atoms: C25_29  and  O5_30 
REMARK   13  A    between atoms: C25_29  and  N1_32 
REMARK   14  A    between atoms: C28_37  and  C29_38 
REMARK       I    between atoms: C29_38  and  N2_40 
REMARK   15  A    between atoms: N2_40  and  C30_42 
REMARK   16  A    between atoms: C30_42  and  C31_43 
REMARK   17  A    between atoms: C31_43  and  N3_44 
REMARK   18  A    between atoms: C31_43  and  C32_48 
REMARK   19  A    between atoms: C32_48  and  S1_52 
ROOT
HETATM    1  C16 UNL     1      -8.691  17.424  25.749  1.00  0.00     0.070 C 
ENDROOT
BRANCH   1   2
HETATM    2  C9  UNL     1      -7.399  17.543  26.601  1.00  0.00     0.033 C 
BRANCH   2   3
HETATM    3  C8  UNL     1      -6.960  16.228  27.050  1.00  0.00     0.160 A 
HETATM    4  C7  UNL     1      -7.625  15.623  28.247  1.00  0.00     0.174 A 
HETATM    5  O3  UNL     1      -6.229  15.812  28.098  1.00  0.00    -0.371 OA
BRANCH   4   6
HETATM    6  C6  UNL     1      -8.023  16.490  29.435  1.00  0.00     0.003 C 
HETATM    7  C5  UNL     1      -8.480  15.913  30.539  1.00  0.00    -0.028 C 
BRANCH   7   8
HETATM    8  C4  UNL     1      -8.892  16.666  31.742  1.00  0.00     0.037 C 
BRANCH   8   9
HETATM    9  C3  UNL     1      -9.304  15.729  32.865  1.00  0.00     0.115 C 
BRANCH   9  10
HETATM   10  C2  UNL     1     -10.731  15.957  33.238  1.00  0.00     0.258 C 
HETATM   11  O2  UNL     1     -11.586  15.871  32.332  1.00  0.00    -0.265 OA
BRANCH  10  12
HETATM   12  O1  UNL     1     -11.119  16.255  34.529  1.00  0.00    -0.326 OA
HETATM   13  C1  UNL     1     -11.749  15.277  35.330  1.00  0.00     0.213 C 
ENDBRANCH  10  12
ENDBRANCH   9  10
ENDBRANCH   8   9
ENDBRANCH   7   8
ENDBRANCH   4   6
ENDBRANCH   2   3
BRANCH   2  14
HETATM   14  C10 UNL     1      -6.407  18.163  25.613  1.00  0.00    -0.007 C 
HETATM   15  C11 UNL     1      -5.163  17.211  25.574  1.00  0.00     0.005 C 
HETATM   16  C12 UNL     1      -4.120  17.867  24.735  1.00  0.00     0.000 C 
HETATM   17  C13 UNL     1      -4.576  19.073  23.973  1.00  0.00     0.000 C 
HETATM   18  C14 UNL     1      -5.144  20.131  24.895  1.00  0.00     0.000 C 
HETATM   19  C15 UNL     1      -5.822  19.449  26.088  1.00  0.00     0.005 C 
ENDBRANCH   2  14
ENDBRANCH   1   2
BRANCH   1  20
HETATM   20  C17 UNL     1      -8.536  16.369  24.713  1.00  0.00     0.045 C 
BRANCH  20  21
HETATM   21  C18 UNL     1      -9.018  16.774  23.331  1.00  0.00     0.126 C 
HETATM   22  O4  UNL     1      -8.002  17.563  22.708  1.00  0.00    -0.380 OA
HETATM   23  C19 UNL     1      -7.824  17.180  21.390  1.00  0.00     0.122 C 
HETATM   24  C20 UNL     1      -7.269  15.764  21.270  1.00  0.00     0.032 C 
HETATM   25  C24 UNL     1      -9.119  17.219  20.598  1.00  0.00     0.032 C 
HETATM   26  C21 UNL     1      -8.141  14.808  22.080  1.00  0.00     0.010 C 
HETATM   27  C22 UNL     1      -9.364  15.591  22.485  1.00  0.00     0.015 C 
HETATM   28  C23 UNL     1     -10.002  16.126  21.197  1.00  0.00     0.010 C 
ENDBRANCH  20  21
ENDBRANCH   1  20
BRANCH   1  29
HETATM   29  C25 UNL     1      -9.931  17.482  26.507  1.00  0.00     0.127 C 
BRANCH  29  30
HETATM   30  O5  UNL     1     -10.297  18.745  26.814  1.00  0.00    -0.349 OA
ATOM     31  H5  UNL     1     -10.768  18.802  27.637  1.00  0.00     0.219 HD
ENDBRANCH  29  30
BRANCH  29  32
HETATM   32  N1  UNL     1     -10.849  16.535  26.998  1.00  0.00    -0.261 N 
HETATM   33  C26 UNL     1     -11.556  16.758  28.279  1.00  0.00     0.369 C 
HETATM   34  O6  UNL     1     -11.133  17.368  29.285  1.00  0.00    -0.238 OA
HETATM   35  O7  UNL     1     -12.814  16.136  28.130  1.00  0.00    -0.301 OA
HETATM   36  C27 UNL     1     -12.921  15.618  26.801  1.00  0.00     0.216 C 
HETATM   37  C28 UNL     1     -11.407  15.278  26.610  1.00  0.00     0.213 C 
BRANCH  37  38
HETATM   38  C29 UNL     1     -11.235  14.178  27.629  1.00  0.00     0.243 C 
HETATM   39  O8  UNL     1     -10.109  13.973  28.072  1.00  0.00    -0.271 OA
HETATM   40  N2  UNL     1     -12.368  13.454  28.011  1.00  0.00    -0.357 N 
ATOM     41  H2  UNL     1     -13.240  13.739  27.567  1.00  0.00     0.162 HD
BRANCH  40  42
HETATM   42  C30 UNL     1     -12.477  12.374  28.933  1.00  0.00     0.162 C 
BRANCH  42  43
HETATM   43  C31 UNL     1     -12.634  12.749  30.372  1.00  0.00     0.257 C 
BRANCH  43  44
HETATM   44  N3  UNL     1     -11.503  13.374  30.955  1.00  0.00    -0.068 N 
ATOM     45  H33 UNL     1     -11.644  13.493  31.958  1.00  0.00     0.275 HD
ATOM     46  H32 UNL     1     -10.710  12.733  30.962  1.00  0.00     0.275 HD
ATOM     47  H31 UNL     1     -11.235  14.262  30.529  1.00  0.00     0.275 HD
ENDBRANCH  43  44
BRANCH  43  48
HETATM   48  C32 UNL     1     -13.877  13.576  30.537  1.00  0.00     0.072 C 
HETATM   49  N4  UNL     1     -13.776  14.839  30.650  1.00  0.00    -0.395 N 
ATOM     50  H42 UNL     1     -12.850  15.264  30.626  1.00  0.00     0.156 HD
ATOM     51  H41 UNL     1     -14.620  15.400  30.761  1.00  0.00     0.156 HD
BRANCH  48  52
HETATM   52  S1  UNL     1     -15.495  12.832  30.577  1.00  0.00    -0.119 SA
HETATM   53  C33 UNL     1     -15.597  11.619  31.917  1.00  0.00     0.097 C 
ENDBRANCH  48  52
ENDBRANCH  43  48
ENDBRANCH  42  43
ENDBRANCH  40  42
ENDBRANCH  37  38
ENDBRANCH  29  32
ENDBRANCH   1  29
TORSDOF 19
ENDMDL
MODEL 2
REMARK VINA RESULT: -9.135598720      3.092      9.642
REMARK  19 active torsions:
REMARK  status: ('A' for Active; 'I' for Inactive)
REMARK    1  A    between atoms: O1_2  and  C2_3 
REMARK    2  A    between atoms: C2_3  and  C3_5 
REMARK    3  A    between atoms: C3_5  and  C4_6 
REMARK    4  A    between atoms: C4_6  and  C5_7 
REMARK    5  A    between atoms: C6_8  and  C7_9 
REMARK    6  A    between atoms: C8_11  and  C9_12 
REMARK    7  A    between atoms: C9_12  and  C10_13 
REMARK    8  A    between atoms: C9_12  and  C16_19 
REMARK    9  A    between atoms: C16_19  and  C17_20 
REMARK   10  A    between atoms: C16_19  and  C25_29 
REMARK   11  A    between atoms: C17_20  and  C18_21 
REMARK   12  A    between atoms: C25_29  and  O5_30 
REMARK   13  A    between atoms: C25_29  and  N1_32 
REMARK   14  A    between atoms: C28_37  and  C29_38 
REMARK       I    between atoms: C29_38  and  N2_40 
REMARK   15  A    between atoms: N2_40  and  C30_42 
REMARK   16  A    between atoms: C30_42  and  C31_43 
REMARK   17  A    between atoms: C31_43  and  N3_44 
REMARK   18  A    between atoms: C31_43  and  C32_48 
REMARK   19  A    between atoms: C32_48  and  S1_52 
ROOT
HETATM    1  C16 UNL     1     -10.735  16.256  28.972  1.00  0.00     0.070 C 
ENDROOT
BRANCH   1   2
HETATM    2  C9  UNL     1     -11.489  15.194  28.128  1.00  0.00     0.033 C 
BRANCH   2   3
HETATM    3  C8  UNL     1     -10.575  14.150  27.685  1.00  0.00     0.160 A 
HETATM    4  C7  UNL     1      -9.723  14.408  26.481  1.00  0.00     0.174 A 
HETATM    5  O3  UNL     1     -10.587  13.298  26.645  1.00  0.00    -0.371 OA
BRANCH   4   6
HETATM    6  C6  UNL     1     -10.279  15.176  25.287  1.00  0.00     0.003 C 
HETATM    7  C5  UNL     1      -9.538  15.308  24.195  1.00  0.00    -0.028 C 
BRANCH   7   8
HETATM    8  C4  UNL     1      -9.987  16.033  22.988  1.00  0.00     0.037 C 
BRANCH   8   9
HETATM    9  C3  UNL     1      -8.961  15.932  21.871  1.00  0.00     0.115 C 
BRANCH   9  10
HETATM   10  C2  UNL     1      -8.451  17.287  21.507  1.00  0.00     0.258 C 
HETATM   11  O2  UNL     1      -7.954  17.982  22.417  1.00  0.00    -0.265 OA
BRANCH  10  12
HETATM   12  O1  UNL     1      -8.515  17.780  20.218  1.00  0.00    -0.326 OA
HETATM   13  C1  UNL     1      -7.362  17.803  19.403  1.00  0.00     0.213 C 
ENDBRANCH  10  12
ENDBRANCH   9  10
ENDBRANCH   8   9
ENDBRANCH   7   8
ENDBRANCH   4   6
ENDBRANCH   2   3
BRANCH   2  14
HETATM   14  C10 UNL     1     -12.524  14.657  29.119  1.00  0.00    -0.007 C 
HETATM   15  C11 UNL     1     -12.275  13.114  29.229  1.00  0.00     0.005 C 
HETATM   16  C12 UNL     1     -13.363  12.541  30.073  1.00  0.00     0.000 C 
HETATM   17  C13 UNL     1     -14.224  13.545  30.776  1.00  0.00     0.000 C 
HETATM   18  C14 UNL     1     -14.869  14.505  29.798  1.00  0.00     0.000 C 
HETATM   19  C15 UNL     1     -13.924  14.728  28.613  1.00  0.00     0.005 C 
ENDBRANCH   2  14
ENDBRANCH   1   2
BRANCH   1  20
HETATM   20  C17 UNL     1      -9.901  15.597  30.012  1.00  0.00     0.045 C 
BRANCH  20  21
HETATM   21  C18 UNL     1     -10.049  16.191  31.402  1.00  0.00     0.126 C 
HETATM   22  O4  UNL     1     -11.208  15.624  32.017  1.00  0.00    -0.380 OA
HETATM   23  C19 UNL     1     -10.945  15.278  33.331  1.00  0.00     0.122 C 
HETATM   24  C20 UNL     1      -9.924  14.149  33.437  1.00  0.00     0.032 C 
HETATM   25  C24 UNL     1     -10.403  16.444  34.138  1.00  0.00     0.032 C 
HETATM   26  C21 UNL     1      -8.679  14.514  32.631  1.00  0.00     0.010 C 
HETATM   27  C22 UNL     1      -8.836  15.963  32.245  1.00  0.00     0.015 C 
HETATM   28  C23 UNL     1      -9.031  16.756  33.543  1.00  0.00     0.010 C 
ENDBRANCH  20  21
ENDBRANCH   1  20
BRANCH   1  29
HETATM   29  C25 UNL     1     -10.161  17.352  28.207  1.00  0.00     0.127 C 
BRANCH  29  30
HETATM   30  O5  UNL     1     -11.070  18.299  27.888  1.00  0.00    -0.349 OA
ATOM     31  H5  UNL     1     -11.217  18.367  26.953  1.00  0.00     0.219 HD
ENDBRANCH  29  30
BRANCH  29  32
HETATM   32  N1  UNL     1      -8.880  17.667  27.717  1.00  0.00    -0.261 N 
HETATM   33  C26 UNL     1      -8.714  18.399  26.442  1.00  0.00     0.369 C 
HETATM   34  O6  UNL     1      -9.455  18.349  25.436  1.00  0.00    -0.238 OA
HETATM   35  O7  UNL     1      -7.541  19.167  26.595  1.00  0.00    -0.301 OA
HETATM   36  C27 UNL     1      -7.040  18.989  27.923  1.00  0.00     0.216 C 
HETATM   37  C28 UNL     1      -7.513  17.509  28.104  1.00  0.00     0.213 C 
BRANCH  37  38
HETATM   38  C29 UNL     1      -6.652  16.811  27.080  1.00  0.00     0.243 C 
HETATM   39  O8  UNL     1      -7.052  15.746  26.620  1.00  0.00    -0.271 OA
HETATM   40  N2  UNL     1      -5.446  17.416  26.714  1.00  0.00    -0.357 N 
ATOM     41  H2  UNL     1      -5.245  18.304  27.173  1.00  0.00     0.162 HD
BRANCH  40  42
HETATM   42  C30 UNL     1      -4.459  16.968  25.791  1.00  0.00     0.162 C 
BRANCH  42  43
HETATM   43  C31 UNL     1      -4.703  17.294  24.353  1.00  0.00     0.257 C 
BRANCH  43  44
HETATM   44  N3  UNL     1      -5.827  16.650  23.776  1.00  0.00    -0.068 N 
ATOM     45  H33 UNL     1      -5.599  15.683  23.546  1.00  0.00     0.275 HD
ATOM     46  H32 UNL     1      -6.548  16.499  24.481  1.00  0.00     0.275 HD
ATOM     47  H31 UNL     1      -6.222  17.122  22.962  1.00  0.00     0.275 HD
ENDBRANCH  43  44
BRANCH  43  48
HETATM   48  C32 UNL     1      -4.767  18.786  24.186  1.00  0.00     0.072 C 
HETATM   49  N4  UNL     1      -5.897  19.350  24.048  1.00  0.00    -0.395 N 
ATOM     50  H42 UNL     1      -6.740  18.777  24.053  1.00  0.00     0.156 HD
ATOM     51  H41 UNL     1      -5.940  20.363  23.935  1.00  0.00     0.156 HD
BRANCH  48  52
HETATM   52  S1  UNL     1      -3.294  19.788  24.177  1.00  0.00    -0.119 SA
HETATM   53  C33 UNL     1      -2.185  19.266  22.845  1.00  0.00     0.097 C 
ENDBRANCH  48  52
ENDBRANCH  43  48
ENDBRANCH  42  43
ENDBRANCH  40  42
ENDBRANCH  37  38
ENDBRANCH  29  32
ENDBRANCH   1  29
TORSDOF 19
ENDMDL
MODEL 3
REMARK VINA RESULT: -8.343189691      3.377      9.779
REMARK  19 active torsions:
REMARK  status: ('A' for Active; 'I' for Inactive)
REMARK    1  A    between atoms: O1_2  and  C2_3 
REMARK    2  A    between atoms: C2_3  and  C3_5 
REMARK    3  A    between atoms: C3_5  and  C4_6 
REMARK    4  A    between atoms: C4_6  and  C5_7 
REMARK    5  A    between atoms: C6_8  and  C7_9 
REMARK    6  A    between atoms: C8_11  and  C9_12 
REMARK    7  A    between atoms: C9_12  and  C10_13 
REMARK    8  A    between atoms: C9_12  and  C16_19 
REMARK    9  A    between atoms: C16_19  and  C17_20 
REMARK   10  A    between atoms: C16_19  and  C25_29 
REMARK   11  A    between atoms: C17_20  and  C18_21 
REMARK   12  A    between atoms: C25_29  and  O5_30 
REMARK   13  A    between atoms: C25_29  and  N1_32 
REMARK   14  A    between atoms: C28_37  and  C29_38 
REMARK       I    between atoms: C29_38  and  N2_40 
REMARK   15  A    between atoms: N2_40  and  C30_42 
REMARK   16  A    between atoms: C30_42  and  C31_43 
REMARK   17  A    between atoms: C31_43  and  N3_44 
REMARK   18  A    between atoms: C31_43  and  C32_48 
REMARK   19  A    between atoms: C32_48  and  S1_52 
ROOT
HETATM    1  C16 UNL     1      -9.997  16.420  28.717  1.00  0.00     0.070 C 
ENDROOT
BRANCH   1   2
HETATM    2  C9  UNL     1     -10.906  15.487  27.873  1.00  0.00     0.033 C 
BRANCH   2   3
HETATM    3  C8  UNL     1     -10.149  14.341  27.386  1.00  0.00     0.160 A 
HETATM    4  C7  UNL     1      -9.366  14.488  26.118  1.00  0.00     0.174 A 
HETATM    5  O3  UNL     1     -10.334  13.484  26.366  1.00  0.00    -0.371 OA
BRANCH   4   6
HETATM    6  C6  UNL     1      -9.920  15.301  24.954  1.00  0.00     0.003 C 
HETATM    7  C5  UNL     1      -9.199  15.429  23.847  1.00  0.00    -0.028 C 
BRANCH   7   8
HETATM    8  C4  UNL     1      -9.648  16.195  22.666  1.00  0.00     0.037 C 
BRANCH   8   9
HETATM    9  C3  UNL     1      -8.949  15.719  21.402  1.00  0.00     0.115 C 
BRANCH   9  10
HETATM   10  C2  UNL     1      -8.412  16.881  20.634  1.00  0.00     0.258 C 
HETATM   11  O2  UNL     1      -9.227  17.745  20.249  1.00  0.00    -0.265 OA
BRANCH  10  12
HETATM   12  O1  UNL     1      -7.069  17.018  20.344  1.00  0.00    -0.326 OA
HETATM   13  C1  UNL     1      -6.647  17.874  19.302  1.00  0.00     0.213 C 
ENDBRANCH  10  12
ENDBRANCH   9  10
ENDBRANCH   8   9
ENDBRANCH   7   8
ENDBRANCH   4   6
ENDBRANCH   2   3
BRANCH   2  14
HETATM   14  C10 UNL     1     -11.978  15.068  28.882  1.00  0.00    -0.007 C 
HETATM   15  C11 UNL     1     -11.622  13.610  29.332  1.00  0.00     0.005 C 
HETATM   16  C12 UNL     1     -12.731  13.123  30.201  1.00  0.00     0.000 C 
HETATM   17  C13 UNL     1     -13.724  14.164  30.616  1.00  0.00     0.000 C 
HETATM   18  C14 UNL     1     -14.354  14.841  29.417  1.00  0.00     0.000 C 
HETATM   19  C15 UNL     1     -13.331  14.904  28.278  1.00  0.00     0.005 C 
ENDBRANCH   2  14
ENDBRANCH   1   2
BRANCH   1  20
HETATM   20  C17 UNL     1      -9.382  15.669  29.843  1.00  0.00     0.045 C 
BRANCH  20  21
HETATM   21  C18 UNL     1      -9.600  16.299  31.208  1.00  0.00     0.126 C 
HETATM   22  O4  UNL     1     -10.941  16.029  31.623  1.00  0.00    -0.380 OA
HETATM   23  C19 UNL     1     -10.973  15.648  32.954  1.00  0.00     0.122 C 
HETATM   24  C20 UNL     1     -10.275  14.311  33.187  1.00  0.00     0.032 C 
HETATM   25  C24 UNL     1     -10.305  16.663  33.862  1.00  0.00     0.032 C 
HETATM   26  C21 UNL     1      -8.870  14.362  32.591  1.00  0.00     0.010 C 
HETATM   27  C22 UNL     1      -8.620  15.802  32.222  1.00  0.00     0.015 C 
HETATM   28  C23 UNL     1      -8.823  16.635  33.493  1.00  0.00     0.010 C 
ENDBRANCH  20  21
ENDBRANCH   1  20
BRANCH   1  29
HETATM   29  C25 UNL     1      -9.162  17.325  27.942  1.00  0.00     0.127 C 
BRANCH  29  30
HETATM   30  O5  UNL     1      -9.855  18.361  27.422  1.00  0.00    -0.349 OA
ATOM     31  H5  UNL     1      -9.329  18.905  26.848  1.00  0.00     0.219 HD
ENDBRANCH  29  30
BRANCH  29  32
HETATM   32  N1  UNL     1      -7.797  17.383  27.603  1.00  0.00    -0.261 N 
HETATM   33  C26 UNL     1      -7.095  18.682  27.502  1.00  0.00     0.369 C 
HETATM   34  O6  UNL     1      -7.576  19.780  27.146  1.00  0.00    -0.238 OA
HETATM   35  O7  UNL     1      -5.764  18.425  27.891  1.00  0.00    -0.301 OA
HETATM   36  C27 UNL     1      -5.653  17.055  28.291  1.00  0.00     0.216 C 
HETATM   37  C28 UNL     1      -6.725  16.487  27.304  1.00  0.00     0.213 C 
BRANCH  37  38
HETATM   38  C29 UNL     1      -6.050  16.741  25.978  1.00  0.00     0.243 C 
HETATM   39  O8  UNL     1      -6.761  16.923  24.995  1.00  0.00    -0.271 OA
HETATM   40  N2  UNL     1      -4.653  16.754  25.945  1.00  0.00    -0.357 N 
ATOM     41  H2  UNL     1      -4.192  16.595  26.840  1.00  0.00     0.162 HD
BRANCH  40  42
HETATM   42  C30 UNL     1      -3.782  16.958  24.837  1.00  0.00     0.162 C 
BRANCH  42  43
HETATM   43  C31 UNL     1      -3.765  18.335  24.255  1.00  0.00     0.257 C 
BRANCH  43  44
HETATM   44  N3  UNL     1      -2.474  18.897  24.085  1.00  0.00    -0.068 N 
ATOM     45  H33 UNL     1      -2.465  19.522  23.279  1.00  0.00     0.275 HD
ATOM     46  H32 UNL     1      -2.280  19.567  24.831  1.00  0.00     0.275 HD
ATOM     47  H31 UNL     1      -1.716  18.219  24.014  1.00  0.00     0.275 HD
ENDBRANCH  43  44
BRANCH  43  48
HETATM   48  C32 UNL     1      -4.551  18.342  22.975  1.00  0.00     0.072 C 
HETATM   49  N4  UNL     1      -4.821  17.240  22.402  1.00  0.00    -0.395 N 
ATOM     50  H42 UNL     1      -4.497  16.371  22.825  1.00  0.00     0.156 HD
ATOM     51  H41 UNL     1      -5.355  17.246  21.533  1.00  0.00     0.156 HD
BRANCH  48  52
HETATM   52  S1  UNL     1      -5.117  19.862  22.236  1.00  0.00    -0.119 SA
HETATM   53  C33 UNL     1      -5.115  21.196  23.459  1.00  0.00     0.097 C 
ENDBRANCH  48  52
ENDBRANCH  43  48
ENDBRANCH  42  43
ENDBRANCH  40  42
ENDBRANCH  37  38
ENDBRANCH  29  32
ENDBRANCH   1  29
TORSDOF 19
ENDMDL
MODEL 4
REMARK VINA RESULT: -8.287966925      3.255      9.676
REMARK  19 active torsions:
REMARK  status: ('A' for Active; 'I' for Inactive)
REMARK    1  A    between atoms: O1_2  and  C2_3 
REMARK    2  A    between atoms: C2_3  and  C3_5 
REMARK    3  A    between atoms: C3_5  and  C4_6 
REMARK    4  A    between atoms: C4_6  and  C5_7 
REMARK    5  A    between atoms: C6_8  and  C7_9 
REMARK    6  A    between atoms: C8_11  and  C9_12 
REMARK    7  A    between atoms: C9_12  and  C10_13 
REMARK    8  A    between atoms: C9_12  and  C16_19 
REMARK    9  A    between atoms: C16_19  and  C17_20 
REMARK   10  A    between atoms: C16_19  and  C25_29 
REMARK   11  A    between atoms: C17_20  and  C18_21 
REMARK   12  A    between atoms: C25_29  and  O5_30 
REMARK   13  A    between atoms: C25_29  and  N1_32 
REMARK   14  A    between atoms: C28_37  and  C29_38 
REMARK       I    between atoms: C29_38  and  N2_40 
REMARK   15  A    between atoms: N2_40  and  C30_42 
REMARK   16  A    between atoms: C30_42  and  C31_43 
REMARK   17  A    between atoms: C31_43  and  N3_44 
REMARK   18  A    between atoms: C31_43  and  C32_48 
REMARK   19  A    between atoms: C32_48  and  S1_52 
ROOT
HETATM    1  C16 UNL     1     -13.426  13.786  31.577  1.00  0.00     0.070 C 
ENDROOT
BRANCH   1   2
HETATM    2  C9  UNL     1     -13.979  12.499  32.244  1.00  0.00     0.033 C 
BRANCH   2   3
HETATM    3  C8  UNL     1     -14.118  12.687  33.682  1.00  0.00     0.160 A 
HETATM    4  C7  UNL     1     -13.589  11.626  34.596  1.00  0.00     0.174 A 
HETATM    5  O3  UNL     1     -14.914  12.127  34.609  1.00  0.00    -0.371 OA
BRANCH   4   6
HETATM    6  C6  UNL     1     -13.721  10.152  34.233  1.00  0.00     0.003 C 
HETATM    7  C5  UNL     1     -12.701   9.530  33.654  1.00  0.00    -0.028 C 
BRANCH   7   8
HETATM    8  C4  UNL     1     -12.731   8.105  33.264  1.00  0.00     0.037 C 
BRANCH   8   9
HETATM    9  C3  UNL     1     -13.191   7.937  31.825  1.00  0.00     0.115 C 
BRANCH   9  10
HETATM   10  C2  UNL     1     -12.110   8.344  30.881  1.00  0.00     0.258 C 
HETATM   11  O2  UNL     1     -12.189   9.479  30.366  1.00  0.00    -0.265 OA
BRANCH  10  12
HETATM   12  O1  UNL     1     -11.050   7.515  30.568  1.00  0.00    -0.326 OA
HETATM   13  C1  UNL     1     -11.243   6.393  29.732  1.00  0.00     0.213 C 
ENDBRANCH  10  12
ENDBRANCH   9  10
ENDBRANCH   8   9
ENDBRANCH   7   8
ENDBRANCH   4   6
ENDBRANCH   2   3
BRANCH   2  14
HETATM   14  C10 UNL     1     -15.339  12.330  31.562  1.00  0.00    -0.007 C 
HETATM   15  C11 UNL     1     -15.286  10.965  30.794  1.00  0.00     0.005 C 
HETATM   16  C12 UNL     1     -16.542  10.846  29.999  1.00  0.00     0.000 C 
HETATM   17  C13 UNL     1     -17.594  11.866  30.308  1.00  0.00     0.000 C 
HETATM   18  C14 UNL     1     -17.073  13.276  30.119  1.00  0.00     0.000 C 
HETATM   19  C15 UNL     1     -15.582  13.313  30.468  1.00  0.00     0.005 C 
ENDBRANCH   2  14
ENDBRANCH   1   2
BRANCH   1  20
HETATM   20  C17 UNL     1     -12.961  14.749  32.610  1.00  0.00     0.045 C 
BRANCH  20  21
HETATM   21  C18 UNL     1     -11.476  15.061  32.550  1.00  0.00     0.126 C 
HETATM   22  O4  UNL     1     -11.265  16.371  33.082  1.00  0.00    -0.380 OA
HETATM   23  C19 UNL     1     -10.169  16.386  33.927  1.00  0.00     0.122 C 
HETATM   24  C20 UNL     1     -10.398  15.549  35.182  1.00  0.00     0.032 C 
HETATM   25  C24 UNL     1      -8.916  15.851  33.258  1.00  0.00     0.032 C 
HETATM   26  C21 UNL     1     -10.852  14.147  34.781  1.00  0.00     0.010 C 
HETATM   27  C22 UNL     1     -10.657  14.051  33.289  1.00  0.00     0.015 C 
HETATM   28  C23 UNL     1      -9.184  14.368  33.007  1.00  0.00     0.010 C 
ENDBRANCH  20  21
ENDBRANCH   1  20
BRANCH   1  29
HETATM   29  C25 UNL     1     -12.592  13.560  30.407  1.00  0.00     0.127 C 
BRANCH  29  30
HETATM   30  O5  UNL     1     -11.906  12.399  30.470  1.00  0.00    -0.349 OA
ATOM     31  H5  UNL     1     -11.734  12.026  29.614  1.00  0.00     0.219 HD
ENDBRANCH  29  30
BRANCH  29  32
HETATM   32  N1  UNL     1     -12.327  14.263  29.217  1.00  0.00    -0.261 N 
HETATM   33  C26 UNL     1     -12.240  13.555  27.920  1.00  0.00     0.369 C 
HETATM   34  O6  UNL     1     -11.838  12.388  27.718  1.00  0.00    -0.238 OA
HETATM   35  O7  UNL     1     -12.706  14.472  26.955  1.00  0.00    -0.301 OA
HETATM   36  C27 UNL     1     -13.137  15.664  27.618  1.00  0.00     0.216 C 
HETATM   37  C28 UNL     1     -12.104  15.609  28.791  1.00  0.00     0.213 C 
BRANCH  37  38
HETATM   38  C29 UNL     1     -10.813  15.820  28.039  1.00  0.00     0.243 C 
HETATM   39  O8  UNL     1      -9.772  15.430  28.559  1.00  0.00    -0.271 OA
HETATM   40  N2  UNL     1     -10.874  16.448  26.792  1.00  0.00    -0.357 N 
ATOM     41  H2  UNL     1     -11.808  16.712  26.481  1.00  0.00     0.162 HD
BRANCH  40  42
HETATM   42  C30 UNL     1      -9.817  16.772  25.895  1.00  0.00     0.162 C 
BRANCH  42  43
HETATM   43  C31 UNL     1      -9.205  18.126  26.058  1.00  0.00     0.257 C 
BRANCH  43  44
HETATM   44  N3  UNL     1     -10.082  19.123  26.558  1.00  0.00    -0.068 N 
ATOM     45  H33 UNL     1     -10.498  19.645  25.787  1.00  0.00     0.275 HD
ATOM     46  H32 UNL     1     -10.918  18.692  26.953  1.00  0.00     0.275 HD
ATOM     47  H31 UNL     1      -9.664  19.764  27.232  1.00  0.00     0.275 HD
ENDBRANCH  43  44
BRANCH  43  48
HETATM   48  C32 UNL     1      -7.958  18.011  26.888  1.00  0.00     0.072 C 
HETATM   49  N4  UNL     1      -8.041  18.101  28.153  1.00  0.00    -0.395 N 
ATOM     50  H42 UNL     1      -8.955  18.250  28.580  1.00  0.00     0.156 HD
ATOM     51  H41 UNL     1      -7.194  18.023  28.717  1.00  0.00     0.156 HD
BRANCH  48  52
HETATM   52  S1  UNL     1      -6.362  17.751  26.142  1.00  0.00    -0.119 SA
HETATM   53  C33 UNL     1      -5.309  16.763  27.235  1.00  0.00     0.097 C 
ENDBRANCH  48  52
ENDBRANCH  43  48
ENDBRANCH  42  43
ENDBRANCH  40  42
ENDBRANCH  37  38
ENDBRANCH  29  32
ENDBRANCH   1  29
TORSDOF 19
ENDMDL
MODEL 5
REMARK VINA RESULT: -8.269562867      3.819      9.856
REMARK  19 active torsions:
REMARK  status: ('A' for Active; 'I' for Inactive)
REMARK    1  A    between atoms: O1_2  and  C2_3 
REMARK    2  A    between atoms: C2_3  and  C3_5 
REMARK    3  A    between atoms: C3_5  and  C4_6 
REMARK    4  A    between atoms: C4_6  and  C5_7 
REMARK    5  A    between atoms: C6_8  and  C7_9 
REMARK    6  A    between atoms: C8_11  and  C9_12 
REMARK    7  A    between atoms: C9_12  and  C10_13 
REMARK    8  A    between atoms: C9_12  and  C16_19 
REMARK    9  A    between atoms: C16_19  and  C17_20 
REMARK   10  A    between atoms: C16_19  and  C25_29 
REMARK   11  A    between atoms: C17_20  and  C18_21 
REMARK   12  A    between atoms: C25_29  and  O5_30 
REMARK   13  A    between atoms: C25_29  and  N1_32 
REMARK   14  A    between atoms: C28_37  and  C29_38 
REMARK       I    between atoms: C29_38  and  N2_40 
REMARK   15  A    between atoms: N2_40  and  C30_42 
REMARK   16  A    between atoms: C30_42  and  C31_43 
REMARK   17  A    between atoms: C31_43  and  N3_44 
REMARK   18  A    between atoms: C31_43  and  C32_48 
REMARK   19  A    between atoms: C32_48  and  S1_52 
ROOT
HETATM    1  C16 UNL     1      -8.747  16.367  27.930  1.00  0.00     0.070 C 
ENDROOT
BRANCH   1   2
HETATM    2  C9  UNL     1      -9.611  15.826  26.760  1.00  0.00     0.033 C 
BRANCH   2   3
HETATM    3  C8  UNL     1      -8.971  14.672  26.141  1.00  0.00     0.160 A 
HETATM    4  C7  UNL     1      -8.520  14.782  24.718  1.00  0.00     0.174 A 
HETATM    5  O3  UNL     1      -9.378  13.776  25.226  1.00  0.00    -0.371 OA
BRANCH   4   6
HETATM    6  C6  UNL     1      -9.356  15.544  23.696  1.00  0.00     0.003 C 
HETATM    7  C5  UNL     1      -8.960  15.585  22.430  1.00  0.00    -0.028 C 
BRANCH   7   8
HETATM    8  C4  UNL     1      -9.700  16.296  21.367  1.00  0.00     0.037 C 
BRANCH   8   9
HETATM    9  C3  UNL     1      -9.049  16.088  20.009  1.00  0.00     0.115 C 
BRANCH   9  10
HETATM   10  C2  UNL     1      -7.973  17.098  19.786  1.00  0.00     0.258 C 
HETATM   11  O2  UNL     1      -8.156  18.247  20.239  1.00  0.00    -0.265 OA
BRANCH  10  12
HETATM   12  O1  UNL     1      -6.808  16.800  19.106  1.00  0.00    -0.326 OA
HETATM   13  C1  UNL     1      -5.958  17.834  18.658  1.00  0.00     0.213 C 
ENDBRANCH  10  12
ENDBRANCH   9  10
ENDBRANCH   8   9
ENDBRANCH   7   8
ENDBRANCH   4   6
ENDBRANCH   2   3
BRANCH   2  14
HETATM   14  C10 UNL     1     -10.915  15.440  27.462  1.00  0.00    -0.007 C 
HETATM   15  C11 UNL     1     -10.982  13.874  27.448  1.00  0.00     0.005 C 
HETATM   16  C12 UNL     1     -12.311  13.474  27.992  1.00  0.00     0.000 C 
HETATM   17  C13 UNL     1     -13.105  14.580  28.618  1.00  0.00     0.000 C 
HETATM   18  C14 UNL     1     -13.339  15.716  27.645  1.00  0.00     0.000 C 
HETATM   19  C15 UNL     1     -12.137  15.827  26.701  1.00  0.00     0.005 C 
ENDBRANCH   2  14
ENDBRANCH   1   2
BRANCH   1  20
HETATM   20  C17 UNL     1      -8.256  15.247  28.775  1.00  0.00     0.045 C 
BRANCH  20  21
HETATM   21  C18 UNL     1      -8.238  15.547  30.264  1.00  0.00     0.126 C 
HETATM   22  O4  UNL     1      -8.964  16.757  30.491  1.00  0.00    -0.380 OA
HETATM   23  C19 UNL     1      -9.796  16.628  31.590  1.00  0.00     0.122 C 
HETATM   24  C20 UNL     1     -10.908  15.609  31.356  1.00  0.00     0.032 C 
HETATM   25  C24 UNL     1      -9.046  16.189  32.834  1.00  0.00     0.032 C 
HETATM   26  C21 UNL     1     -10.297  14.292  30.884  1.00  0.00     0.010 C 
HETATM   27  C22 UNL     1      -8.807  14.426  31.072  1.00  0.00     0.015 C 
HETATM   28  C23 UNL     1      -8.569  14.766  32.548  1.00  0.00     0.010 C 
ENDBRANCH  20  21
ENDBRANCH   1  20
BRANCH   1  29
HETATM   29  C25 UNL     1      -7.820  17.427  27.567  1.00  0.00     0.127 C 
BRANCH  29  30
HETATM   30  O5  UNL     1      -7.948  18.523  28.346  1.00  0.00    -0.349 OA
ATOM     31  H5  UNL     1      -7.143  18.754  28.792  1.00  0.00     0.219 HD
ENDBRANCH  29  30
BRANCH  29  32
HETATM   32  N1  UNL     1      -6.814  17.587  26.596  1.00  0.00    -0.261 N 
HETATM   33  C26 UNL     1      -6.080  18.866  26.467  1.00  0.00     0.369 C 
HETATM   34  O6  UNL     1      -6.515  20.017  26.694  1.00  0.00    -0.238 OA
HETATM   35  O7  UNL     1      -4.784  18.518  26.033  1.00  0.00    -0.301 OA
HETATM   36  C27 UNL     1      -4.684  17.092  25.968  1.00  0.00     0.216 C 
HETATM   37  C28 UNL     1      -6.173  16.819  25.576  1.00  0.00     0.213 C 
BRANCH  37  38
HETATM   38  C29 UNL     1      -6.222  17.441  24.202  1.00  0.00     0.243 C 
HETATM   39  O8  UNL     1      -7.245  18.034  23.873  1.00  0.00    -0.271 OA
HETATM   40  N2  UNL     1      -5.099  17.307  23.381  1.00  0.00    -0.357 N 
ATOM     41  H2  UNL     1      -4.317  16.795  23.788  1.00  0.00     0.162 HD
BRANCH  40  42
HETATM   42  C30 UNL     1      -4.891  17.785  22.055  1.00  0.00     0.162 C 
BRANCH  42  43
HETATM   43  C31 UNL     1      -4.760  19.266  21.900  1.00  0.00     0.257 C 
BRANCH  43  44
HETATM   44  N3  UNL     1      -5.985  19.980  21.919  1.00  0.00    -0.068 N 
ATOM     45  H33 UNL     1      -6.769  19.333  22.000  1.00  0.00     0.275 HD
ATOM     46  H32 UNL     1      -6.083  20.489  22.798  1.00  0.00     0.275 HD
ATOM     47  H31 UNL     1      -6.128  20.610  21.130  1.00  0.00     0.275 HD
ENDBRANCH  43  44
BRANCH  43  48
HETATM   48  C32 UNL     1      -3.792  19.788  22.923  1.00  0.00     0.072 C 
HETATM   49  N4  UNL     1      -4.209  20.573  23.833  1.00  0.00    -0.395 N 
ATOM     50  H42 UNL     1      -5.195  20.833  23.848  1.00  0.00     0.156 HD
ATOM     51  H41 UNL     1      -3.551  20.928  24.527  1.00  0.00     0.156 HD
BRANCH  48  52
HETATM   52  S1  UNL     1      -2.070  19.335  22.896  1.00  0.00    -0.119 SA
HETATM   53  C33 UNL     1      -1.622  18.467  24.420  1.00  0.00     0.097 C 
ENDBRANCH  48  52
ENDBRANCH  43  48
ENDBRANCH  42  43
ENDBRANCH  40  42
ENDBRANCH  37  38
ENDBRANCH  29  32
ENDBRANCH   1  29
TORSDOF 19
ENDMDL
