MODEL 1
REMARK VINA RESULT: -11.030726412      0.000      0.000
REMARK  7 active torsions:
REMARK  status: ('A' for Active; 'I' for Inactive)
REMARK    1  A    between atoms: N1_2  and  C2_5 
REMARK    2  A    between atoms: C2_5  and  C3_6 
REMARK    3  A    between atoms: C6_9  and  C7_10 
REMARK    4  A    between atoms: C7_10  and  N2_11 
REMARK    5  A    between atoms: N2_11  and  C8_13 
REMARK    6  A    between atoms: N3_16  and  C11_17 
REMARK    7  A    between atoms: N4_20  and  C14_22 
ROOT
HETATM    1  C8  UNL     1      11.425  24.749  14.420  1.00  0.00     0.096 C 
HETATM    2  C9  UNL     1      12.690  24.037  14.133  1.00  0.00     0.046 C 
HETATM    3  C10 UNL     1      12.280  22.844  13.302  1.00  0.00     0.126 C 
HETATM    4  N3  UNL     1      10.888  22.656  13.548  1.00  0.00    -0.365 N 
HETATM    5  C19 UNL     1      10.455  23.559  14.569  1.00  0.00     0.149 C 
ENDROOT
BRANCH   4   6
HETATM    6  C11 UNL     1      10.069  21.727  12.854  1.00  0.00     0.107 A 
HETATM    7  C12 UNL     1      10.333  20.361  12.926  1.00  0.00     0.097 A 
HETATM    8  C13 UNL     1       9.578  19.393  12.283  1.00  0.00     0.111 A 
HETATM    9  N4  UNL     1       9.895  18.159  12.393  1.00  0.00    -0.327 N 
HETATM   10  N7  UNL     1       8.541  19.837  11.557  1.00  0.00    -0.338 N 
ATOM     11  H4  UNL     1      10.714  17.975  12.973  1.00  0.00     0.169 HD
HETATM   12  C18 UNL     1       8.261  21.149  11.468  1.00  0.00     0.183 A 
ATOM     13  H7  UNL     1       7.952  19.166  11.064  1.00  0.00     0.168 HD
HETATM   14  N8  UNL     1       9.010  22.097  12.105  1.00  0.00    -0.339 N 
ATOM     15  H8  UNL     1       8.769  23.084  12.015  1.00  0.00     0.168 HD
BRANCH   9  16
HETATM   16  C14 UNL     1       9.299  17.028  11.848  1.00  0.00     0.123 A 
HETATM   17  C15 UNL     1       8.345  17.061  10.815  1.00  0.00     0.075 A 
HETATM   18  C16 UNL     1       8.002  15.749  10.580  1.00  0.00     0.025 A 
HETATM   19  C17 UNL     1       7.017  15.301   9.563  1.00  0.00     0.070 C 
HETATM   20  N5  UNL     1       8.708  14.992  11.420  1.00  0.00    -0.304 N 
HETATM   21  N6  UNL     1       9.465  15.750  12.160  1.00  0.00    -0.285 N 
ATOM     22  H5  UNL     1       8.661  13.974  11.475  1.00  0.00     0.186 HD
ATOM     23  H6  UNL     1      10.100  15.407  12.881  1.00  0.00     0.188 HD
ENDBRANCH   9  16
ENDBRANCH   4   6
BRANCH   1  24
HETATM   24  N2  UNL     1      11.289  25.568  15.532  1.00  0.00    -0.415 N 
ATOM     25  H2  UNL     1      10.863  26.487  15.423  1.00  0.00     0.153 HD
BRANCH  24  26
HETATM   26  C7  UNL     1      11.727  25.158  16.814  1.00  0.00     0.118 C 
BRANCH  26  27
HETATM   27  C6  UNL     1      10.795  25.504  17.915  1.00  0.00     0.003 C 
HETATM   28  C5  UNL     1       9.642  24.477  18.027  1.00  0.00     0.007 C 
HETATM   29  C4  UNL     1       8.625  25.167  18.900  1.00  0.00     0.007 C 
HETATM   30  C3  UNL     1       9.139  25.554  20.229  1.00  0.00     0.011 C 
HETATM   31  C21 UNL     1      10.586  25.921  20.311  1.00  0.00     0.007 C 
HETATM   32  C20 UNL     1      11.486  25.355  19.287  1.00  0.00     0.007 C 
BRANCH  30  33
HETATM   33  C2  UNL     1       8.721  24.584  21.317  1.00  0.00     0.236 C 
BRANCH  33  34
HETATM   34  N1  UNL     1       7.394  24.803  21.805  1.00  0.00    -0.079 N 
HETATM   35  C1  UNL     1       7.117  24.054  23.001  1.00  0.00     0.267 C 
ATOM     36  H12 UNL     1       6.701  24.610  21.082  1.00  0.00     0.276 HD
ATOM     37  H11 UNL     1       7.213  25.797  21.944  1.00  0.00     0.276 HD
ENDBRANCH  33  34
ENDBRANCH  30  33
ENDBRANCH  26  27
ENDBRANCH  24  26
ENDBRANCH   1  24
TORSDOF 7
ENDMDL
MODEL 2
REMARK VINA RESULT: -10.900354189      0.610      1.044
REMARK  7 active torsions:
REMARK  status: ('A' for Active; 'I' for Inactive)
REMARK    1  A    between atoms: N1_2  and  C2_5 
REMARK    2  A    between atoms: C2_5  and  C3_6 
REMARK    3  A    between atoms: C6_9  and  C7_10 
REMARK    4  A    between atoms: C7_10  and  N2_11 
REMARK    5  A    between atoms: N2_11  and  C8_13 
REMARK    6  A    between atoms: N3_16  and  C11_17 
REMARK    7  A    between atoms: N4_20  and  C14_22 
ROOT
HETATM    1  C8  UNL     1      11.186  24.698  14.361  1.00  0.00     0.096 C 
HETATM    2  C9  UNL     1      12.474  24.040  14.051  1.00  0.00     0.046 C 
HETATM    3  C10 UNL     1      12.102  22.839  13.216  1.00  0.00     0.126 C 
HETATM    4  N3  UNL     1      10.722  22.592  13.478  1.00  0.00    -0.365 N 
HETATM    5  C19 UNL     1      10.266  23.469  14.512  1.00  0.00     0.149 C 
ENDROOT
BRANCH   4   6
HETATM    6  C11 UNL     1       9.932  21.637  12.787  1.00  0.00     0.107 A 
HETATM    7  C12 UNL     1      10.228  20.278  12.876  1.00  0.00     0.097 A 
HETATM    8  C13 UNL     1       9.502  19.285  12.237  1.00  0.00     0.111 A 
HETATM    9  N4  UNL     1       9.847  18.060  12.364  1.00  0.00    -0.327 N 
HETATM   10  N7  UNL     1       8.461  19.696  11.498  1.00  0.00    -0.338 N 
ATOM     11  H4  UNL     1      10.665  17.903  12.953  1.00  0.00     0.169 HD
HETATM   12  C18 UNL     1       8.151  21.000  11.391  1.00  0.00     0.183 A 
ATOM     13  H7  UNL     1       7.893  19.006  11.007  1.00  0.00     0.168 HD
HETATM   14  N8  UNL     1       8.871  21.972  12.025  1.00  0.00    -0.339 N 
ATOM     15  H8  UNL     1       8.607  22.952  11.922  1.00  0.00     0.168 HD
BRANCH   9  16
HETATM   16  C14 UNL     1       9.284  16.910  11.826  1.00  0.00     0.123 A 
HETATM   17  C15 UNL     1       8.340  16.909  10.783  1.00  0.00     0.075 A 
HETATM   18  C16 UNL     1       8.031  15.587  10.559  1.00  0.00     0.025 A 
HETATM   19  C17 UNL     1       7.067  15.103   9.538  1.00  0.00     0.070 C 
HETATM   20  N5  UNL     1       8.745  14.855  11.416  1.00  0.00    -0.304 N 
HETATM   21  N6  UNL     1       9.477  15.640  12.154  1.00  0.00    -0.285 N 
ATOM     22  H5  UNL     1       8.722  13.837  11.482  1.00  0.00     0.186 HD
ATOM     23  H6  UNL     1      10.112  15.320  12.886  1.00  0.00     0.188 HD
ENDBRANCH   9  16
ENDBRANCH   4   6
BRANCH   1  24
HETATM   24  N2  UNL     1      11.031  25.502  15.481  1.00  0.00    -0.415 N 
ATOM     25  H2  UNL     1      10.187  26.066  15.576  1.00  0.00     0.153 HD
BRANCH  24  26
HETATM   26  C7  UNL     1      12.016  25.559  16.495  1.00  0.00     0.118 C 
BRANCH  26  27
HETATM   27  C6  UNL     1      11.484  25.398  17.870  1.00  0.00     0.003 C 
HETATM   28  C5  UNL     1      11.166  26.766  18.521  1.00  0.00     0.007 C 
HETATM   29  C4  UNL     1      11.015  26.445  19.986  1.00  0.00     0.007 C 
HETATM   30  C3  UNL     1       9.965  25.448  20.276  1.00  0.00     0.011 C 
HETATM   31  C21 UNL     1       9.728  24.398  19.239  1.00  0.00     0.007 C 
HETATM   32  C20 UNL     1      10.094  24.727  17.848  1.00  0.00     0.007 C 
BRANCH  30  33
HETATM   33  C2  UNL     1       8.679  26.086  20.765  1.00  0.00     0.236 C 
BRANCH  33  34
HETATM   34  N1  UNL     1       7.618  25.151  20.980  1.00  0.00    -0.079 N 
HETATM   35  C1  UNL     1       7.687  24.526  22.274  1.00  0.00     0.267 C 
ATOM     36  H12 UNL     1       7.587  24.453  20.237  1.00  0.00     0.276 HD
ATOM     37  H11 UNL     1       6.708  25.588  20.832  1.00  0.00     0.276 HD
ENDBRANCH  33  34
ENDBRANCH  30  33
ENDBRANCH  26  27
ENDBRANCH  24  26
ENDBRANCH   1  24
TORSDOF 7
ENDMDL
MODEL 3
REMARK VINA RESULT: -10.757880694      0.691      1.079
REMARK  7 active torsions:
REMARK  status: ('A' for Active; 'I' for Inactive)
REMARK    1  A    between atoms: N1_2  and  C2_5 
REMARK    2  A    between atoms: C2_5  and  C3_6 
REMARK    3  A    between atoms: C6_9  and  C7_10 
REMARK    4  A    between atoms: C7_10  and  N2_11 
REMARK    5  A    between atoms: N2_11  and  C8_13 
REMARK    6  A    between atoms: N3_16  and  C11_17 
REMARK    7  A    between atoms: N4_20  and  C14_22 
ROOT
HETATM    1  C8  UNL     1      11.071  24.560  15.010  1.00  0.00     0.096 C 
HETATM    2  C9  UNL     1      12.352  24.232  14.346  1.00  0.00     0.046 C 
HETATM    3  C10 UNL     1      11.997  23.180  13.322  1.00  0.00     0.126 C 
HETATM    4  N3  UNL     1      10.749  22.632  13.741  1.00  0.00    -0.365 N 
HETATM    5  C19 UNL     1      10.389  23.176  15.014  1.00  0.00     0.149 C 
ENDROOT
BRANCH   4   6
HETATM    6  C11 UNL     1       9.983  21.709  12.982  1.00  0.00     0.107 A 
HETATM    7  C12 UNL     1      10.248  20.342  13.056  1.00  0.00     0.097 A 
HETATM    8  C13 UNL     1       9.543  19.379  12.352  1.00  0.00     0.111 A 
HETATM    9  N4  UNL     1       9.857  18.145  12.468  1.00  0.00    -0.327 N 
HETATM   10  N7  UNL     1       8.554  19.828  11.563  1.00  0.00    -0.338 N 
ATOM     11  H4  UNL     1      10.636  17.958  13.099  1.00  0.00     0.169 HD
HETATM   12  C18 UNL     1       8.274  21.140  11.471  1.00  0.00     0.183 A 
ATOM     13  H7  UNL     1       8.003  19.161  11.024  1.00  0.00     0.168 HD
HETATM   14  N8  UNL     1       8.975  22.083  12.169  1.00  0.00    -0.339 N 
ATOM     15  H8  UNL     1       8.735  23.070  12.075  1.00  0.00     0.168 HD
BRANCH   9  16
HETATM   16  C14 UNL     1       9.304  17.019  11.871  1.00  0.00     0.123 A 
HETATM   17  C15 UNL     1       8.353  17.064  10.835  1.00  0.00     0.075 A 
HETATM   18  C16 UNL     1       8.059  15.752  10.540  1.00  0.00     0.025 A 
HETATM   19  C17 UNL     1       7.095  15.314   9.500  1.00  0.00     0.070 C 
HETATM   20  N5  UNL     1       8.789  14.984  11.350  1.00  0.00    -0.304 N 
HETATM   21  N6  UNL     1       9.516  15.736  12.126  1.00  0.00    -0.285 N 
ATOM     22  H5  UNL     1       8.780  13.964  11.359  1.00  0.00     0.186 HD
ATOM     23  H6  UNL     1      10.161  15.384  12.834  1.00  0.00     0.188 HD
ENDBRANCH   9  16
ENDBRANCH   4   6
BRANCH   1  24
HETATM   24  N2  UNL     1      11.031  25.072  16.299  1.00  0.00    -0.415 N 
ATOM     25  H2  UNL     1      10.659  26.009  16.450  1.00  0.00     0.153 HD
BRANCH  24  26
HETATM   26  C7  UNL     1      11.494  24.327  17.409  1.00  0.00     0.118 C 
BRANCH  26  27
HETATM   27  C6  UNL     1      10.524  24.232  18.526  1.00  0.00     0.003 C 
HETATM   28  C5  UNL     1      11.219  24.404  19.898  1.00  0.00     0.007 C 
HETATM   29  C4  UNL     1      10.195  23.910  20.889  1.00  0.00     0.007 C 
HETATM   30  C3  UNL     1       8.910  24.636  20.835  1.00  0.00     0.011 C 
HETATM   31  C21 UNL     1       8.487  25.159  19.501  1.00  0.00     0.007 C 
HETATM   32  C20 UNL     1       9.549  25.430  18.513  1.00  0.00     0.007 C 
BRANCH  30  33
HETATM   33  C2  UNL     1       8.784  25.672  21.935  1.00  0.00     0.236 C 
BRANCH  33  34
HETATM   34  N1  UNL     1       7.617  25.511  22.747  1.00  0.00    -0.079 N 
HETATM   35  C1  UNL     1       7.216  24.135  22.870  1.00  0.00     0.267 C 
ATOM     36  H12 UNL     1       6.849  26.088  22.403  1.00  0.00     0.276 HD
ATOM     37  H11 UNL     1       7.745  25.940  23.664  1.00  0.00     0.276 HD
ENDBRANCH  33  34
ENDBRANCH  30  33
ENDBRANCH  26  27
ENDBRANCH  24  26
ENDBRANCH   1  24
TORSDOF 7
ENDMDL
MODEL 4
REMARK VINA RESULT: -10.540984824      2.075      3.024
REMARK  7 active torsions:
REMARK  status: ('A' for Active; 'I' for Inactive)
REMARK    1  A    between atoms: N1_2  and  C2_5 
REMARK    2  A    between atoms: C2_5  and  C3_6 
REMARK    3  A    between atoms: C6_9  and  C7_10 
REMARK    4  A    between atoms: C7_10  and  N2_11 
REMARK    5  A    between atoms: N2_11  and  C8_13 
REMARK    6  A    between atoms: N3_16  and  C11_17 
REMARK    7  A    between atoms: N4_20  and  C14_22 
ROOT
HETATM    1  C8  UNL     1      11.291  24.657  14.290  1.00  0.00     0.096 C 
HETATM    2  C9  UNL     1      12.564  23.973  13.971  1.00  0.00     0.046 C 
HETATM    3  C10 UNL     1      12.161  22.771  13.150  1.00  0.00     0.126 C 
HETATM    4  N3  UNL     1      10.779  22.552  13.430  1.00  0.00    -0.365 N 
HETATM    5  C19 UNL     1      10.351  23.446  14.462  1.00  0.00     0.149 C 
ENDROOT
BRANCH   4   6
HETATM    6  C11 UNL     1       9.964  21.605  12.756  1.00  0.00     0.107 A 
HETATM    7  C12 UNL     1      10.252  20.244  12.833  1.00  0.00     0.097 A 
HETATM    8  C13 UNL     1       9.502  19.259  12.209  1.00  0.00     0.111 A 
HETATM    9  N4  UNL     1       9.841  18.031  12.323  1.00  0.00    -0.327 N 
HETATM   10  N7  UNL     1       8.446  19.681  11.498  1.00  0.00    -0.338 N 
ATOM     11  H4  UNL     1      10.672  17.865  12.890  1.00  0.00     0.169 HD
HETATM   12  C18 UNL     1       8.143  20.988  11.404  1.00  0.00     0.183 A 
ATOM     13  H7  UNL     1       7.860  18.997  11.019  1.00  0.00     0.168 HD
HETATM   14  N8  UNL     1       8.887  21.952  12.022  1.00  0.00    -0.339 N 
ATOM     15  H8  UNL     1       8.628  22.934  11.930  1.00  0.00     0.168 HD
BRANCH   9  16
HETATM   16  C14 UNL     1       9.255  16.887  11.795  1.00  0.00     0.123 A 
HETATM   17  C15 UNL     1       8.301  16.896  10.761  1.00  0.00     0.075 A 
HETATM   18  C16 UNL     1       7.970  15.578  10.546  1.00  0.00     0.025 A 
HETATM   19  C17 UNL     1       6.990  15.105   9.537  1.00  0.00     0.070 C 
HETATM   20  N5  UNL     1       8.681  14.839  11.399  1.00  0.00    -0.304 N 
HETATM   21  N6  UNL     1       9.431  15.616  12.127  1.00  0.00    -0.285 N 
ATOM     22  H5  UNL     1       8.643  13.822  11.470  1.00  0.00     0.186 HD
ATOM     23  H6  UNL     1      10.069  15.290  12.854  1.00  0.00     0.188 HD
ENDBRANCH   9  16
ENDBRANCH   4   6
BRANCH   1  24
HETATM   24  N2  UNL     1      11.164  25.473  15.405  1.00  0.00    -0.415 N 
ATOM     25  H2  UNL     1      11.023  26.474  15.275  1.00  0.00     0.153 HD
BRANCH  24  26
HETATM   26  C7  UNL     1      11.225  24.950  16.718  1.00  0.00     0.118 C 
BRANCH  26  27
HETATM   27  C6  UNL     1      11.735  25.906  17.731  1.00  0.00     0.003 C 
HETATM   28  C5  UNL     1      12.073  27.277  17.098  1.00  0.00     0.007 C 
HETATM   29  C4  UNL     1      12.907  27.966  18.149  1.00  0.00     0.007 C 
HETATM   30  C3  UNL     1      12.226  28.120  19.450  1.00  0.00     0.011 C 
HETATM   31  C21 UNL     1      11.252  27.051  19.831  1.00  0.00     0.007 C 
HETATM   32  C20 UNL     1      10.626  26.285  18.737  1.00  0.00     0.007 C 
BRANCH  30  33
HETATM   33  C2  UNL     1      11.668  29.515  19.651  1.00  0.00     0.236 C 
BRANCH  33  34
HETATM   34  N1  UNL     1      12.083  30.451  18.651  1.00  0.00    -0.079 N 
HETATM   35  C1  UNL     1      12.441  31.728  19.206  1.00  0.00     0.267 C 
ATOM     36  H12 UNL     1      11.373  30.551  17.925  1.00  0.00     0.276 HD
ATOM     37  H11 UNL     1      12.842  30.071  18.085  1.00  0.00     0.276 HD
ENDBRANCH  33  34
ENDBRANCH  30  33
ENDBRANCH  26  27
ENDBRANCH  24  26
ENDBRANCH   1  24
TORSDOF 7
ENDMDL
MODEL 5
REMARK VINA RESULT: -10.457004429      2.496      3.342
REMARK  7 active torsions:
REMARK  status: ('A' for Active; 'I' for Inactive)
REMARK    1  A    between atoms: N1_2  and  C2_5 
REMARK    2  A    between atoms: C2_5  and  C3_6 
REMARK    3  A    between atoms: C6_9  and  C7_10 
REMARK    4  A    between atoms: C7_10  and  N2_11 
REMARK    5  A    between atoms: N2_11  and  C8_13 
REMARK    6  A    between atoms: N3_16  and  C11_17 
REMARK    7  A    between atoms: N4_20  and  C14_22 
ROOT
HETATM    1  C8  UNL     1      11.213  24.712  14.586  1.00  0.00     0.096 C 
HETATM    2  C9  UNL     1      12.508  24.149  14.145  1.00  0.00     0.046 C 
HETATM    3  C10 UNL     1      12.140  22.991  13.249  1.00  0.00     0.126 C 
HETATM    4  N3  UNL     1      10.794  22.652  13.581  1.00  0.00    -0.365 N 
HETATM    5  C19 UNL     1      10.368  23.427  14.705  1.00  0.00     0.149 C 
ENDROOT
BRANCH   4   6
HETATM    6  C11 UNL     1      10.007  21.706  12.873  1.00  0.00     0.107 A 
HETATM    7  C12 UNL     1      10.289  20.344  12.963  1.00  0.00     0.097 A 
HETATM    8  C13 UNL     1       9.565  19.360  12.308  1.00  0.00     0.111 A 
HETATM    9  N4  UNL     1       9.897  18.132  12.436  1.00  0.00    -0.327 N 
HETATM   10  N7  UNL     1       8.541  19.783  11.553  1.00  0.00    -0.338 N 
ATOM     11  H4  UNL     1      10.703  17.964  13.039  1.00  0.00     0.169 HD
HETATM   12  C18 UNL     1       8.244  21.090  11.446  1.00  0.00     0.183 A 
ATOM     13  H7  UNL     1       7.975  19.100  11.050  1.00  0.00     0.168 HD
HETATM   14  N8  UNL     1       8.963  22.054  12.095  1.00  0.00    -0.339 N 
ATOM     15  H8  UNL     1       8.709  23.037  11.991  1.00  0.00     0.168 HD
BRANCH   9  16
HETATM   16  C14 UNL     1       9.332  16.988  11.885  1.00  0.00     0.123 A 
HETATM   17  C15 UNL     1       8.378  17.001  10.851  1.00  0.00     0.075 A 
HETATM   18  C16 UNL     1       8.071  15.682  10.609  1.00  0.00     0.025 A 
HETATM   19  C17 UNL     1       7.099  15.212   9.589  1.00  0.00     0.070 C 
HETATM   20  N5  UNL     1       8.795  14.939  11.446  1.00  0.00    -0.304 N 
HETATM   21  N6  UNL     1       9.531  15.714  12.191  1.00  0.00    -0.285 N 
ATOM     22  H5  UNL     1       8.776  13.920  11.496  1.00  0.00     0.186 HD
ATOM     23  H6  UNL     1      10.175  15.384  12.911  1.00  0.00     0.188 HD
ENDBRANCH   9  16
ENDBRANCH   4   6
BRANCH   1  24
HETATM   24  N2  UNL     1      11.096  25.425  15.771  1.00  0.00    -0.415 N 
ATOM     25  H2  UNL     1      10.222  25.907  15.977  1.00  0.00     0.153 HD
BRANCH  24  26
HETATM   26  C7  UNL     1      12.160  25.499  16.700  1.00  0.00     0.118 C 
BRANCH  26  27
HETATM   27  C6  UNL     1      12.468  26.873  17.165  1.00  0.00     0.003 C 
HETATM   28  C5  UNL     1      11.400  27.389  18.160  1.00  0.00     0.007 C 
HETATM   29  C4  UNL     1      11.649  28.875  18.222  1.00  0.00     0.007 C 
HETATM   30  C3  UNL     1      13.014  29.236  18.654  1.00  0.00     0.011 C 
HETATM   31  C21 UNL     1      14.112  28.295  18.275  1.00  0.00     0.007 C 
HETATM   32  C20 UNL     1      13.743  26.887  18.035  1.00  0.00     0.007 C 
BRANCH  30  33
HETATM   33  C2  UNL     1      13.072  29.640  20.115  1.00  0.00     0.236 C 
BRANCH  33  34
HETATM   34  N1  UNL     1      12.461  30.906  20.387  1.00  0.00    -0.079 N 
HETATM   35  C1  UNL     1      13.132  31.994  19.728  1.00  0.00     0.267 C 
ATOM     36  H12 UNL     1      12.391  31.071  21.391  1.00  0.00     0.276 HD
ATOM     37  H11 UNL     1      11.468  30.892  20.154  1.00  0.00     0.276 HD
ENDBRANCH  33  34
ENDBRANCH  30  33
ENDBRANCH  26  27
ENDBRANCH  24  26
ENDBRANCH   1  24
TORSDOF 7
ENDMDL
