MODEL 1
REMARK VINA RESULT: -8.148158240      0.000      0.000
REMARK  8 active torsions:
REMARK  status: ('A' for Active; 'I' for Inactive)
REMARK       I    between atoms: C1_4  and  N3_6 
REMARK       I    between atoms: N3_6  and  C2_8 
REMARK    1  A    between atoms: C2_8  and  C3_10 
REMARK    2  A    between atoms: C8_17  and  C9_18 
REMARK    3  A    between atoms: C9_18  and  N5_19 
REMARK    4  A    between atoms: C17_29  and  C18_30 
REMARK    5  A    between atoms: C18_30  and  C19_31 
REMARK    6  A    between atoms: C19_31  and  C20_32 
REMARK    7  A    between atoms: C20_32  and  C21_33 
REMARK    8  A    between atoms: C21_33  and  O2_34 
ROOT
HETATM    1  C3  UNL     1      -3.919  24.786   9.127  1.00  0.00     0.055 A 
HETATM    2  C4  UNL     1      -5.002  24.887  10.013  1.00  0.00     0.034 A 
HETATM    3  C5  UNL     1      -5.907  23.874  10.050  1.00  0.00     0.008 A 
HETATM    4  C6  UNL     1      -7.001  23.926  10.912  1.00  0.00     0.101 A 
HETATM    5  N4  UNL     1      -7.880  22.935  10.943  1.00  0.00    -0.373 N 
ATOM      6  H4  UNL     1      -8.674  22.992  11.581  1.00  0.00     0.164 HD
HETATM    7  C7  UNL     1      -7.748  21.843  10.143  1.00  0.00     0.102 A 
HETATM    8  C8  UNL     1      -6.683  21.765   9.288  1.00  0.00     0.022 A 
HETATM    9  C16 UNL     1      -5.728  22.790   9.222  1.00  0.00     0.057 A 
HETATM   10  N6  UNL     1      -4.687  22.700   8.377  1.00  0.00    -0.357 N 
ATOM     11  H6  UNL     1      -4.590  21.880   7.778  1.00  0.00     0.166 HD
HETATM   12  C17 UNL     1      -3.752  23.707   8.314  1.00  0.00     0.025 A 
ENDROOT
BRANCH   1  13
HETATM   13  C2  UNL     1      -3.062  25.949   9.116  1.00  0.00     0.260 C 
HETATM   14  N3  UNL     1      -2.461  26.409  10.338  1.00  0.00    -0.297 N 
HETATM   15  C1  UNL     1      -1.614  27.532  10.412  1.00  0.00     0.188 C 
ATOM     16  H3  UNL     1      -2.658  25.895  11.197  1.00  0.00     0.171 HD
HETATM   17  N1  UNL     1      -1.088  27.920  11.531  1.00  0.00    -0.373 N 
HETATM   18  N2  UNL     1      -1.304  28.287   9.246  1.00  0.00    -0.064 NA
ATOM     19  H12 UNL     1      -0.475  28.734  11.585  1.00  0.00     0.158 HD
ATOM     20  H11 UNL     1      -1.311  27.380  12.367  1.00  0.00     0.158 HD
HETATM   21  O1  UNL     1      -2.816  26.579   8.081  1.00  0.00    -0.267 OA
ENDBRANCH   1  13
BRANCH  12  22
HETATM   22  C18 UNL     1      -2.589  23.536   7.419  1.00  0.00     0.058 C 
BRANCH  22  23
HETATM   23  C19 UNL     1      -1.623  22.478   7.814  1.00  0.00     0.008 C 
BRANCH  23  24
HETATM   24  C20 UNL     1      -0.648  23.026   8.827  1.00  0.00     0.026 C 
BRANCH  24  25
HETATM   25  C21 UNL     1      -1.012  22.683  10.222  1.00  0.00     0.164 C 
BRANCH  25  26
HETATM   26  O2  UNL     1      -1.007  23.869  10.997  1.00  0.00    -0.401 OA
ATOM     27  H2  UNL     1      -1.660  23.788  11.682  1.00  0.00     0.209 HD
ENDBRANCH  25  26
ENDBRANCH  24  25
ENDBRANCH  23  24
ENDBRANCH  22  23
ENDBRANCH  12  22
BRANCH   8  28
HETATM   28  C9  UNL     1      -6.490  20.623   8.387  1.00  0.00     0.105 C 
BRANCH  28  29
HETATM   29  N5  UNL     1      -7.478  19.651   8.296  1.00  0.00    -0.369 N 
HETATM   30  C10 UNL     1      -7.232  18.329   8.731  1.00  0.00     0.127 C 
HETATM   31  C11 UNL     1      -7.071  17.469   7.467  1.00  0.00     0.020 C 
HETATM   32  C12 UNL     1      -8.473  17.147   6.999  1.00  0.00     0.002 C 
HETATM   33  C13 UNL     1      -8.979  18.071   5.941  1.00  0.00     0.005 C 
HETATM   34  C14 UNL     1      -8.616  19.515   6.158  1.00  0.00     0.044 C 
HETATM   35  C15 UNL     1      -8.682  19.913   7.611  1.00  0.00     0.063 C 
ENDBRANCH  28  29
ENDBRANCH   8  28
TORSDOF 8
ENDMDL
MODEL 2
REMARK VINA RESULT: -8.101060202      4.934      9.136
REMARK  8 active torsions:
REMARK  status: ('A' for Active; 'I' for Inactive)
REMARK       I    between atoms: C1_4  and  N3_6 
REMARK       I    between atoms: N3_6  and  C2_8 
REMARK    1  A    between atoms: C2_8  and  C3_10 
REMARK    2  A    between atoms: C8_17  and  C9_18 
REMARK    3  A    between atoms: C9_18  and  N5_19 
REMARK    4  A    between atoms: C17_29  and  C18_30 
REMARK    5  A    between atoms: C18_30  and  C19_31 
REMARK    6  A    between atoms: C19_31  and  C20_32 
REMARK    7  A    between atoms: C20_32  and  C21_33 
REMARK    8  A    between atoms: C21_33  and  O2_34 
ROOT
HETATM    1  C3  UNL     1      -2.203  27.551   9.830  1.00  0.00     0.055 A 
HETATM    2  C4  UNL     1      -0.934  28.114  10.031  1.00  0.00     0.034 A 
HETATM    3  C5  UNL     1      -0.834  29.235  10.793  1.00  0.00     0.008 A 
HETATM    4  C6  UNL     1       0.404  29.833  11.022  1.00  0.00     0.101 A 
HETATM    5  N4  UNL     1       0.496  30.926  11.767  1.00  0.00    -0.373 N 
ATOM      6  H4  UNL     1       1.411  31.349  11.923  1.00  0.00     0.164 HD
HETATM    7  C7  UNL     1      -0.604  31.496  12.328  1.00  0.00     0.102 A 
HETATM    8  C8  UNL     1      -1.832  30.929  12.121  1.00  0.00     0.022 A 
HETATM    9  C16 UNL     1      -1.975  29.773  11.340  1.00  0.00     0.057 A 
HETATM   10  N6  UNL     1      -3.187  29.227  11.145  1.00  0.00    -0.357 N 
ATOM     11  H6  UNL     1      -4.010  29.656  11.567  1.00  0.00     0.166 HD
HETATM   12  C17 UNL     1      -3.325  28.092  10.379  1.00  0.00     0.025 A 
ENDROOT
BRANCH   1  13
HETATM   13  C2  UNL     1      -2.203  26.409   8.945  1.00  0.00     0.260 C 
HETATM   14  N3  UNL     1      -1.778  25.125   9.431  1.00  0.00    -0.297 N 
HETATM   15  C1  UNL     1      -1.751  23.964   8.633  1.00  0.00     0.188 C 
ATOM     16  H3  UNL     1      -1.481  25.050  10.404  1.00  0.00     0.171 HD
HETATM   17  N1  UNL     1      -1.361  22.820   9.103  1.00  0.00    -0.373 N 
HETATM   18  N2  UNL     1      -2.153  24.009   7.269  1.00  0.00    -0.064 NA
ATOM     19  H12 UNL     1      -1.341  21.979   8.526  1.00  0.00     0.158 HD
ATOM     20  H11 UNL     1      -1.072  22.788  10.080  1.00  0.00     0.158 HD
HETATM   21  O1  UNL     1      -2.561  26.489   7.764  1.00  0.00    -0.267 OA
ENDBRANCH   1  13
BRANCH  12  22
HETATM   22  C18 UNL     1      -4.667  27.489  10.245  1.00  0.00     0.058 C 
BRANCH  22  23
HETATM   23  C19 UNL     1      -5.196  26.821  11.463  1.00  0.00     0.008 C 
BRANCH  23  24
HETATM   24  C20 UNL     1      -4.104  26.016  12.122  1.00  0.00     0.026 C 
BRANCH  24  25
HETATM   25  C21 UNL     1      -4.085  24.600  11.681  1.00  0.00     0.164 C 
BRANCH  25  26
HETATM   26  O2  UNL     1      -2.790  24.071  11.910  1.00  0.00    -0.401 OA
ATOM     27  H2  UNL     1      -2.876  23.169  12.194  1.00  0.00     0.209 HD
ENDBRANCH  25  26
ENDBRANCH  24  25
ENDBRANCH  23  24
ENDBRANCH  22  23
ENDBRANCH  12  22
BRANCH   8  28
HETATM   28  C9  UNL     1      -3.060  31.502  12.684  1.00  0.00     0.105 C 
BRANCH  28  29
HETATM   29  N5  UNL     1      -3.558  31.005  13.882  1.00  0.00    -0.369 N 
HETATM   30  C10 UNL     1      -2.724  30.280  14.763  1.00  0.00     0.127 C 
HETATM   31  C11 UNL     1      -3.129  28.802  14.641  1.00  0.00     0.020 C 
HETATM   32  C12 UNL     1      -4.351  28.630  15.517  1.00  0.00     0.002 C 
HETATM   33  C13 UNL     1      -5.641  28.732  14.771  1.00  0.00     0.005 C 
HETATM   34  C14 UNL     1      -5.663  29.810  13.722  1.00  0.00     0.044 C 
HETATM   35  C15 UNL     1      -4.938  31.057  14.162  1.00  0.00     0.063 C 
ENDBRANCH  28  29
ENDBRANCH   8  28
TORSDOF 8
ENDMDL
MODEL 3
REMARK VINA RESULT: -8.007554911      1.418      2.199
REMARK  8 active torsions:
REMARK  status: ('A' for Active; 'I' for Inactive)
REMARK       I    between atoms: C1_4  and  N3_6 
REMARK       I    between atoms: N3_6  and  C2_8 
REMARK    1  A    between atoms: C2_8  and  C3_10 
REMARK    2  A    between atoms: C8_17  and  C9_18 
REMARK    3  A    between atoms: C9_18  and  N5_19 
REMARK    4  A    between atoms: C17_29  and  C18_30 
REMARK    5  A    between atoms: C18_30  and  C19_31 
REMARK    6  A    between atoms: C19_31  and  C20_32 
REMARK    7  A    between atoms: C20_32  and  C21_33 
REMARK    8  A    between atoms: C21_33  and  O2_34 
ROOT
HETATM    1  C3  UNL     1      -3.747  24.572   9.261  1.00  0.00     0.055 A 
HETATM    2  C4  UNL     1      -4.969  24.724   9.932  1.00  0.00     0.034 A 
HETATM    3  C5  UNL     1      -5.807  23.657  10.006  1.00  0.00     0.008 A 
HETATM    4  C6  UNL     1      -7.034  23.758  10.661  1.00  0.00     0.101 A 
HETATM    5  N4  UNL     1      -7.847  22.714  10.729  1.00  0.00    -0.373 N 
ATOM      6  H4  UNL     1      -8.740  22.807  11.213  1.00  0.00     0.164 HD
HETATM    7  C7  UNL     1      -7.518  21.519  10.169  1.00  0.00     0.102 A 
HETATM    8  C8  UNL     1      -6.320  21.392   9.520  1.00  0.00     0.022 A 
HETATM    9  C16 UNL     1      -5.428  22.471   9.424  1.00  0.00     0.057 A 
HETATM   10  N6  UNL     1      -4.255  22.331   8.784  1.00  0.00    -0.357 N 
ATOM     11  H6  UNL     1      -4.010  21.434   8.365  1.00  0.00     0.166 HD
HETATM   12  C17 UNL     1      -3.382  23.390   8.691  1.00  0.00     0.025 A 
ENDROOT
BRANCH   1  13
HETATM   13  C2  UNL     1      -2.969  25.786   9.178  1.00  0.00     0.260 C 
HETATM   14  N3  UNL     1      -2.361  26.331  10.361  1.00  0.00    -0.297 N 
HETATM   15  C1  UNL     1      -1.588  27.508  10.364  1.00  0.00     0.188 C 
ATOM     16  H3  UNL     1      -2.497  25.840  11.245  1.00  0.00     0.171 HD
HETATM   17  N1  UNL     1      -1.054  27.973  11.450  1.00  0.00    -0.373 N 
HETATM   18  N2  UNL     1      -1.365  28.235   9.161  1.00  0.00    -0.064 NA
ATOM     19  H12 UNL     1      -0.494  28.826  11.453  1.00  0.00     0.158 HD
ATOM     20  H11 UNL     1      -1.214  27.452  12.312  1.00  0.00     0.158 HD
HETATM   21  O1  UNL     1      -2.797  26.389   8.112  1.00  0.00    -0.267 OA
ENDBRANCH   1  13
BRANCH  12  22
HETATM   22  C18 UNL     1      -2.075  23.174   8.036  1.00  0.00     0.058 C 
BRANCH  22  23
HETATM   23  C19 UNL     1      -2.103  23.102   6.552  1.00  0.00     0.008 C 
BRANCH  23  24
HETATM   24  C20 UNL     1      -1.003  22.193   6.061  1.00  0.00     0.026 C 
BRANCH  24  25
HETATM   25  C21 UNL     1      -1.037  21.987   4.594  1.00  0.00     0.164 C 
BRANCH  25  26
HETATM   26  O2  UNL     1      -1.808  23.022   4.008  1.00  0.00    -0.401 OA
ATOM     27  H2  UNL     1      -1.777  22.926   3.064  1.00  0.00     0.209 HD
ENDBRANCH  25  26
ENDBRANCH  24  25
ENDBRANCH  23  24
ENDBRANCH  22  23
ENDBRANCH  12  22
BRANCH   8  28
HETATM   28  C9  UNL     1      -5.910  20.137   8.880  1.00  0.00     0.105 C 
BRANCH  28  29
HETATM   29  N5  UNL     1      -6.725  19.568   7.910  1.00  0.00    -0.369 N 
HETATM   30  C10 UNL     1      -7.463  20.382   7.021  1.00  0.00     0.127 C 
HETATM   31  C11 UNL     1      -8.930  20.319   7.475  1.00  0.00     0.020 C 
HETATM   32  C12 UNL     1      -9.490  19.036   6.902  1.00  0.00     0.002 C 
HETATM   33  C13 UNL     1      -9.459  17.889   7.858  1.00  0.00     0.005 C 
HETATM   34  C14 UNL     1      -8.206  17.811   8.687  1.00  0.00     0.044 C 
HETATM   35  C15 UNL     1      -6.972  18.181   7.902  1.00  0.00     0.063 C 
ENDBRANCH  28  29
ENDBRANCH   8  28
TORSDOF 8
ENDMDL
MODEL 4
REMARK VINA RESULT: -7.997995116      0.941      1.729
REMARK  8 active torsions:
REMARK  status: ('A' for Active; 'I' for Inactive)
REMARK       I    between atoms: C1_4  and  N3_6 
REMARK       I    between atoms: N3_6  and  C2_8 
REMARK    1  A    between atoms: C2_8  and  C3_10 
REMARK    2  A    between atoms: C8_17  and  C9_18 
REMARK    3  A    between atoms: C9_18  and  N5_19 
REMARK    4  A    between atoms: C17_29  and  C18_30 
REMARK    5  A    between atoms: C18_30  and  C19_31 
REMARK    6  A    between atoms: C19_31  and  C20_32 
REMARK    7  A    between atoms: C20_32  and  C21_33 
REMARK    8  A    between atoms: C21_33  and  O2_34 
ROOT
HETATM    1  C3  UNL     1      -3.986  24.860   8.935  1.00  0.00     0.055 A 
HETATM    2  C4  UNL     1      -5.154  25.017   9.695  1.00  0.00     0.034 A 
HETATM    3  C5  UNL     1      -6.110  24.054   9.623  1.00  0.00     0.008 A 
HETATM    4  C6  UNL     1      -7.289  24.163  10.359  1.00  0.00     0.101 A 
HETATM    5  N4  UNL     1      -8.218  23.221  10.283  1.00  0.00    -0.373 N 
ATOM      6  H4  UNL     1      -9.074  23.319  10.829  1.00  0.00     0.164 HD
HETATM    7  C7  UNL     1      -8.056  22.125   9.495  1.00  0.00     0.102 A 
HETATM    8  C8  UNL     1      -6.908  21.992   8.763  1.00  0.00     0.022 A 
HETATM    9  C16 UNL     1      -5.898  22.964   8.811  1.00  0.00     0.057 A 
HETATM   10  N6  UNL     1      -4.776  22.820   8.087  1.00  0.00    -0.357 N 
ATOM     11  H6  UNL     1      -4.656  21.997   7.497  1.00  0.00     0.166 HD
HETATM   12  C17 UNL     1      -3.787  23.775   8.137  1.00  0.00     0.025 A 
ENDROOT
BRANCH   1  13
HETATM   13  C2  UNL     1      -3.072  25.975   9.028  1.00  0.00     0.260 C 
HETATM   14  N3  UNL     1      -2.666  26.464  10.318  1.00  0.00    -0.297 N 
HETATM   15  C1  UNL     1      -1.780  27.543  10.495  1.00  0.00     0.188 C 
ATOM     16  H3  UNL     1      -3.039  26.004  11.148  1.00  0.00     0.171 HD
HETATM   17  N1  UNL     1      -1.434  27.959  11.673  1.00  0.00    -0.373 N 
HETATM   18  N2  UNL     1      -1.228  28.223   9.372  1.00  0.00    -0.064 NA
ATOM     19  H12 UNL     1      -0.791  28.741  11.802  1.00  0.00     0.158 HD
ATOM     20  H11 UNL     1      -1.829  27.472  12.477  1.00  0.00     0.158 HD
HETATM   21  O1  UNL     1      -2.614  26.540   8.029  1.00  0.00    -0.267 OA
ENDBRANCH   1  13
BRANCH  12  22
HETATM   22  C18 UNL     1      -2.542  23.544   7.375  1.00  0.00     0.058 C 
BRANCH  22  23
HETATM   23  C19 UNL     1      -1.669  22.455   7.886  1.00  0.00     0.008 C 
BRANCH  23  24
HETATM   24  C20 UNL     1      -0.696  23.009   8.897  1.00  0.00     0.026 C 
BRANCH  24  25
HETATM   25  C21 UNL     1      -1.101  22.738  10.296  1.00  0.00     0.164 C 
BRANCH  25  26
HETATM   26  O2  UNL     1      -1.116  23.962  11.010  1.00  0.00    -0.401 OA
ATOM     27  H2  UNL     1      -1.640  24.590  10.526  1.00  0.00     0.209 HD
ENDBRANCH  25  26
ENDBRANCH  24  25
ENDBRANCH  23  24
ENDBRANCH  22  23
ENDBRANCH  12  22
BRANCH   8  28
HETATM   28  C9  UNL     1      -6.676  20.842   7.880  1.00  0.00     0.105 C 
BRANCH  28  29
HETATM   29  N5  UNL     1      -6.970  19.563   8.334  1.00  0.00    -0.369 N 
HETATM   30  C10 UNL     1      -8.140  18.897   7.906  1.00  0.00     0.127 C 
HETATM   31  C11 UNL     1      -9.124  18.925   9.087  1.00  0.00     0.020 C 
HETATM   32  C12 UNL     1      -8.710  17.793  10.002  1.00  0.00     0.002 C 
HETATM   33  C13 UNL     1      -7.822  18.223  11.122  1.00  0.00     0.005 C 
HETATM   34  C14 UNL     1      -6.783  19.237  10.731  1.00  0.00     0.044 C 
HETATM   35  C15 UNL     1      -6.207  18.973   9.363  1.00  0.00     0.063 C 
ENDBRANCH  28  29
ENDBRANCH   8  28
TORSDOF 8
ENDMDL
MODEL 5
REMARK VINA RESULT: -7.987227250      1.402      1.869
REMARK  8 active torsions:
REMARK  status: ('A' for Active; 'I' for Inactive)
REMARK       I    between atoms: C1_4  and  N3_6 
REMARK       I    between atoms: N3_6  and  C2_8 
REMARK    1  A    between atoms: C2_8  and  C3_10 
REMARK    2  A    between atoms: C8_17  and  C9_18 
REMARK    3  A    between atoms: C9_18  and  N5_19 
REMARK    4  A    between atoms: C17_29  and  C18_30 
REMARK    5  A    between atoms: C18_30  and  C19_31 
REMARK    6  A    between atoms: C19_31  and  C20_32 
REMARK    7  A    between atoms: C20_32  and  C21_33 
REMARK    8  A    between atoms: C21_33  and  O2_34 
ROOT
HETATM    1  C3  UNL     1      -4.036  25.059   9.584  1.00  0.00     0.055 A 
HETATM    2  C4  UNL     1      -5.364  25.509   9.631  1.00  0.00     0.034 A 
HETATM    3  C5  UNL     1      -6.361  24.587   9.673  1.00  0.00     0.008 A 
HETATM    4  C6  UNL     1      -7.696  24.983   9.721  1.00  0.00     0.101 A 
HETATM    5  N4  UNL     1      -8.665  24.079   9.762  1.00  0.00    -0.373 N 
ATOM      6  H4  UNL     1      -9.636  24.389   9.796  1.00  0.00     0.164 HD
HETATM    7  C7  UNL     1      -8.392  22.746   9.759  1.00  0.00     0.102 A 
HETATM    8  C8  UNL     1      -7.090  22.330   9.714  1.00  0.00     0.022 A 
HETATM    9  C16 UNL     1      -6.034  23.251   9.670  1.00  0.00     0.057 A 
HETATM   10  N6  UNL     1      -4.759  22.828   9.626  1.00  0.00    -0.357 N 
ATOM     11  H6  UNL     1      -4.557  21.828   9.625  1.00  0.00     0.166 HD
HETATM   12  C17 UNL     1      -3.725  23.734   9.583  1.00  0.00     0.025 A 
ENDROOT
BRANCH   1  13
HETATM   13  C2  UNL     1      -3.062  26.120   9.466  1.00  0.00     0.260 C 
HETATM   14  N3  UNL     1      -2.677  26.873  10.628  1.00  0.00    -0.297 N 
HETATM   15  C1  UNL     1      -1.736  27.920  10.598  1.00  0.00     0.188 C 
ATOM     16  H3  UNL     1      -3.109  26.637  11.522  1.00  0.00     0.171 HD
HETATM   17  N1  UNL     1      -1.412  28.580  11.666  1.00  0.00    -0.373 N 
HETATM   18  N2  UNL     1      -1.102  28.293   9.379  1.00  0.00    -0.064 NA
ATOM     19  H12 UNL     1      -0.729  29.338  11.644  1.00  0.00     0.158 HD
ATOM     20  H11 UNL     1      -1.866  28.313  12.538  1.00  0.00     0.158 HD
HETATM   21  O1  UNL     1      -2.532  26.414   8.388  1.00  0.00    -0.267 OA
ENDBRANCH   1  13
BRANCH  12  22
HETATM   22  C18 UNL     1      -2.338  23.224   9.603  1.00  0.00     0.058 C 
BRANCH  22  23
HETATM   23  C19 UNL     1      -2.037  22.141   8.631  1.00  0.00     0.008 C 
BRANCH  23  24
HETATM   24  C20 UNL     1      -1.112  22.658   7.557  1.00  0.00     0.026 C 
BRANCH  24  25
HETATM   25  C21 UNL     1      -1.802  22.890   6.265  1.00  0.00     0.164 C 
BRANCH  25  26
HETATM   26  O2  UNL     1      -2.530  24.103   6.352  1.00  0.00    -0.401 OA
ATOM     27  H2  UNL     1      -2.780  24.370   5.475  1.00  0.00     0.209 HD
ENDBRANCH  25  26
ENDBRANCH  24  25
ENDBRANCH  23  24
ENDBRANCH  22  23
ENDBRANCH  12  22
BRANCH   8  28
HETATM   28  C9  UNL     1      -6.727  20.907   9.693  1.00  0.00     0.105 C 
BRANCH  28  29
HETATM   29  N5  UNL     1      -7.611  19.987   9.145  1.00  0.00    -0.369 N 
HETATM   30  C10 UNL     1      -8.609  19.382   9.943  1.00  0.00     0.127 C 
HETATM   31  C11 UNL     1      -8.156  17.935  10.199  1.00  0.00     0.020 C 
HETATM   32  C12 UNL     1      -8.545  17.152   8.965  1.00  0.00     0.002 C 
HETATM   33  C13 UNL     1      -7.437  17.004   7.975  1.00  0.00     0.005 C 
HETATM   34  C14 UNL     1      -6.600  18.242   7.797  1.00  0.00     0.044 C 
HETATM   35  C15 UNL     1      -7.424  19.504   7.834  1.00  0.00     0.063 C 
ENDBRANCH  28  29
ENDBRANCH   8  28
TORSDOF 8
ENDMDL
