MODEL 1
REMARK VINA RESULT: -8.289090752      0.000      0.000
REMARK  8 active torsions:
REMARK  status: ('A' for Active; 'I' for Inactive)
REMARK    1  A    between atoms: C2_2  and  C3_3 
REMARK    2  A    between atoms: C3_3  and  C4_4 
REMARK    3  A    between atoms: C4_4  and  C5_5 
REMARK    4  A    between atoms: C5_5  and  C6_6 
REMARK    5  A    between atoms: C6_6  and  C7_7 
REMARK    6  A    between atoms: C15_24  and  N5_25 
REMARK    7  A    between atoms: N5_25  and  C16_27 
REMARK    8  A    between atoms: C21_32  and  N6_33 
ROOT
HETATM    1  C7  UNL     1      -2.670  24.024   9.296  1.00  0.00     0.041 A 
HETATM    2  N1  UNL     1      -1.473  24.723   9.253  1.00  0.00    -0.304 N 
ATOM      3  H1  UNL     1      -0.548  24.310   9.132  1.00  0.00     0.186 HD
HETATM    4  N2  UNL     1      -1.724  26.004   9.392  1.00  0.00    -0.304 N 
ATOM      5  H2  UNL     1      -1.014  26.735   9.398  1.00  0.00     0.186 HD
HETATM    6  C8  UNL     1      -3.039  26.220   9.527  1.00  0.00     0.038 A 
HETATM    7  C9  UNL     1      -3.769  27.493   9.705  1.00  0.00     0.070 C 
HETATM    8  C10 UNL     1      -3.652  24.944   9.460  1.00  0.00     0.056 A 
HETATM    9  C11 UNL     1      -5.090  24.802   9.442  1.00  0.00     0.122 C 
HETATM   10  N3  UNL     1      -5.824  25.811  10.033  1.00  0.00    -0.331 N 
ATOM     11  H3  UNL     1      -5.432  26.750   9.959  1.00  0.00     0.168 HD
HETATM   12  C12 UNL     1      -6.999  25.711  10.700  1.00  0.00     0.081 C 
HETATM   13  C13 UNL     1      -7.486  26.921  11.414  1.00  0.00     0.089 C 
HETATM   14  N4  UNL     1      -7.792  24.628  10.794  1.00  0.00    -0.310 N 
ATOM     15  H4  UNL     1      -8.687  24.774  11.261  1.00  0.00     0.170 HD
HETATM   16  C14 UNL     1      -7.555  23.359  10.348  1.00  0.00     0.290 C 
HETATM   17  O1  UNL     1      -8.131  22.487  11.025  1.00  0.00    -0.264 OA
HETATM   18  C15 UNL     1      -6.766  22.987   9.261  1.00  0.00     0.172 C 
HETATM   19  N7  UNL     1      -5.677  23.729   8.902  1.00  0.00    -0.323 N 
ATOM     20  H7  UNL     1      -5.221  23.399   8.051  1.00  0.00     0.169 HD
ENDROOT
BRANCH   1  21
HETATM   21  C6  UNL     1      -2.728  22.545   9.290  1.00  0.00     0.059 C 
BRANCH  21  22
HETATM   22  C5  UNL     1      -1.555  21.941   8.532  1.00  0.00     0.006 C 
BRANCH  22  23
HETATM   23  C4  UNL     1      -1.425  22.354   7.113  1.00  0.00     0.000 C 
BRANCH  23  24
HETATM   24  C3  UNL     1      -0.360  21.487   6.463  1.00  0.00    -0.000 C 
BRANCH  24  25
HETATM   25  C2  UNL     1      -0.496  21.468   4.968  1.00  0.00    -0.005 C 
HETATM   26  C1  UNL     1       0.311  20.273   4.466  1.00  0.00     0.005 C 
ENDBRANCH  24  25
ENDBRANCH  23  24
ENDBRANCH  22  23
ENDBRANCH  21  22
ENDBRANCH   1  21
BRANCH  18  27
HETATM   27  N5  UNL     1      -7.042  21.987   8.592  1.00  0.00    -0.365 N 
ATOM     28  H5  UNL     1      -7.962  22.077   8.160  1.00  0.00     0.161 HD
BRANCH  27  29
HETATM   29  C16 UNL     1      -6.445  20.761   8.258  1.00  0.00     0.113 C 
HETATM   30  C17 UNL     1      -5.889  20.025   9.477  1.00  0.00     0.027 C 
HETATM   31  C18 UNL     1      -6.911  19.424  10.347  1.00  0.00     0.002 C 
HETATM   32  C19 UNL     1      -8.162  18.935   9.710  1.00  0.00     0.002 C 
HETATM   33  C20 UNL     1      -8.549  19.600   8.442  1.00  0.00     0.035 C 
HETATM   34  C21 UNL     1      -7.388  19.811   7.528  1.00  0.00     0.206 C 
BRANCH  34  35
HETATM   35  N6  UNL     1      -6.632  18.598   7.278  1.00  0.00    -0.073 N 
ATOM     36  H63 UNL     1      -5.688  18.623   7.665  1.00  0.00     0.274 HD
ATOM     37  H62 UNL     1      -6.965  17.796   7.813  1.00  0.00     0.274 HD
ATOM     38  H61 UNL     1      -6.653  18.450   6.269  1.00  0.00     0.274 HD
ENDBRANCH  34  35
ENDBRANCH  27  29
ENDBRANCH  18  27
TORSDOF 8
ENDMDL
MODEL 2
REMARK VINA RESULT: -8.082333411      1.101      1.342
REMARK  8 active torsions:
REMARK  status: ('A' for Active; 'I' for Inactive)
REMARK    1  A    between atoms: C2_2  and  C3_3 
REMARK    2  A    between atoms: C3_3  and  C4_4 
REMARK    3  A    between atoms: C4_4  and  C5_5 
REMARK    4  A    between atoms: C5_5  and  C6_6 
REMARK    5  A    between atoms: C6_6  and  C7_7 
REMARK    6  A    between atoms: C15_24  and  N5_25 
REMARK    7  A    between atoms: N5_25  and  C16_27 
REMARK    8  A    between atoms: C21_32  and  N6_33 
ROOT
HETATM    1  C7  UNL     1      -2.825  24.856  10.414  1.00  0.00     0.041 A 
HETATM    2  N1  UNL     1      -1.667  25.610  10.294  1.00  0.00    -0.304 N 
ATOM      3  H1  UNL     1      -0.715  25.251  10.370  1.00  0.00     0.186 HD
HETATM    4  N2  UNL     1      -1.996  26.860  10.065  1.00  0.00    -0.304 N 
ATOM      5  H2  UNL     1      -1.328  27.620   9.939  1.00  0.00     0.186 HD
HETATM    6  C8  UNL     1      -3.327  27.003  10.020  1.00  0.00     0.038 A 
HETATM    7  C9  UNL     1      -4.135  28.219   9.788  1.00  0.00     0.070 C 
HETATM    8  C10 UNL     1      -3.864  25.709  10.241  1.00  0.00     0.056 A 
HETATM    9  C11 UNL     1      -5.283  25.458  10.133  1.00  0.00     0.122 C 
HETATM   10  N3  UNL     1      -6.126  26.527  10.367  1.00  0.00    -0.331 N 
ATOM     11  H3  UNL     1      -5.776  27.441  10.082  1.00  0.00     0.168 HD
HETATM   12  C12 UNL     1      -7.358  26.514  10.929  1.00  0.00     0.081 C 
HETATM   13  C13 UNL     1      -7.978  27.827  11.250  1.00  0.00     0.089 C 
HETATM   14  N4  UNL     1      -8.101  25.435  11.237  1.00  0.00    -0.310 N 
ATOM     15  H4  UNL     1      -9.047  25.628  11.567  1.00  0.00     0.170 HD
HETATM   16  C14 UNL     1      -7.755  24.116  11.167  1.00  0.00     0.290 C 
HETATM   17  O1  UNL     1      -8.354  23.408  11.997  1.00  0.00    -0.264 OA
HETATM   18  C15 UNL     1      -6.837  23.536  10.293  1.00  0.00     0.172 C 
HETATM   19  N7  UNL     1      -5.755  24.240   9.847  1.00  0.00    -0.323 N 
ATOM     20  H7  UNL     1      -5.195  23.737   9.159  1.00  0.00     0.169 HD
ENDROOT
BRANCH   1  21
HETATM   21  C6  UNL     1      -2.808  23.426  10.796  1.00  0.00     0.059 C 
BRANCH  21  22
HETATM   22  C5  UNL     1      -2.161  22.566   9.721  1.00  0.00     0.006 C 
BRANCH  22  23
HETATM   23  C4  UNL     1      -2.786  22.637   8.378  1.00  0.00     0.000 C 
BRANCH  23  24
HETATM   24  C3  UNL     1      -1.682  22.818   7.350  1.00  0.00    -0.000 C 
BRANCH  24  25
HETATM   25  C2  UNL     1      -0.611  21.776   7.497  1.00  0.00    -0.005 C 
HETATM   26  C1  UNL     1      -0.228  21.334   6.087  1.00  0.00     0.005 C 
ENDBRANCH  24  25
ENDBRANCH  23  24
ENDBRANCH  22  23
ENDBRANCH  21  22
ENDBRANCH   1  21
BRANCH  18  27
HETATM   27  N5  UNL     1      -6.990  22.378   9.891  1.00  0.00    -0.365 N 
ATOM     28  H5  UNL     1      -7.492  21.815  10.578  1.00  0.00     0.161 HD
BRANCH  27  29
HETATM   29  C16 UNL     1      -6.666  21.620   8.755  1.00  0.00     0.113 C 
HETATM   30  C17 UNL     1      -5.667  20.504   9.056  1.00  0.00     0.027 C 
HETATM   31  C18 UNL     1      -6.228  19.365   9.799  1.00  0.00     0.002 C 
HETATM   32  C19 UNL     1      -7.654  19.021   9.566  1.00  0.00     0.002 C 
HETATM   33  C20 UNL     1      -8.528  20.135   9.123  1.00  0.00     0.035 C 
HETATM   34  C21 UNL     1      -7.883  20.991   8.084  1.00  0.00     0.206 C 
BRANCH  34  35
HETATM   35  N6  UNL     1      -7.378  20.234   6.954  1.00  0.00    -0.073 N 
ATOM     36  H63 UNL     1      -7.615  20.647   6.052  1.00  0.00     0.274 HD
ATOM     37  H62 UNL     1      -6.365  20.284   6.852  1.00  0.00     0.274 HD
ATOM     38  H61 UNL     1      -7.727  19.282   7.068  1.00  0.00     0.274 HD
ENDBRANCH  34  35
ENDBRANCH  27  29
ENDBRANCH  18  27
TORSDOF 8
ENDMDL
MODEL 3
REMARK VINA RESULT: -7.843624003      1.113      1.270
REMARK  8 active torsions:
REMARK  status: ('A' for Active; 'I' for Inactive)
REMARK    1  A    between atoms: C2_2  and  C3_3 
REMARK    2  A    between atoms: C3_3  and  C4_4 
REMARK    3  A    between atoms: C4_4  and  C5_5 
REMARK    4  A    between atoms: C5_5  and  C6_6 
REMARK    5  A    between atoms: C6_6  and  C7_7 
REMARK    6  A    between atoms: C15_24  and  N5_25 
REMARK    7  A    between atoms: N5_25  and  C16_27 
REMARK    8  A    between atoms: C21_32  and  N6_33 
ROOT
HETATM    1  C7  UNL     1      -3.699  24.068   9.813  1.00  0.00     0.041 A 
HETATM    2  N1  UNL     1      -2.629  24.948   9.892  1.00  0.00    -0.304 N 
ATOM      3  H1  UNL     1      -1.647  24.699   9.775  1.00  0.00     0.186 HD
HETATM    4  N2  UNL     1      -3.087  26.152  10.143  1.00  0.00    -0.304 N 
ATOM      5  H2  UNL     1      -2.504  26.981  10.252  1.00  0.00     0.186 HD
HETATM    6  C8  UNL     1      -4.423  26.145  10.238  1.00  0.00     0.038 A 
HETATM    7  C9  UNL     1      -5.353  27.262  10.506  1.00  0.00     0.070 C 
HETATM    8  C10 UNL     1      -4.820  24.801  10.022  1.00  0.00     0.056 A 
HETATM    9  C11 UNL     1      -6.216  24.438   9.925  1.00  0.00     0.122 C 
HETATM   10  N3  UNL     1      -7.120  25.253  10.577  1.00  0.00    -0.331 N 
ATOM     11  H3  UNL     1      -6.882  26.244  10.611  1.00  0.00     0.168 HD
HETATM   12  C12 UNL     1      -8.282  24.902  11.176  1.00  0.00     0.081 C 
HETATM   13  C13 UNL     1      -8.978  25.941  11.981  1.00  0.00     0.089 C 
HETATM   14  N4  UNL     1      -8.893  23.704  11.130  1.00  0.00    -0.310 N 
ATOM     15  H4  UNL     1      -9.813  23.659  11.568  1.00  0.00     0.170 HD
HETATM   16  C14 UNL     1      -8.442  22.540  10.574  1.00  0.00     0.290 C 
HETATM   17  O1  UNL     1      -8.890  21.524  11.137  1.00  0.00    -0.264 OA
HETATM   18  C15 UNL     1      -7.572  22.410   9.494  1.00  0.00     0.172 C 
HETATM   19  N7  UNL     1      -6.606  23.347   9.257  1.00  0.00    -0.323 N 
ATOM     20  H7  UNL     1      -6.078  23.182   8.400  1.00  0.00     0.169 HD
ENDROOT
BRANCH   1  21
HETATM   21  C6  UNL     1      -3.518  22.607   9.662  1.00  0.00     0.059 C 
BRANCH  21  22
HETATM   22  C5  UNL     1      -2.672  22.270   8.444  1.00  0.00     0.006 C 
BRANCH  22  23
HETATM   23  C4  UNL     1      -1.287  21.820   8.727  1.00  0.00     0.000 C 
BRANCH  23  24
HETATM   24  C3  UNL     1      -0.519  21.797   7.417  1.00  0.00    -0.000 C 
BRANCH  24  25
HETATM   25  C2  UNL     1      -1.304  22.425   6.302  1.00  0.00    -0.005 C 
HETATM   26  C1  UNL     1      -0.813  21.790   5.003  1.00  0.00     0.005 C 
ENDBRANCH  24  25
ENDBRANCH  23  24
ENDBRANCH  22  23
ENDBRANCH  21  22
ENDBRANCH   1  21
BRANCH  18  27
HETATM   27  N5  UNL     1      -7.664  21.453   8.719  1.00  0.00    -0.365 N 
ATOM     28  H5  UNL     1      -8.596  21.403   8.306  1.00  0.00     0.161 HD
BRANCH  27  29
HETATM   29  C16 UNL     1      -6.846  20.415   8.247  1.00  0.00     0.113 C 
HETATM   30  C17 UNL     1      -5.914  19.861   9.324  1.00  0.00     0.027 C 
HETATM   31  C18 UNL     1      -6.580  19.032  10.340  1.00  0.00     0.002 C 
HETATM   32  C19 UNL     1      -7.759  18.232   9.918  1.00  0.00     0.002 C 
HETATM   33  C20 UNL     1      -8.521  18.760   8.760  1.00  0.00     0.035 C 
HETATM   34  C21 UNL     1      -7.633  19.246   7.663  1.00  0.00     0.206 C 
BRANCH  34  35
HETATM   35  N6  UNL     1      -6.651  18.262   7.246  1.00  0.00    -0.073 N 
ATOM     36  H63 UNL     1      -5.944  18.639   6.615  1.00  0.00     0.274 HD
ATOM     37  H62 UNL     1      -6.017  17.981   7.993  1.00  0.00     0.274 HD
ATOM     38  H61 UNL     1      -7.178  17.485   6.847  1.00  0.00     0.274 HD
ENDBRANCH  34  35
ENDBRANCH  27  29
ENDBRANCH  18  27
TORSDOF 8
ENDMDL
MODEL 4
REMARK VINA RESULT: -7.742282980      1.000      1.527
REMARK  8 active torsions:
REMARK  status: ('A' for Active; 'I' for Inactive)
REMARK    1  A    between atoms: C2_2  and  C3_3 
REMARK    2  A    between atoms: C3_3  and  C4_4 
REMARK    3  A    between atoms: C4_4  and  C5_5 
REMARK    4  A    between atoms: C5_5  and  C6_6 
REMARK    5  A    between atoms: C6_6  and  C7_7 
REMARK    6  A    between atoms: C15_24  and  N5_25 
REMARK    7  A    between atoms: N5_25  and  C16_27 
REMARK    8  A    between atoms: C21_32  and  N6_33 
ROOT
HETATM    1  C7  UNL     1      -2.735  24.467   9.728  1.00  0.00     0.041 A 
HETATM    2  N1  UNL     1      -1.539  25.161   9.629  1.00  0.00    -0.304 N 
ATOM      3  H1  UNL     1      -0.610  24.741   9.594  1.00  0.00     0.186 HD
HETATM    4  N2  UNL     1      -1.796  26.447   9.585  1.00  0.00    -0.304 N 
ATOM      5  H2  UNL     1      -1.088  27.177   9.514  1.00  0.00     0.186 HD
HETATM    6  C8  UNL     1      -3.115  26.673   9.647  1.00  0.00     0.038 A 
HETATM    7  C9  UNL     1      -3.852  27.954   9.629  1.00  0.00     0.070 C 
HETATM    8  C10 UNL     1      -3.723  25.395   9.735  1.00  0.00     0.056 A 
HETATM    9  C11 UNL     1      -5.160  25.244   9.691  1.00  0.00     0.122 C 
HETATM   10  N3  UNL     1      -5.914  26.319  10.117  1.00  0.00    -0.331 N 
ATOM     11  H3  UNL     1      -5.522  27.241   9.928  1.00  0.00     0.168 HD
HETATM   12  C12 UNL     1      -7.109  26.304  10.753  1.00  0.00     0.081 C 
HETATM   13  C13 UNL     1      -7.621  27.597  11.281  1.00  0.00     0.089 C 
HETATM   14  N4  UNL     1      -7.904  25.239  10.969  1.00  0.00    -0.310 N 
ATOM     15  H4  UNL     1      -8.813  25.441  11.383  1.00  0.00     0.170 HD
HETATM   16  C14 UNL     1      -7.651  23.922  10.706  1.00  0.00     0.290 C 
HETATM   17  O1  UNL     1      -8.246  23.147  11.476  1.00  0.00    -0.264 OA
HETATM   18  C15 UNL     1      -6.827  23.411   9.705  1.00  0.00     0.172 C 
HETATM   19  N7  UNL     1      -5.728  24.104   9.283  1.00  0.00    -0.323 N 
ATOM     20  H7  UNL     1      -5.244  23.664   8.500  1.00  0.00     0.169 HD
ENDROOT
BRANCH   1  21
HETATM   21  C6  UNL     1      -2.791  23.001   9.921  1.00  0.00     0.059 C 
BRANCH  21  22
HETATM   22  C5  UNL     1      -2.628  22.255   8.605  1.00  0.00     0.006 C 
BRANCH  22  23
HETATM   23  C4  UNL     1      -1.240  21.870   8.251  1.00  0.00     0.000 C 
BRANCH  23  24
HETATM   24  C3  UNL     1      -1.030  22.158   6.774  1.00  0.00    -0.000 C 
BRANCH  24  25
HETATM   25  C2  UNL     1      -0.053  21.200   6.155  1.00  0.00    -0.005 C 
HETATM   26  C1  UNL     1      -0.274  21.258   4.645  1.00  0.00     0.005 C 
ENDBRANCH  24  25
ENDBRANCH  23  24
ENDBRANCH  22  23
ENDBRANCH  21  22
ENDBRANCH   1  21
BRANCH  18  27
HETATM   27  N5  UNL     1      -7.079  22.328   9.169  1.00  0.00    -0.365 N 
ATOM     28  H5  UNL     1      -6.367  22.085   8.480  1.00  0.00     0.161 HD
BRANCH  27  29
HETATM   29  C16 UNL     1      -8.072  21.338   9.241  1.00  0.00     0.113 C 
HETATM   30  C17 UNL     1      -8.530  20.861   7.864  1.00  0.00     0.027 C 
HETATM   31  C18 UNL     1      -7.563  20.005   7.160  1.00  0.00     0.002 C 
HETATM   32  C19 UNL     1      -6.690  19.125   7.980  1.00  0.00     0.002 C 
HETATM   33  C20 UNL     1      -6.421  19.586   9.365  1.00  0.00     0.035 C 
HETATM   34  C21 UNL     1      -7.642  20.112  10.042  1.00  0.00     0.206 C 
BRANCH  34  35
HETATM   35  N6  UNL     1      -8.760  19.188  10.001  1.00  0.00    -0.073 N 
ATOM     36  H63 UNL     1      -8.883  18.664  10.868  1.00  0.00     0.274 HD
ATOM     37  H62 UNL     1      -9.668  19.650  10.003  1.00  0.00     0.274 HD
ATOM     38  H61 UNL     1      -8.610  18.593   9.186  1.00  0.00     0.274 HD
ENDBRANCH  34  35
ENDBRANCH  27  29
ENDBRANCH  18  27
TORSDOF 8
ENDMDL
MODEL 5
REMARK VINA RESULT: -7.656435883      1.870      2.957
REMARK  8 active torsions:
REMARK  status: ('A' for Active; 'I' for Inactive)
REMARK    1  A    between atoms: C2_2  and  C3_3 
REMARK    2  A    between atoms: C3_3  and  C4_4 
REMARK    3  A    between atoms: C4_4  and  C5_5 
REMARK    4  A    between atoms: C5_5  and  C6_6 
REMARK    5  A    between atoms: C6_6  and  C7_7 
REMARK    6  A    between atoms: C15_24  and  N5_25 
REMARK    7  A    between atoms: N5_25  and  C16_27 
REMARK    8  A    between atoms: C21_32  and  N6_33 
ROOT
HETATM    1  C7  UNL     1      -4.620  23.442   9.068  1.00  0.00     0.041 A 
HETATM    2  N1  UNL     1      -4.133  24.733   8.924  1.00  0.00    -0.304 N 
ATOM      3  H1  UNL     1      -3.175  24.981   8.677  1.00  0.00     0.186 HD
HETATM    4  N2  UNL     1      -5.105  25.583   9.156  1.00  0.00    -0.304 N 
ATOM      5  H2  UNL     1      -5.009  26.597   9.118  1.00  0.00     0.186 HD
HETATM    6  C8  UNL     1      -6.242  24.938   9.452  1.00  0.00     0.038 A 
HETATM    7  C9  UNL     1      -7.575  25.486   9.778  1.00  0.00     0.070 C 
HETATM    8  C10 UNL     1      -5.932  23.556   9.391  1.00  0.00     0.056 A 
HETATM    9  C11 UNL     1      -6.960  22.550   9.531  1.00  0.00     0.122 C 
HETATM   10  N3  UNL     1      -8.083  22.901  10.254  1.00  0.00    -0.331 N 
ATOM     11  H3  UNL     1      -8.371  23.877  10.183  1.00  0.00     0.168 HD
HETATM   12  C12 UNL     1      -8.849  22.114  11.044  1.00  0.00     0.081 C 
HETATM   13  C13 UNL     1      -9.891  22.780  11.871  1.00  0.00     0.089 C 
HETATM   14  N4  UNL     1      -8.779  20.776  11.174  1.00  0.00    -0.310 N 
ATOM     15  H4  UNL     1      -9.506  20.348  11.748  1.00  0.00     0.170 HD
HETATM   16  C14 UNL     1      -7.862  19.916  10.639  1.00  0.00     0.290 C 
HETATM   17  O1  UNL     1      -7.684  18.898  11.332  1.00  0.00    -0.264 OA
HETATM   18  C15 UNL     1      -7.153  20.082   9.452  1.00  0.00     0.172 C 
HETATM   19  N7  UNL     1      -6.814  21.328   9.007  1.00  0.00    -0.323 N 
ATOM     20  H7  UNL     1      -6.359  21.327   8.094  1.00  0.00     0.169 HD
ENDROOT
BRANCH   1  21
HETATM   21  C6  UNL     1      -3.748  22.249   8.993  1.00  0.00     0.059 C 
BRANCH  21  22
HETATM   22  C5  UNL     1      -2.535  22.496   8.108  1.00  0.00     0.006 C 
BRANCH  22  23
HETATM   23  C4  UNL     1      -1.274  21.853   8.550  1.00  0.00     0.000 C 
BRANCH  23  24
HETATM   24  C3  UNL     1      -0.298  21.874   7.387  1.00  0.00    -0.000 C 
BRANCH  24  25
HETATM   25  C2  UNL     1      -1.003  22.052   6.073  1.00  0.00    -0.005 C 
HETATM   26  C1  UNL     1      -0.248  21.209   5.048  1.00  0.00     0.005 C 
ENDBRANCH  24  25
ENDBRANCH  23  24
ENDBRANCH  22  23
ENDBRANCH  21  22
ENDBRANCH   1  21
BRANCH  18  27
HETATM   27  N5  UNL     1      -6.827  19.107   8.768  1.00  0.00    -0.365 N 
ATOM     28  H5  UNL     1      -6.214  18.480   9.290  1.00  0.00     0.161 HD
BRANCH  27  29
HETATM   29  C16 UNL     1      -7.063  18.619   7.473  1.00  0.00     0.113 C 
HETATM   30  C17 UNL     1      -6.741  17.131   7.335  1.00  0.00     0.027 C 
HETATM   31  C18 UNL     1      -7.713  16.233   7.977  1.00  0.00     0.002 C 
HETATM   32  C19 UNL     1      -9.133  16.668   8.022  1.00  0.00     0.002 C 
HETATM   33  C20 UNL     1      -9.365  18.133   7.994  1.00  0.00     0.035 C 
HETATM   34  C21 UNL     1      -8.497  18.832   7.001  1.00  0.00     0.206 C 
BRANCH  34  35
HETATM   35  N6  UNL     1      -8.578  18.259   5.670  1.00  0.00    -0.073 N 
ATOM     36  H63 UNL     1      -9.206  18.768   5.048  1.00  0.00     0.274 HD
ATOM     37  H62 UNL     1      -7.727  18.387   5.122  1.00  0.00     0.274 HD
ATOM     38  H61 UNL     1      -8.836  17.280   5.795  1.00  0.00     0.274 HD
ENDBRANCH  34  35
ENDBRANCH  27  29
ENDBRANCH  18  27
TORSDOF 8
ENDMDL
