MODEL 1
REMARK VINA RESULT: -8.465412983      0.000      0.000
REMARK  11 active torsions:
REMARK  status: ('A' for Active; 'I' for Inactive)
REMARK    1  A    between atoms: C2_2  and  O1_3 
REMARK    2  A    between atoms: C2_2  and  C3_5 
REMARK    3  A    between atoms: C3_5  and  O2_7 
REMARK    4  A    between atoms: C3_5  and  C5_9 
REMARK    5  A    between atoms: C5_9  and  C6_10 
REMARK    6  A    between atoms: C7_13  and  S1_14 
REMARK    7  A    between atoms: S1_14  and  N2_17 
REMARK    8  A    between atoms: N2_17  and  C9_19 
REMARK    9  A    between atoms: C9_19  and  N3_20 
REMARK   10  A    between atoms: N3_20  and  N4_22 
REMARK   11  A    between atoms: N4_22  and  C10_24 
ROOT
HETATM    1  C6  UNL     1      23.214  47.020   5.948  1.00  0.00     0.100 A 
HETATM    2  N1  UNL     1      22.585  46.090   6.707  1.00  0.00    -0.319 N 
ATOM      3  H1  UNL     1      21.686  46.204   7.175  1.00  0.00     0.169 HD
HETATM    4  C7  UNL     1      23.357  44.992   6.732  1.00  0.00     0.240 A 
HETATM    5  N7  UNL     1      24.438  45.281   5.989  1.00  0.00    -0.273 N 
ATOM      6  H7  UNL     1      25.214  44.641   5.816  1.00  0.00     0.189 HD
HETATM    7  N8  UNL     1      24.356  46.496   5.517  1.00  0.00    -0.287 N 
ATOM      8  H8  UNL     1      25.045  46.959   4.924  1.00  0.00     0.188 HD
ENDROOT
BRANCH   4   9
HETATM    9  S1  UNL     1      23.074  43.465   7.548  1.00  0.00     0.298 S 
HETATM   10  O3  UNL     1      21.738  42.898   7.163  1.00  0.00    -0.197 OA
HETATM   11  O4  UNL     1      24.172  42.492   7.205  1.00  0.00    -0.197 OA
BRANCH   9  12
HETATM   12  N2  UNL     1      23.050  43.803   9.234  1.00  0.00    -0.269 N 
HETATM   13  C8  UNL     1      23.326  45.163   9.659  1.00  0.00     0.170 C 
BRANCH  12  14
HETATM   14  C9  UNL     1      22.765  42.758  10.142  1.00  0.00     0.210 C 
BRANCH  14  15
HETATM   15  N3  UNL     1      22.098  41.740   9.737  1.00  0.00    -0.293 N 
ATOM     16  H3  UNL     1      22.581  40.948   9.314  1.00  0.00     0.187 HD
BRANCH  15  17
HETATM   17  N4  UNL     1      20.726  41.716   9.876  1.00  0.00    -0.271 N 
ATOM     18  H4  UNL     1      20.252  42.442  10.412  1.00  0.00     0.190 HD
BRANCH  17  19
HETATM   19  C10 UNL     1      19.977  40.676   9.268  1.00  0.00     0.190 C 
HETATM   20  N5  UNL     1      19.569  40.661   8.045  1.00  0.00    -0.360 N 
HETATM   21  C11 UNL     1      18.841  39.453   7.771  1.00  0.00     0.142 C 
ATOM     22  H5  UNL     1      19.739  41.404   7.366  1.00  0.00     0.162 HD
HETATM   23  C12 UNL     1      18.490  38.933   9.143  1.00  0.00     0.142 C 
HETATM   24  N6  UNL     1      19.559  39.490   9.933  1.00  0.00    -0.360 N 
ATOM     25  H6  UNL     1      19.940  39.109  10.798  1.00  0.00     0.162 HD
ENDBRANCH  17  19
ENDBRANCH  15  17
ENDBRANCH  14  15
ENDBRANCH  12  14
ENDBRANCH   9  12
ENDBRANCH   4   9
BRANCH   1  26
HETATM   26  C5  UNL     1      22.741  48.396   5.632  1.00  0.00     0.118 C 
BRANCH  26  27
HETATM   27  C3  UNL     1      23.560  49.425   6.416  1.00  0.00     0.086 C 
HETATM   28  C4  UNL     1      23.441  49.143   7.884  1.00  0.00     0.049 C 
BRANCH  27  29
HETATM   29  C2  UNL     1      23.151  50.815   6.048  1.00  0.00     0.148 C 
HETATM   30  C1  UNL     1      22.128  50.852   4.946  1.00  0.00     0.042 C 
BRANCH  29  31
HETATM   31  O1  UNL     1      24.286  51.488   5.575  1.00  0.00    -0.393 OA
ATOM     32  H1  UNL     1      24.967  51.378   6.229  1.00  0.00     0.210 HD
ENDBRANCH  29  31
ENDBRANCH  27  29
BRANCH  27  33
HETATM   33  O2  UNL     1      24.892  49.232   6.053  1.00  0.00    -0.387 OA
ATOM     34  H2  UNL     1      24.923  48.839   5.190  1.00  0.00     0.210 HD
ENDBRANCH  27  33
ENDBRANCH  26  27
ENDBRANCH   1  26
TORSDOF 11
ENDMDL
MODEL 2
REMARK VINA RESULT: -8.444337116      3.317      9.092
REMARK  11 active torsions:
REMARK  status: ('A' for Active; 'I' for Inactive)
REMARK    1  A    between atoms: C2_2  and  O1_3 
REMARK    2  A    between atoms: C2_2  and  C3_5 
REMARK    3  A    between atoms: C3_5  and  O2_7 
REMARK    4  A    between atoms: C3_5  and  C5_9 
REMARK    5  A    between atoms: C5_9  and  C6_10 
REMARK    6  A    between atoms: C7_13  and  S1_14 
REMARK    7  A    between atoms: S1_14  and  N2_17 
REMARK    8  A    between atoms: N2_17  and  C9_19 
REMARK    9  A    between atoms: C9_19  and  N3_20 
REMARK   10  A    between atoms: N3_20  and  N4_22 
REMARK   11  A    between atoms: N4_22  and  C10_24 
ROOT
HETATM    1  C6  UNL     1      24.002  44.966   7.075  1.00  0.00     0.100 A 
HETATM    2  N1  UNL     1      23.530  46.157   7.517  1.00  0.00    -0.319 N 
ATOM      3  H1  UNL     1      23.019  46.317   8.385  1.00  0.00     0.169 HD
HETATM    4  C7  UNL     1      23.855  47.089   6.607  1.00  0.00     0.240 A 
HETATM    5  N7  UNL     1      24.516  46.442   5.632  1.00  0.00    -0.273 N 
ATOM      6  H7  UNL     1      24.895  46.883   4.794  1.00  0.00     0.189 HD
HETATM    7  N8  UNL     1      24.606  45.169   5.909  1.00  0.00    -0.287 N 
ATOM      8  H8  UNL     1      25.058  44.458   5.334  1.00  0.00     0.188 HD
ENDROOT
BRANCH   4   9
HETATM    9  S1  UNL     1      23.517  48.810   6.624  1.00  0.00     0.298 S 
HETATM   10  O3  UNL     1      23.207  49.276   8.017  1.00  0.00    -0.197 OA
HETATM   11  O4  UNL     1      24.696  49.567   6.072  1.00  0.00    -0.197 OA
BRANCH   9  12
HETATM   12  N2  UNL     1      22.118  49.048   5.653  1.00  0.00    -0.269 N 
HETATM   13  C8  UNL     1      21.109  48.005   5.646  1.00  0.00     0.170 C 
BRANCH  12  14
HETATM   14  C9  UNL     1      21.996  50.239   4.901  1.00  0.00     0.210 C 
BRANCH  14  15
HETATM   15  N3  UNL     1      22.092  51.371   5.498  1.00  0.00    -0.293 N 
ATOM     16  H3  UNL     1      21.321  51.711   6.072  1.00  0.00     0.187 HD
BRANCH  15  17
HETATM   17  N4  UNL     1      23.237  52.126   5.363  1.00  0.00    -0.271 N 
ATOM     18  H4  UNL     1      23.712  52.180   4.463  1.00  0.00     0.190 HD
BRANCH  17  19
HETATM   19  C10 UNL     1      23.752  52.828   6.483  1.00  0.00     0.190 C 
HETATM   20  N5  UNL     1      23.871  52.353   7.676  1.00  0.00    -0.360 N 
HETATM   21  C11 UNL     1      24.430  53.341   8.558  1.00  0.00     0.142 C 
ATOM     22  H5  UNL     1      23.606  51.409   7.955  1.00  0.00     0.162 HD
HETATM   23  C12 UNL     1      24.222  54.637   7.814  1.00  0.00     0.142 C 
HETATM   24  N6  UNL     1      24.209  54.174   6.449  1.00  0.00    -0.360 N 
ATOM     25  H6  UNL     1      24.474  54.708   5.621  1.00  0.00     0.162 HD
ENDBRANCH  17  19
ENDBRANCH  15  17
ENDBRANCH  14  15
ENDBRANCH  12  14
ENDBRANCH   9  12
ENDBRANCH   4   9
BRANCH   1  26
HETATM   26  C5  UNL     1      23.882  43.643   7.748  1.00  0.00     0.118 C 
BRANCH  26  27
HETATM   27  C3  UNL     1      22.408  43.322   8.015  1.00  0.00     0.086 C 
HETATM   28  C4  UNL     1      21.980  43.979   9.293  1.00  0.00     0.049 C 
BRANCH  27  29
HETATM   29  C2  UNL     1      22.181  41.844   8.006  1.00  0.00     0.148 C 
HETATM   30  C1  UNL     1      21.054  41.420   8.906  1.00  0.00     0.042 C 
BRANCH  29  31
HETATM   31  O1  UNL     1      23.343  41.226   8.485  1.00  0.00    -0.393 OA
ATOM     32  H1  UNL     1      23.513  41.584   9.349  1.00  0.00     0.210 HD
ENDBRANCH  29  31
ENDBRANCH  27  29
BRANCH  27  33
HETATM   33  O2  UNL     1      21.682  43.900   6.976  1.00  0.00    -0.387 OA
ATOM     34  H2  UNL     1      20.778  43.614   7.034  1.00  0.00     0.210 HD
ENDBRANCH  27  33
ENDBRANCH  26  27
ENDBRANCH   1  26
TORSDOF 11
ENDMDL
MODEL 3
REMARK VINA RESULT: -8.299667545      2.819      3.962
REMARK  11 active torsions:
REMARK  status: ('A' for Active; 'I' for Inactive)
REMARK    1  A    between atoms: C2_2  and  O1_3 
REMARK    2  A    between atoms: C2_2  and  C3_5 
REMARK    3  A    between atoms: C3_5  and  O2_7 
REMARK    4  A    between atoms: C3_5  and  C5_9 
REMARK    5  A    between atoms: C5_9  and  C6_10 
REMARK    6  A    between atoms: C7_13  and  S1_14 
REMARK    7  A    between atoms: S1_14  and  N2_17 
REMARK    8  A    between atoms: N2_17  and  C9_19 
REMARK    9  A    between atoms: C9_19  and  N3_20 
REMARK   10  A    between atoms: N3_20  and  N4_22 
REMARK   11  A    between atoms: N4_22  and  C10_24 
ROOT
HETATM    1  C6  UNL     1      22.949  45.582   6.737  1.00  0.00     0.100 A 
HETATM    2  N1  UNL     1      23.577  44.799   7.647  1.00  0.00    -0.319 N 
ATOM      3  H1  UNL     1      24.454  45.013   8.122  1.00  0.00     0.169 HD
HETATM    4  C7  UNL     1      22.839  43.690   7.811  1.00  0.00     0.240 A 
HETATM    5  N7  UNL     1      21.779  43.825   6.997  1.00  0.00    -0.273 N 
ATOM      6  H7  UNL     1      21.031  43.139   6.896  1.00  0.00     0.189 HD
HETATM    7  N8  UNL     1      21.842  44.958   6.351  1.00  0.00    -0.287 N 
ATOM      8  H8  UNL     1      21.163  45.302   5.671  1.00  0.00     0.188 HD
ENDROOT
BRANCH   4   9
HETATM    9  S1  UNL     1      23.139  42.312   8.855  1.00  0.00     0.298 S 
HETATM   10  O3  UNL     1      24.080  41.345   8.199  1.00  0.00    -0.197 OA
HETATM   11  O4  UNL     1      23.706  42.782  10.170  1.00  0.00    -0.197 OA
BRANCH   9  12
HETATM   12  N2  UNL     1      21.626  41.525   9.080  1.00  0.00    -0.269 N 
HETATM   13  C8  UNL     1      21.314  40.396   8.224  1.00  0.00     0.170 C 
BRANCH  12  14
HETATM   14  C9  UNL     1      20.747  41.996  10.081  1.00  0.00     0.210 C 
BRANCH  14  15
HETATM   15  N3  UNL     1      20.902  41.599  11.291  1.00  0.00    -0.293 N 
ATOM     16  H3  UNL     1      20.474  40.726  11.600  1.00  0.00     0.187 HD
BRANCH  15  17
HETATM   17  N4  UNL     1      21.646  42.352  12.174  1.00  0.00    -0.271 N 
ATOM     18  H4  UNL     1      22.295  43.057  11.825  1.00  0.00     0.190 HD
BRANCH  17  19
HETATM   19  C10 UNL     1      21.504  42.143  13.569  1.00  0.00     0.190 C 
HETATM   20  N5  UNL     1      22.145  41.265  14.265  1.00  0.00    -0.360 N 
HETATM   21  C11 UNL     1      21.753  41.333  15.645  1.00  0.00     0.142 C 
ATOM     22  H5  UNL     1      22.833  40.614  13.887  1.00  0.00     0.162 HD
HETATM   23  C12 UNL     1      20.450  42.093  15.606  1.00  0.00     0.142 C 
HETATM   24  N6  UNL     1      20.621  42.876  14.408  1.00  0.00    -0.360 N 
ATOM     25  H6  UNL     1      20.192  43.778  14.203  1.00  0.00     0.162 HD
ENDBRANCH  17  19
ENDBRANCH  15  17
ENDBRANCH  14  15
ENDBRANCH  12  14
ENDBRANCH   9  12
ENDBRANCH   4   9
BRANCH   1  26
HETATM   26  C5  UNL     1      23.392  46.913   6.234  1.00  0.00     0.118 C 
BRANCH  26  27
HETATM   27  C3  UNL     1      22.378  47.988   6.636  1.00  0.00     0.086 C 
HETATM   28  C4  UNL     1      21.419  48.216   5.506  1.00  0.00     0.049 C 
BRANCH  27  29
HETATM   29  C2  UNL     1      23.078  49.234   7.076  1.00  0.00     0.148 C 
HETATM   30  C1  UNL     1      24.343  49.497   6.306  1.00  0.00     0.042 C 
BRANCH  29  31
HETATM   31  O1  UNL     1      23.442  49.072   8.419  1.00  0.00    -0.393 OA
ATOM     32  H1  UNL     1      22.729  49.414   8.944  1.00  0.00     0.210 HD
ENDBRANCH  29  31
ENDBRANCH  27  29
BRANCH  27  33
HETATM   33  O2  UNL     1      21.654  47.471   7.709  1.00  0.00    -0.387 OA
ATOM     34  H2  UNL     1      21.508  46.543   7.565  1.00  0.00     0.210 HD
ENDBRANCH  27  33
ENDBRANCH  26  27
ENDBRANCH   1  26
TORSDOF 11
ENDMDL
MODEL 4
REMARK VINA RESULT: -8.269668955      3.034      8.813
REMARK  11 active torsions:
REMARK  status: ('A' for Active; 'I' for Inactive)
REMARK    1  A    between atoms: C2_2  and  O1_3 
REMARK    2  A    between atoms: C2_2  and  C3_5 
REMARK    3  A    between atoms: C3_5  and  O2_7 
REMARK    4  A    between atoms: C3_5  and  C5_9 
REMARK    5  A    between atoms: C5_9  and  C6_10 
REMARK    6  A    between atoms: C7_13  and  S1_14 
REMARK    7  A    between atoms: S1_14  and  N2_17 
REMARK    8  A    between atoms: N2_17  and  C9_19 
REMARK    9  A    between atoms: C9_19  and  N3_20 
REMARK   10  A    between atoms: N3_20  and  N4_22 
REMARK   11  A    between atoms: N4_22  and  C10_24 
ROOT
HETATM    1  C6  UNL     1      23.244  44.261   8.034  1.00  0.00     0.100 A 
HETATM    2  N1  UNL     1      23.391  45.574   8.335  1.00  0.00    -0.319 N 
ATOM      3  H1  UNL     1      23.644  45.957   9.246  1.00  0.00     0.169 HD
HETATM    4  C7  UNL     1      23.144  46.280   7.221  1.00  0.00     0.240 A 
HETATM    5  N7  UNL     1      22.851  45.379   6.267  1.00  0.00    -0.273 N 
ATOM      6  H7  UNL     1      22.617  45.609   5.301  1.00  0.00     0.189 HD
HETATM    7  N8  UNL     1      22.910  44.168   6.751  1.00  0.00    -0.287 N 
ATOM      8  H8  UNL     1      22.731  43.305   6.237  1.00  0.00     0.188 HD
ENDROOT
BRANCH   4   9
HETATM    9  S1  UNL     1      23.177  48.019   6.988  1.00  0.00     0.298 S 
HETATM   10  O3  UNL     1      23.059  48.732   8.304  1.00  0.00    -0.197 OA
HETATM   11  O4  UNL     1      24.453  48.416   6.292  1.00  0.00    -0.197 OA
BRANCH   9  12
HETATM   12  N2  UNL     1      21.802  48.415   6.035  1.00  0.00    -0.269 N 
HETATM   13  C8  UNL     1      20.565  47.703   6.297  1.00  0.00     0.170 C 
BRANCH  12  14
HETATM   14  C9  UNL     1      21.918  49.412   5.040  1.00  0.00     0.210 C 
BRANCH  14  15
HETATM   15  N3  UNL     1      22.034  50.640   5.391  1.00  0.00    -0.293 N 
ATOM     16  H3  UNL     1      21.219  51.154   5.726  1.00  0.00     0.187 HD
BRANCH  15  17
HETATM   17  N4  UNL     1      23.260  51.266   5.316  1.00  0.00    -0.271 N 
ATOM     18  H4  UNL     1      23.788  51.256   4.444  1.00  0.00     0.190 HD
BRANCH  17  19
HETATM   19  C10 UNL     1      23.783  51.926   6.458  1.00  0.00     0.190 C 
HETATM   20  N5  UNL     1      24.025  51.374   7.598  1.00  0.00    -0.360 N 
HETATM   21  C11 UNL     1      24.550  52.338   8.524  1.00  0.00     0.142 C 
ATOM     22  H5  UNL     1      23.865  50.389   7.812  1.00  0.00     0.162 HD
HETATM   23  C12 UNL     1      24.178  53.662   7.904  1.00  0.00     0.142 C 
HETATM   24  N6  UNL     1      24.114  53.308   6.508  1.00  0.00    -0.360 N 
ATOM     25  H6  UNL     1      24.274  53.927   5.714  1.00  0.00     0.162 HD
ENDBRANCH  17  19
ENDBRANCH  15  17
ENDBRANCH  14  15
ENDBRANCH  12  14
ENDBRANCH   9  12
ENDBRANCH   4   9
BRANCH   1  26
HETATM   26  C5  UNL     1      23.416  43.100   8.951  1.00  0.00     0.118 C 
BRANCH  26  27
HETATM   27  C3  UNL     1      22.189  42.963   9.858  1.00  0.00     0.086 C 
HETATM   28  C4  UNL     1      22.634  42.882  11.287  1.00  0.00     0.049 C 
BRANCH  27  29
HETATM   29  C2  UNL     1      21.350  41.800   9.434  1.00  0.00     0.148 C 
HETATM   30  C1  UNL     1      22.003  40.964   8.368  1.00  0.00     0.042 C 
BRANCH  29  31
HETATM   31  O1  UNL     1      20.160  42.302   8.891  1.00  0.00    -0.393 OA
ATOM     32  H1  UNL     1      19.519  41.602   8.930  1.00  0.00     0.210 HD
ENDBRANCH  29  31
ENDBRANCH  27  29
BRANCH  27  33
HETATM   33  O2  UNL     1      21.451  44.135   9.707  1.00  0.00    -0.387 OA
ATOM     34  H2  UNL     1      22.031  44.881   9.805  1.00  0.00     0.210 HD
ENDBRANCH  27  33
ENDBRANCH  26  27
ENDBRANCH   1  26
TORSDOF 11
ENDMDL
MODEL 5
REMARK VINA RESULT: -8.219246116      1.827      2.292
REMARK  11 active torsions:
REMARK  status: ('A' for Active; 'I' for Inactive)
REMARK    1  A    between atoms: C2_2  and  O1_3 
REMARK    2  A    between atoms: C2_2  and  C3_5 
REMARK    3  A    between atoms: C3_5  and  O2_7 
REMARK    4  A    between atoms: C3_5  and  C5_9 
REMARK    5  A    between atoms: C5_9  and  C6_10 
REMARK    6  A    between atoms: C7_13  and  S1_14 
REMARK    7  A    between atoms: S1_14  and  N2_17 
REMARK    8  A    between atoms: N2_17  and  C9_19 
REMARK    9  A    between atoms: C9_19  and  N3_20 
REMARK   10  A    between atoms: N3_20  and  N4_22 
REMARK   11  A    between atoms: N4_22  and  C10_24 
ROOT
HETATM    1  C6  UNL     1      23.003  46.862   5.770  1.00  0.00     0.100 A 
HETATM    2  N1  UNL     1      22.430  45.891   6.524  1.00  0.00    -0.319 N 
ATOM      3  H1  UNL     1      21.483  45.905   6.903  1.00  0.00     0.169 HD
HETATM    4  C7  UNL     1      23.332  44.910   6.682  1.00  0.00     0.240 A 
HETATM    5  N7  UNL     1      24.433  45.307   6.022  1.00  0.00    -0.273 N 
ATOM      6  H7  UNL     1      25.298  44.770   5.956  1.00  0.00     0.189 HD
HETATM    7  N8  UNL     1      24.239  46.476   5.474  1.00  0.00    -0.287 N 
ATOM      8  H8  UNL     1      24.916  47.000   4.919  1.00  0.00     0.188 HD
ENDROOT
BRANCH   4   9
HETATM    9  S1  UNL     1      23.172  43.398   7.557  1.00  0.00     0.298 S 
HETATM   10  O3  UNL     1      21.900  42.697   7.177  1.00  0.00    -0.197 OA
HETATM   11  O4  UNL     1      24.359  42.515   7.271  1.00  0.00    -0.197 OA
BRANCH   9  12
HETATM   12  N2  UNL     1      23.087  43.801   9.227  1.00  0.00    -0.269 N 
HETATM   13  C8  UNL     1      23.296  45.186   9.603  1.00  0.00     0.170 C 
BRANCH  12  14
HETATM   14  C9  UNL     1      22.818  42.781  10.168  1.00  0.00     0.210 C 
BRANCH  14  15
HETATM   15  N3  UNL     1      22.176  41.735   9.795  1.00  0.00    -0.293 N 
ATOM     16  H3  UNL     1      22.677  40.952   9.376  1.00  0.00     0.187 HD
BRANCH  15  17
HETATM   17  N4  UNL     1      20.809  41.671   9.960  1.00  0.00    -0.271 N 
ATOM     18  H4  UNL     1      20.330  42.360  10.538  1.00  0.00     0.190 HD
BRANCH  17  19
HETATM   19  C10 UNL     1      20.072  40.641   9.320  1.00  0.00     0.190 C 
HETATM   20  N5  UNL     1      19.575  40.702   8.131  1.00  0.00    -0.360 N 
HETATM   21  C11 UNL     1      18.893  39.480   7.807  1.00  0.00     0.142 C 
ATOM     22  H5  UNL     1      19.655  41.506   7.508  1.00  0.00     0.162 HD
HETATM   23  C12 UNL     1      18.673  38.831   9.151  1.00  0.00     0.142 C 
HETATM   24  N6  UNL     1      19.768  39.384   9.909  1.00  0.00    -0.360 N 
ATOM     25  H6  UNL     1      20.232  38.956  10.710  1.00  0.00     0.162 HD
ENDBRANCH  17  19
ENDBRANCH  15  17
ENDBRANCH  14  15
ENDBRANCH  12  14
ENDBRANCH   9  12
ENDBRANCH   4   9
BRANCH   1  26
HETATM   26  C5  UNL     1      22.388  48.146   5.334  1.00  0.00     0.118 C 
BRANCH  26  27
HETATM   27  C3  UNL     1      20.993  47.888   4.756  1.00  0.00     0.086 C 
HETATM   28  C4  UNL     1      20.536  49.098   3.999  1.00  0.00     0.049 C 
BRANCH  27  29
HETATM   29  C2  UNL     1      20.045  47.474   5.836  1.00  0.00     0.148 C 
HETATM   30  C1  UNL     1      18.630  47.909   5.571  1.00  0.00     0.042 C 
BRANCH  29  31
HETATM   31  O1  UNL     1      20.448  48.095   7.026  1.00  0.00    -0.393 OA
ATOM     32  H1  UNL     1      21.141  47.562   7.397  1.00  0.00     0.210 HD
ENDBRANCH  29  31
ENDBRANCH  27  29
BRANCH  27  33
HETATM   33  O2  UNL     1      21.127  46.842   3.845  1.00  0.00    -0.387 OA
ATOM     34  H2  UNL     1      22.041  46.588   3.797  1.00  0.00     0.210 HD
ENDBRANCH  27  33
ENDBRANCH  26  27
ENDBRANCH   1  26
TORSDOF 11
ENDMDL
