MODEL 1
REMARK VINA RESULT: -6.507850016      0.000      0.000
REMARK  9 active torsions:
REMARK  status: ('A' for Active; 'I' for Inactive)
REMARK    1  A    between atoms: C2_2  and  O1_5 
REMARK    2  A    between atoms: O1_5  and  C5_6 
REMARK    3  A    between atoms: C5_6  and  O2_7 
REMARK    4  A    between atoms: C6_10  and  C7_11 
REMARK    5  A    between atoms: C7_11  and  C8_13 
REMARK    6  A    between atoms: C9_14  and  N1_15 
REMARK    7  A    between atoms: C10_18  and  O5_19 
REMARK    8  A    between atoms: C11_21  and  O6_22 
REMARK    9  A    between atoms: C12_24  and  O7_25 
ROOT
HETATM    1  C5  UNL     1       1.475  28.349  -5.773  1.00  0.00     0.311 C 
HETATM    2  O3  UNL     1       0.750  28.325  -4.615  1.00  0.00    -0.314 OA
HETATM    3  C6  UNL     1       0.032  27.202  -4.368  1.00  0.00     0.241 C 
HETATM    4  C10 UNL     1      -0.820  26.735  -5.524  1.00  0.00     0.187 C 
HETATM    5  C11 UNL     1      -0.079  26.810  -6.819  1.00  0.00     0.186 C 
HETATM    6  C12 UNL     1       0.495  28.206  -6.947  1.00  0.00     0.242 C 
ENDROOT
BRANCH   1   7
HETATM    7  O1  UNL     1       2.066  29.574  -5.901  1.00  0.00    -0.321 OA
BRANCH   7   8
HETATM    8  C2  UNL     1       3.140  29.831  -5.116  1.00  0.00     0.056 C 
HETATM    9  C1  UNL     1       2.863  29.963  -3.649  1.00  0.00     0.045 C 
HETATM   10  C3  UNL     1       3.704  31.191  -5.563  1.00  0.00     0.045 C 
HETATM   11  C4  UNL     1       4.250  28.830  -5.350  1.00  0.00     0.045 C 
ENDBRANCH   7   8
ENDBRANCH   1   7
BRANCH   1  12
HETATM   12  O2  UNL     1       2.346  27.275  -5.925  1.00  0.00    -0.341 OA
ATOM     13  H2  UNL     1       2.975  27.379  -6.628  1.00  0.00     0.215 HD
ENDBRANCH   1  12
BRANCH   6  14
HETATM   14  O7  UNL     1       1.281  28.227  -8.102  1.00  0.00    -0.385 OA
ATOM     15  H7  UNL     1       1.158  29.089  -8.482  1.00  0.00     0.210 HD
ENDBRANCH   6  14
BRANCH   3  16
HETATM   16  C7  UNL     1      -0.882  27.430  -3.223  1.00  0.00     0.235 C 
HETATM   17  O4  UNL     1      -2.115  27.283  -3.397  1.00  0.00    -0.280 OA
BRANCH  16  18
HETATM   18  C8  UNL     1      -0.399  27.811  -1.926  1.00  0.00    -0.003 C 
HETATM   19  C9  UNL     1      -0.007  28.124  -0.822  1.00  0.00     0.011 C 
BRANCH  19  20
HETATM   20  N1  UNL     1       0.440  28.489   0.449  1.00  0.00    -0.359 N 
ATOM     21  H12 UNL     1       0.069  28.002  -0.368  1.00  0.00     0.166 HD
ATOM     22  H11 UNL     1       0.767  28.761   1.376  1.00  0.00     0.166 HD
ENDBRANCH  19  20
ENDBRANCH  16  18
ENDBRANCH   3  16
BRANCH   5  23
HETATM   23  O6  UNL     1      -0.894  26.472  -7.873  1.00  0.00    -0.390 OA
ATOM     24  H6  UNL     1      -0.399  26.416  -8.682  1.00  0.00     0.210 HD
ENDBRANCH   5  23
BRANCH   4  25
HETATM   25  O5  UNL     1      -1.156  25.397  -5.261  1.00  0.00    -0.390 OA
ATOM     26  H5  UNL     1      -2.090  25.380  -5.085  1.00  0.00     0.210 HD
ENDBRANCH   4  25
TORSDOF 9
ENDMDL
MODEL 2
REMARK VINA RESULT: -6.400711437      2.178      4.646
REMARK  9 active torsions:
REMARK  status: ('A' for Active; 'I' for Inactive)
REMARK    1  A    between atoms: C2_2  and  O1_5 
REMARK    2  A    between atoms: O1_5  and  C5_6 
REMARK    3  A    between atoms: C5_6  and  O2_7 
REMARK    4  A    between atoms: C6_10  and  C7_11 
REMARK    5  A    between atoms: C7_11  and  C8_13 
REMARK    6  A    between atoms: C9_14  and  N1_15 
REMARK    7  A    between atoms: C10_18  and  O5_19 
REMARK    8  A    between atoms: C11_21  and  O6_22 
REMARK    9  A    between atoms: C12_24  and  O7_25 
ROOT
HETATM    1  C5  UNL     1      -0.183  27.066  -2.938  1.00  0.00     0.311 C 
HETATM    2  O3  UNL     1       0.769  27.380  -3.868  1.00  0.00    -0.314 OA
HETATM    3  C6  UNL     1       0.351  27.493  -5.152  1.00  0.00     0.241 C 
HETATM    4  C10 UNL     1      -0.493  26.340  -5.642  1.00  0.00     0.187 C 
HETATM    5  C11 UNL     1      -1.502  25.926  -4.622  1.00  0.00     0.186 C 
HETATM    6  C12 UNL     1      -0.776  25.699  -3.312  1.00  0.00     0.242 C 
ENDROOT
BRANCH   1   7
HETATM    7  O1  UNL     1       0.420  26.913  -1.721  1.00  0.00    -0.321 OA
BRANCH   7   8
HETATM    8  C2  UNL     1       0.963  28.017  -1.154  1.00  0.00     0.056 C 
HETATM    9  C1  UNL     1       1.662  28.958  -2.087  1.00  0.00     0.045 C 
HETATM   10  C3  UNL     1       2.035  27.528  -0.164  1.00  0.00     0.045 C 
HETATM   11  C4  UNL     1      -0.052  28.767  -0.319  1.00  0.00     0.045 C 
ENDBRANCH   7   8
ENDBRANCH   1   7
BRANCH   1  12
HETATM   12  O2  UNL     1      -1.279  27.921  -2.930  1.00  0.00    -0.341 OA
ATOM     13  H2  UNL     1      -1.867  27.796  -2.194  1.00  0.00     0.215 HD
ENDBRANCH   1  12
BRANCH   6  14
HETATM   14  O7  UNL     1      -1.744  25.427  -2.343  1.00  0.00    -0.385 OA
ATOM     15  H7  UNL     1      -1.543  24.559  -2.013  1.00  0.00     0.210 HD
ENDBRANCH   6  14
BRANCH   3  16
HETATM   16  C7  UNL     1       1.523  27.584  -6.056  1.00  0.00     0.235 C 
HETATM   17  O4  UNL     1       1.531  26.896  -7.105  1.00  0.00    -0.280 OA
BRANCH  16  18
HETATM   18  C8  UNL     1       2.643  28.434  -5.769  1.00  0.00    -0.003 C 
HETATM   19  C9  UNL     1       3.581  29.159  -5.511  1.00  0.00     0.011 C 
BRANCH  19  20
HETATM   20  N1  UNL     1       4.656  29.998  -5.215  1.00  0.00    -0.359 N 
ATOM     21  H12 UNL     1       3.877  29.340  -5.184  1.00  0.00     0.166 HD
ATOM     22  H11 UNL     1       5.442  30.613  -5.004  1.00  0.00     0.166 HD
ENDBRANCH  19  20
ENDBRANCH  16  18
ENDBRANCH   3  16
BRANCH   5  23
HETATM   23  O6  UNL     1      -2.199  24.818  -5.042  1.00  0.00    -0.390 OA
ATOM     24  H6  UNL     1      -3.002  24.712  -4.544  1.00  0.00     0.210 HD
ENDBRANCH   5  23
BRANCH   4  25
HETATM   25  O5  UNL     1      -1.157  26.789  -6.794  1.00  0.00    -0.390 OA
ATOM     26  H5  UNL     1      -2.076  26.575  -6.680  1.00  0.00     0.210 HD
ENDBRANCH   4  25
TORSDOF 9
ENDMDL
MODEL 3
REMARK VINA RESULT: -6.374171825      2.240      4.413
REMARK  9 active torsions:
REMARK  status: ('A' for Active; 'I' for Inactive)
REMARK    1  A    between atoms: C2_2  and  O1_5 
REMARK    2  A    between atoms: O1_5  and  C5_6 
REMARK    3  A    between atoms: C5_6  and  O2_7 
REMARK    4  A    between atoms: C6_10  and  C7_11 
REMARK    5  A    between atoms: C7_11  and  C8_13 
REMARK    6  A    between atoms: C9_14  and  N1_15 
REMARK    7  A    between atoms: C10_18  and  O5_19 
REMARK    8  A    between atoms: C11_21  and  O6_22 
REMARK    9  A    between atoms: C12_24  and  O7_25 
ROOT
HETATM    1  C5  UNL     1       1.234  28.034  -3.354  1.00  0.00     0.311 C 
HETATM    2  O3  UNL     1       0.142  27.677  -4.096  1.00  0.00    -0.314 OA
HETATM    3  C6  UNL     1       0.383  27.155  -5.323  1.00  0.00     0.241 C 
HETATM    4  C10 UNL     1       1.345  27.955  -6.169  1.00  0.00     0.187 C 
HETATM    5  C11 UNL     1       2.521  28.420  -5.373  1.00  0.00     0.186 C 
HETATM    6  C12 UNL     1       1.999  29.116  -4.133  1.00  0.00     0.242 C 
ENDROOT
BRANCH   1   7
HETATM    7  O1  UNL     1       0.811  28.612  -2.191  1.00  0.00    -0.321 OA
BRANCH   7   8
HETATM    8  C2  UNL     1       0.655  27.803  -1.116  1.00  0.00     0.056 C 
HETATM    9  C1  UNL     1      -0.059  26.509  -1.366  1.00  0.00     0.045 C 
HETATM   10  C3  UNL     1      -0.206  28.572  -0.100  1.00  0.00     0.045 C 
HETATM   11  C4  UNL     1       1.975  27.545  -0.422  1.00  0.00     0.045 C 
ENDBRANCH   7   8
ENDBRANCH   1   7
BRANCH   1  12
HETATM   12  O2  UNL     1       2.166  27.017  -3.182  1.00  0.00    -0.341 OA
ATOM     13  H2  UNL     1       2.406  26.567  -3.983  1.00  0.00     0.215 HD
ENDBRANCH   1  12
BRANCH   6  14
HETATM   14  O7  UNL     1       3.105  29.440  -3.343  1.00  0.00    -0.385 OA
ATOM     15  H7  UNL     1       3.556  30.138  -3.804  1.00  0.00     0.210 HD
ENDBRANCH   6  14
BRANCH   3  16
HETATM   16  C7  UNL     1      -0.884  27.057  -6.086  1.00  0.00     0.235 C 
HETATM   17  O4  UNL     1      -0.852  27.211  -7.331  1.00  0.00    -0.280 OA
BRANCH  16  18
HETATM   18  C8  UNL     1      -2.142  26.793  -5.446  1.00  0.00    -0.003 C 
HETATM   19  C9  UNL     1      -3.210  26.585  -4.912  1.00  0.00     0.011 C 
BRANCH  19  20
HETATM   20  N1  UNL     1      -4.439  26.352  -4.293  1.00  0.00    -0.359 N 
ATOM     21  H12 UNL     1      -3.670  26.467  -4.954  1.00  0.00     0.166 HD
ATOM     22  H11 UNL     1      -5.336  26.183  -3.836  1.00  0.00     0.166 HD
ENDBRANCH  19  20
ENDBRANCH  16  18
ENDBRANCH   3  16
BRANCH   5  23
HETATM   23  O6  UNL     1       3.339  29.225  -6.129  1.00  0.00    -0.390 OA
ATOM     24  H6  UNL     1       4.248  28.961  -6.044  1.00  0.00     0.210 HD
ENDBRANCH   5  23
BRANCH   4  25
HETATM   25  O5  UNL     1       1.787  27.102  -7.192  1.00  0.00    -0.390 OA
ATOM     26  H5  UNL     1       1.584  27.534  -8.014  1.00  0.00     0.210 HD
ENDBRANCH   4  25
TORSDOF 9
ENDMDL
MODEL 4
REMARK VINA RESULT: -6.336931552      1.616      1.919
REMARK  9 active torsions:
REMARK  status: ('A' for Active; 'I' for Inactive)
REMARK    1  A    between atoms: C2_2  and  O1_5 
REMARK    2  A    between atoms: O1_5  and  C5_6 
REMARK    3  A    between atoms: C5_6  and  O2_7 
REMARK    4  A    between atoms: C6_10  and  C7_11 
REMARK    5  A    between atoms: C7_11  and  C8_13 
REMARK    6  A    between atoms: C9_14  and  N1_15 
REMARK    7  A    between atoms: C10_18  and  O5_19 
REMARK    8  A    between atoms: C11_21  and  O6_22 
REMARK    9  A    between atoms: C12_24  and  O7_25 
ROOT
HETATM    1  C5  UNL     1       1.462  28.805  -7.120  1.00  0.00     0.311 C 
HETATM    2  O3  UNL     1       1.412  28.636  -5.765  1.00  0.00    -0.314 OA
HETATM    3  C6  UNL     1       0.962  27.439  -5.316  1.00  0.00     0.241 C 
HETATM    4  C10 UNL     1      -0.332  26.979  -5.944  1.00  0.00     0.187 C 
HETATM    5  C11 UNL     1      -0.339  27.209  -7.420  1.00  0.00     0.186 C 
HETATM    6  C12 UNL     1       0.034  28.657  -7.668  1.00  0.00     0.242 C 
ENDROOT
BRANCH   1   7
HETATM    7  O1  UNL     1       1.857  30.084  -7.394  1.00  0.00    -0.321 OA
BRANCH   7   8
HETATM    8  C2  UNL     1       3.124  30.428  -7.059  1.00  0.00     0.056 C 
HETATM    9  C1  UNL     1       3.785  29.570  -6.023  1.00  0.00     0.045 C 
HETATM   10  C3  UNL     1       3.058  31.842  -6.457  1.00  0.00     0.045 C 
HETATM   11  C4  UNL     1       4.008  30.544  -8.282  1.00  0.00     0.045 C 
ENDBRANCH   7   8
ENDBRANCH   1   7
BRANCH   1  12
HETATM   12  O2  UNL     1       2.187  27.826  -7.792  1.00  0.00    -0.341 OA
ATOM     13  H2  UNL     1       1.921  26.937  -7.592  1.00  0.00     0.215 HD
ENDBRANCH   1  12
BRANCH   6  14
HETATM   14  O7  UNL     1       0.138  28.827  -9.050  1.00  0.00    -0.385 OA
ATOM     15  H7  UNL     1      -0.270  28.061  -9.436  1.00  0.00     0.210 HD
ENDBRANCH   6  14
BRANCH   3  16
HETATM   16  C7  UNL     1       0.732  27.504  -3.852  1.00  0.00     0.235 C 
HETATM   17  O4  UNL     1      -0.097  26.717  -3.337  1.00  0.00    -0.280 OA
BRANCH  16  18
HETATM   18  C8  UNL     1       1.427  28.437  -3.012  1.00  0.00    -0.003 C 
HETATM   19  C9  UNL     1       2.024  29.232  -2.317  1.00  0.00     0.011 C 
BRANCH  19  20
HETATM   20  N1  UNL     1       2.716  30.143  -1.518  1.00  0.00    -0.359 N 
ATOM     21  H12 UNL     1       2.275  29.315  -1.920  1.00  0.00     0.166 HD
ATOM     22  H11 UNL     1       3.222  30.813  -0.938  1.00  0.00     0.166 HD
ENDBRANCH  19  20
ENDBRANCH  16  18
ENDBRANCH   3  16
BRANCH   5  23
HETATM   23  O6  UNL     1      -1.555  26.874  -7.965  1.00  0.00    -0.390 OA
ATOM     24  H6  UNL     1      -1.493  26.788  -8.909  1.00  0.00     0.210 HD
ENDBRANCH   5  23
BRANCH   4  25
HETATM   25  O5  UNL     1      -0.434  25.601  -5.691  1.00  0.00    -0.390 OA
ATOM     26  H5  UNL     1      -0.239  25.159  -6.509  1.00  0.00     0.210 HD
ENDBRANCH   4  25
TORSDOF 9
ENDMDL
MODEL 5
REMARK VINA RESULT: -6.278559984      2.810      4.223
REMARK  9 active torsions:
REMARK  status: ('A' for Active; 'I' for Inactive)
REMARK    1  A    between atoms: C2_2  and  O1_5 
REMARK    2  A    between atoms: O1_5  and  C5_6 
REMARK    3  A    between atoms: C5_6  and  O2_7 
REMARK    4  A    between atoms: C6_10  and  C7_11 
REMARK    5  A    between atoms: C7_11  and  C8_13 
REMARK    6  A    between atoms: C9_14  and  N1_15 
REMARK    7  A    between atoms: C10_18  and  O5_19 
REMARK    8  A    between atoms: C11_21  and  O6_22 
REMARK    9  A    between atoms: C12_24  and  O7_25 
ROOT
HETATM    1  C5  UNL     1       0.926  27.940  -3.191  1.00  0.00     0.311 C 
HETATM    2  O3  UNL     1      -0.404  27.712  -3.406  1.00  0.00    -0.314 OA
HETATM    3  C6  UNL     1      -0.719  26.748  -4.305  1.00  0.00     0.241 C 
HETATM    4  C10 UNL     1       0.009  26.856  -5.624  1.00  0.00     0.187 C 
HETATM    5  C11 UNL     1       1.456  27.171  -5.429  1.00  0.00     0.186 C 
HETATM    6  C12 UNL     1       1.551  28.383  -4.524  1.00  0.00     0.242 C 
ENDROOT
BRANCH   1   7
HETATM    7  O1  UNL     1       1.062  28.990  -2.327  1.00  0.00    -0.321 OA
BRANCH   7   8
HETATM    8  C2  UNL     1       1.000  28.715  -1.002  1.00  0.00     0.056 C 
HETATM    9  C1  UNL     1      -0.373  28.678  -0.403  1.00  0.00     0.045 C 
HETATM   10  C3  UNL     1       1.748  29.847  -0.276  1.00  0.00     0.045 C 
HETATM   11  C4  UNL     1       1.752  27.446  -0.664  1.00  0.00     0.045 C 
ENDBRANCH   7   8
ENDBRANCH   1   7
BRANCH   1  12
HETATM   12  O2  UNL     1       1.651  26.808  -2.835  1.00  0.00    -0.341 OA
ATOM     13  H2  UNL     1       2.328  26.567  -3.457  1.00  0.00     0.215 HD
ENDBRANCH   1  12
BRANCH   6  14
HETATM   14  O7  UNL     1       2.905  28.594  -4.256  1.00  0.00    -0.385 OA
ATOM     15  H7  UNL     1       3.144  29.379  -4.735  1.00  0.00     0.210 HD
ENDBRANCH   6  14
BRANCH   3  16
HETATM   16  C7  UNL     1      -2.170  26.796  -4.608  1.00  0.00     0.235 C 
HETATM   17  O4  UNL     1      -2.987  26.571  -3.684  1.00  0.00    -0.280 OA
BRANCH  16  18
HETATM   18  C8  UNL     1      -2.665  27.093  -5.922  1.00  0.00    -0.003 C 
HETATM   19  C9  UNL     1      -3.100  27.346  -7.026  1.00  0.00     0.011 C 
BRANCH  19  20
HETATM   20  N1  UNL     1      -3.605  27.633  -8.295  1.00  0.00    -0.359 N 
ATOM     21  H12 UNL     1      -3.413  27.245  -7.371  1.00  0.00     0.166 HD
ATOM     22  H11 UNL     1      -3.970  27.847  -9.223  1.00  0.00     0.166 HD
ENDBRANCH  19  20
ENDBRANCH  16  18
ENDBRANCH   3  16
BRANCH   5  23
HETATM   23  O6  UNL     1       2.085  27.360  -6.636  1.00  0.00    -0.390 OA
ATOM     24  H6  UNL     1       2.911  27.816  -6.522  1.00  0.00     0.210 HD
ENDBRANCH   5  23
BRANCH   4  25
HETATM   25  O5  UNL     1      -0.111  25.607  -6.253  1.00  0.00    -0.390 OA
ATOM     26  H5  UNL     1      -0.972  25.586  -6.656  1.00  0.00     0.210 HD
ENDBRANCH   4  25
TORSDOF 9
ENDMDL
