MODEL 1
REMARK VINA RESULT: -6.653463016      0.000      0.000
REMARK  5 active torsions:
REMARK  status: ('A' for Active; 'I' for Inactive)
REMARK    1  A    between atoms: O1_1  and  C1_3 
REMARK    2  A    between atoms: C1_3  and  C2_4 
REMARK    3  A    between atoms: C2_4  and  C3_5 
REMARK    4  A    between atoms: C6_8  and  C7_9 
REMARK    5  A    between atoms: C7_9  and  N1_10 
ROOT
HETATM    1  C3  UNL     1      40.741  71.442  38.560  1.00  0.00    -0.056 A 
HETATM    2  C4  UNL     1      39.560  72.004  38.994  1.00  0.00     0.008 A 
HETATM    3  C5  UNL     1      38.383  71.518  38.506  1.00  0.00     0.009 A 
HETATM    4  C6  UNL     1      38.313  70.484  37.595  1.00  0.00    -0.040 A 
HETATM    5  C13 UNL     1      39.488  69.919  37.158  1.00  0.00     0.009 A 
HETATM    6  C14 UNL     1      40.680  70.401  37.642  1.00  0.00     0.008 A 
ENDROOT
BRANCH   4   7
HETATM    7  C7  UNL     1      36.981  70.048  37.144  1.00  0.00     0.166 C 
BRANCH   7   8
HETATM    8  N1  UNL     1      36.359  70.941  36.212  1.00  0.00    -0.362 N 
HETATM    9  C8  UNL     1      37.001  71.414  35.131  1.00  0.00     0.090 A 
HETATM   10  C9  UNL     1      36.376  72.286  34.233  1.00  0.00     0.017 A 
HETATM   11  C10 UNL     1      35.083  72.670  34.454  1.00  0.00     0.003 A 
HETATM   12  C11 UNL     1      34.432  72.178  35.569  1.00  0.00     0.017 A 
HETATM   13  C12 UNL     1      35.091  71.328  36.415  1.00  0.00     0.090 A 
ENDBRANCH   7   8
ENDBRANCH   4   7
BRANCH   1  14
HETATM   14  C2  UNL     1      42.057  71.933  39.060  1.00  0.00     0.064 C 
BRANCH  14  15
HETATM   15  C1  UNL     1      41.856  73.013  40.121  1.00  0.00     0.168 C 
BRANCH  15  16
HETATM   16  O1  UNL     1      42.697  74.075  39.742  1.00  0.00    -0.401 OA
ATOM     17  H1  UNL     1      43.558  73.851  40.077  1.00  0.00     0.209 HD
ENDBRANCH  15  16
ENDBRANCH  14  15
ENDBRANCH   1  14
TORSDOF 5
ENDMDL
MODEL 2
REMARK VINA RESULT: -6.644362693      0.071      1.188
REMARK  5 active torsions:
REMARK  status: ('A' for Active; 'I' for Inactive)
REMARK    1  A    between atoms: O1_1  and  C1_3 
REMARK    2  A    between atoms: C1_3  and  C2_4 
REMARK    3  A    between atoms: C2_4  and  C3_5 
REMARK    4  A    between atoms: C6_8  and  C7_9 
REMARK    5  A    between atoms: C7_9  and  N1_10 
ROOT
HETATM    1  C3  UNL     1      40.799  71.442  38.560  1.00  0.00    -0.056 A 
HETATM    2  C4  UNL     1      40.719  70.396  37.667  1.00  0.00     0.008 A 
HETATM    3  C5  UNL     1      39.491  69.996  37.232  1.00  0.00     0.009 A 
HETATM    4  C6  UNL     1      38.315  70.590  37.640  1.00  0.00    -0.040 A 
HETATM    5  C13 UNL     1      38.387  71.636  38.531  1.00  0.00     0.009 A 
HETATM    6  C14 UNL     1      39.619  72.047  38.977  1.00  0.00     0.008 A 
ENDROOT
BRANCH   4   7
HETATM    7  C7  UNL     1      37.050  70.067  37.097  1.00  0.00     0.166 C 
BRANCH   7   8
HETATM    8  N1  UNL     1      36.404  70.950  36.172  1.00  0.00    -0.362 N 
HETATM    9  C8  UNL     1      37.025  71.432  35.083  1.00  0.00     0.090 A 
HETATM   10  C9  UNL     1      36.377  72.292  34.192  1.00  0.00     0.017 A 
HETATM   11  C10 UNL     1      35.081  72.657  34.428  1.00  0.00     0.003 A 
HETATM   12  C11 UNL     1      34.450  72.156  35.550  1.00  0.00     0.017 A 
HETATM   13  C12 UNL     1      35.132  71.318  36.390  1.00  0.00     0.090 A 
ENDBRANCH   7   8
ENDBRANCH   4   7
BRANCH   1  14
HETATM   14  C2  UNL     1      42.115  71.922  39.070  1.00  0.00     0.064 C 
BRANCH  14  15
HETATM   15  C1  UNL     1      41.915  72.976  40.157  1.00  0.00     0.168 C 
BRANCH  15  16
HETATM   16  O1  UNL     1      42.683  74.083  39.755  1.00  0.00    -0.401 OA
ATOM     17  H1  UNL     1      43.016  74.468  40.558  1.00  0.00     0.209 HD
ENDBRANCH  15  16
ENDBRANCH  14  15
ENDBRANCH   1  14
TORSDOF 5
ENDMDL
MODEL 3
REMARK VINA RESULT: -6.567797974      1.149      1.726
REMARK  5 active torsions:
REMARK  status: ('A' for Active; 'I' for Inactive)
REMARK    1  A    between atoms: O1_1  and  C1_3 
REMARK    2  A    between atoms: C1_3  and  C2_4 
REMARK    3  A    between atoms: C2_4  and  C3_5 
REMARK    4  A    between atoms: C6_8  and  C7_9 
REMARK    5  A    between atoms: C7_9  and  N1_10 
ROOT
HETATM    1  C3  UNL     1      41.270  71.412  37.830  1.00  0.00    -0.056 A 
HETATM    2  C4  UNL     1      40.735  72.400  37.033  1.00  0.00     0.008 A 
HETATM    3  C5  UNL     1      39.719  72.079  36.182  1.00  0.00     0.009 A 
HETATM    4  C6  UNL     1      39.193  70.808  36.080  1.00  0.00    -0.040 A 
HETATM    5  C13 UNL     1      39.722  69.817  36.873  1.00  0.00     0.009 A 
HETATM    6  C14 UNL     1      40.747  70.128  37.733  1.00  0.00     0.008 A 
ENDROOT
BRANCH   4   7
HETATM    7  C7  UNL     1      38.095  70.588  35.124  1.00  0.00     0.166 C 
BRANCH   7   8
HETATM    8  N1  UNL     1      36.835  71.120  35.552  1.00  0.00    -0.362 N 
HETATM    9  C8  UNL     1      36.255  70.756  36.707  1.00  0.00     0.090 A 
HETATM   10  C9  UNL     1      35.025  71.287  37.107  1.00  0.00     0.017 A 
HETATM   11  C10 UNL     1      34.390  72.197  36.308  1.00  0.00     0.003 A 
HETATM   12  C11 UNL     1      34.995  72.565  35.122  1.00  0.00     0.017 A 
HETATM   13  C12 UNL     1      36.199  72.014  34.779  1.00  0.00     0.090 A 
ENDBRANCH   7   8
ENDBRANCH   4   7
BRANCH   1  14
HETATM   14  C2  UNL     1      42.383  71.704  38.778  1.00  0.00     0.064 C 
BRANCH  14  15
HETATM   15  C1  UNL     1      41.923  72.682  39.857  1.00  0.00     0.168 C 
BRANCH  15  16
HETATM   16  O1  UNL     1      42.752  73.810  39.722  1.00  0.00    -0.401 OA
ATOM     17  H1  UNL     1      42.600  74.135  38.842  1.00  0.00     0.209 HD
ENDBRANCH  15  16
ENDBRANCH  14  15
ENDBRANCH   1  14
TORSDOF 5
ENDMDL
MODEL 4
REMARK VINA RESULT: -6.566954323      2.248      2.814
REMARK  5 active torsions:
REMARK  status: ('A' for Active; 'I' for Inactive)
REMARK    1  A    between atoms: O1_1  and  C1_3 
REMARK    2  A    between atoms: C1_3  and  C2_4 
REMARK    3  A    between atoms: C2_4  and  C3_5 
REMARK    4  A    between atoms: C6_8  and  C7_9 
REMARK    5  A    between atoms: C7_9  and  N1_10 
ROOT
HETATM    1  C3  UNL     1      41.214  72.150  37.918  1.00  0.00    -0.056 A 
HETATM    2  C4  UNL     1      40.352  72.838  38.745  1.00  0.00     0.008 A 
HETATM    3  C5  UNL     1      39.313  73.521  38.187  1.00  0.00     0.009 A 
HETATM    4  C6  UNL     1      39.076  73.559  36.829  1.00  0.00    -0.040 A 
HETATM    5  C13 UNL     1      39.932  72.874  35.998  1.00  0.00     0.009 A 
HETATM    6  C14 UNL     1      40.983  72.182  36.548  1.00  0.00     0.008 A 
ENDROOT
BRANCH   4   7
HETATM    7  C7  UNL     1      37.918  74.332  36.349  1.00  0.00     0.166 C 
BRANCH   7   8
HETATM    8  N1  UNL     1      36.770  73.532  36.039  1.00  0.00    -0.362 N 
HETATM    9  C8  UNL     1      35.954  73.048  36.989  1.00  0.00     0.090 A 
HETATM   10  C9  UNL     1      34.838  72.269  36.666  1.00  0.00     0.017 A 
HETATM   11  C10 UNL     1      34.566  71.989  35.355  1.00  0.00     0.003 A 
HETATM   12  C11 UNL     1      35.413  72.493  34.386  1.00  0.00     0.017 A 
HETATM   13  C12 UNL     1      36.490  73.249  34.758  1.00  0.00     0.090 A 
ENDBRANCH   7   8
ENDBRANCH   4   7
BRANCH   1  14
HETATM   14  C2  UNL     1      42.368  71.385  38.472  1.00  0.00     0.064 C 
BRANCH  14  15
HETATM   15  C1  UNL     1      42.262  69.910  38.093  1.00  0.00     0.168 C 
BRANCH  15  16
HETATM   16  O1  UNL     1      41.540  69.303  39.137  1.00  0.00    -0.401 OA
ATOM     17  H1  UNL     1      41.982  68.479  39.307  1.00  0.00     0.209 HD
ENDBRANCH  15  16
ENDBRANCH  14  15
ENDBRANCH   1  14
TORSDOF 5
ENDMDL
MODEL 5
REMARK VINA RESULT: -6.564147295      1.024      1.829
REMARK  5 active torsions:
REMARK  status: ('A' for Active; 'I' for Inactive)
REMARK    1  A    between atoms: O1_1  and  C1_3 
REMARK    2  A    between atoms: C1_3  and  C2_4 
REMARK    3  A    between atoms: C2_4  and  C3_5 
REMARK    4  A    between atoms: C6_8  and  C7_9 
REMARK    5  A    between atoms: C7_9  and  N1_10 
ROOT
HETATM    1  C3  UNL     1      41.100  71.575  38.123  1.00  0.00    -0.056 A 
HETATM    2  C4  UNL     1      40.695  70.267  37.971  1.00  0.00     0.008 A 
HETATM    3  C5  UNL     1      39.692  69.987  37.091  1.00  0.00     0.009 A 
HETATM    4  C6  UNL     1      39.058  70.953  36.338  1.00  0.00    -0.040 A 
HETATM    5  C13 UNL     1      39.457  72.262  36.483  1.00  0.00     0.009 A 
HETATM    6  C14 UNL     1      40.466  72.555  37.368  1.00  0.00     0.008 A 
ENDROOT
BRANCH   4   7
HETATM    7  C7  UNL     1      37.989  70.525  35.420  1.00  0.00     0.166 C 
BRANCH   7   8
HETATM    8  N1  UNL     1      36.711  71.110  35.700  1.00  0.00    -0.362 N 
HETATM    9  C8  UNL     1      36.068  70.911  36.862  1.00  0.00     0.090 A 
HETATM   10  C9  UNL     1      34.821  71.492  37.116  1.00  0.00     0.017 A 
HETATM   11  C10 UNL     1      34.237  72.281  36.165  1.00  0.00     0.003 A 
HETATM   12  C11 UNL     1      34.908  72.480  34.973  1.00  0.00     0.017 A 
HETATM   13  C12 UNL     1      36.125  71.887  34.776  1.00  0.00     0.090 A 
ENDBRANCH   7   8
ENDBRANCH   4   7
BRANCH   1  14
HETATM   14  C2  UNL     1      42.191  71.939  39.071  1.00  0.00     0.064 C 
BRANCH  14  15
HETATM   15  C1  UNL     1      41.752  73.088  39.976  1.00  0.00     0.168 C 
BRANCH  15  16
HETATM   16  O1  UNL     1      42.657  74.135  39.724  1.00  0.00    -0.401 OA
ATOM     17  H1  UNL     1      42.129  74.859  39.409  1.00  0.00     0.209 HD
ENDBRANCH  15  16
ENDBRANCH  14  15
ENDBRANCH   1  14
TORSDOF 5
ENDMDL
