MODEL 1
REMARK VINA RESULT: -5.417642616      0.000      0.000
REMARK  5 active torsions:
REMARK  status: ('A' for Active; 'I' for Inactive)
REMARK    1  A    between atoms: N1_1  and  C1_5 
REMARK    2  A    between atoms: C1_5  and  C2_6 
REMARK    3  A    between atoms: C2_6  and  C3_7 
REMARK    4  A    between atoms: C3_7  and  N2_8 
REMARK    5  A    between atoms: C7_12  and  N3_13 
ROOT
HETATM    1  N2  UNL     1     -14.915   5.351  24.002  1.00  0.00     0.090 N 
HETATM    2  C4  UNL     1     -13.700   6.181  23.875  1.00  0.00     0.272 C 
HETATM    3  C5  UNL     1     -12.488   5.398  23.548  1.00  0.00     0.032 C 
HETATM    4  C6  UNL     1     -12.229   4.250  24.491  1.00  0.00     0.036 C 
HETATM    5  C7  UNL     1     -13.494   3.494  24.813  1.00  0.00     0.211 C 
HETATM    6  C8  UNL     1     -14.571   4.488  25.124  1.00  0.00     0.305 C 
ENDROOT
BRANCH   1   7
HETATM    7  C3  UNL     1     -15.090   4.667  22.771  1.00  0.00     0.274 C 
BRANCH   7   8
HETATM    8  C2  UNL     1     -16.393   4.032  22.498  1.00  0.00     0.057 C 
BRANCH   8   9
HETATM    9  C1  UNL     1     -16.445   2.698  21.857  1.00  0.00     0.231 C 
BRANCH   9  10
HETATM   10  N1  UNL     1     -17.752   2.114  22.240  1.00  0.00    -0.079 N 
ATOM     11  H13 UNL     1     -17.896   1.169  21.884  1.00  0.00     0.274 HD
ATOM     12  H12 UNL     1     -17.821   1.884  23.231  1.00  0.00     0.274 HD
ATOM     13  H11 UNL     1     -18.458   2.780  21.926  1.00  0.00     0.274 HD
ENDBRANCH   9  10
ENDBRANCH   8   9
ENDBRANCH   7   8
ENDBRANCH   1   7
BRANCH   5  14
HETATM   14  N3  UNL     1     -13.268   2.736  26.057  1.00  0.00    -0.073 N 
ATOM     15  H33 UNL     1     -14.111   2.646  26.623  1.00  0.00     0.274 HD
ATOM     16  H32 UNL     1     -13.108   1.743  25.890  1.00  0.00     0.274 HD
ATOM     17  H31 UNL     1     -12.500   3.180  26.561  1.00  0.00     0.274 HD
ENDBRANCH   5  14
TORSDOF 5
ENDMDL
MODEL 2
REMARK VINA RESULT: -5.216851510      1.381      2.132
REMARK  5 active torsions:
REMARK  status: ('A' for Active; 'I' for Inactive)
REMARK    1  A    between atoms: N1_1  and  C1_5 
REMARK    2  A    between atoms: C1_5  and  C2_6 
REMARK    3  A    between atoms: C2_6  and  C3_7 
REMARK    4  A    between atoms: C3_7  and  N2_8 
REMARK    5  A    between atoms: C7_12  and  N3_13 
ROOT
HETATM    1  N2  UNL     1     -13.964   4.707  23.143  1.00  0.00     0.090 N 
HETATM    2  C4  UNL     1     -12.835   4.197  23.947  1.00  0.00     0.272 C 
HETATM    3  C5  UNL     1     -13.245   3.678  25.270  1.00  0.00     0.032 C 
HETATM    4  C6  UNL     1     -14.055   4.655  26.085  1.00  0.00     0.036 C 
HETATM    5  C7  UNL     1     -15.094   5.357  25.247  1.00  0.00     0.211 C 
HETATM    6  C8  UNL     1     -14.448   5.803  23.971  1.00  0.00     0.305 C 
ENDROOT
BRANCH   1   7
HETATM    7  C3  UNL     1     -14.887   3.641  22.988  1.00  0.00     0.274 C 
BRANCH   7   8
HETATM    8  C2  UNL     1     -16.117   3.884  22.211  1.00  0.00     0.057 C 
BRANCH   8   9
HETATM    9  C1  UNL     1     -16.712   2.791  21.408  1.00  0.00     0.231 C 
BRANCH   9  10
HETATM   10  N1  UNL     1     -17.756   2.180  22.264  1.00  0.00    -0.079 N 
ATOM     11  H13 UNL     1     -17.499   2.133  23.250  1.00  0.00     0.274 HD
ATOM     12  H12 UNL     1     -18.582   2.767  22.380  1.00  0.00     0.274 HD
ATOM     13  H11 UNL     1     -17.958   1.270  21.851  1.00  0.00     0.274 HD
ENDBRANCH   9  10
ENDBRANCH   8   9
ENDBRANCH   7   8
ENDBRANCH   1   7
BRANCH   5  14
HETATM   14  N3  UNL     1     -15.494   6.587  25.954  1.00  0.00    -0.073 N 
ATOM     15  H33 UNL     1     -15.492   6.478  26.968  1.00  0.00     0.274 HD
ATOM     16  H32 UNL     1     -14.790   7.322  25.894  1.00  0.00     0.274 HD
ATOM     17  H31 UNL     1     -16.401   6.879  25.590  1.00  0.00     0.274 HD
ENDBRANCH   5  14
TORSDOF 5
ENDMDL
MODEL 3
REMARK VINA RESULT: -5.142315539      1.700      2.007
REMARK  5 active torsions:
REMARK  status: ('A' for Active; 'I' for Inactive)
REMARK    1  A    between atoms: N1_1  and  C1_5 
REMARK    2  A    between atoms: C1_5  and  C2_6 
REMARK    3  A    between atoms: C2_6  and  C3_7 
REMARK    4  A    between atoms: C3_7  and  N2_8 
REMARK    5  A    between atoms: C7_12  and  N3_13 
ROOT
HETATM    1  N2  UNL     1     -13.561   4.976  22.610  1.00  0.00     0.090 N 
HETATM    2  C4  UNL     1     -12.297   5.195  23.341  1.00  0.00     0.272 C 
HETATM    3  C5  UNL     1     -12.108   4.264  24.475  1.00  0.00     0.032 C 
HETATM    4  C6  UNL     1     -13.264   4.238  25.443  1.00  0.00     0.036 C 
HETATM    5  C7  UNL     1     -14.593   4.222  24.730  1.00  0.00     0.211 C 
HETATM    6  C8  UNL     1     -14.554   5.250  23.640  1.00  0.00     0.305 C 
ENDROOT
BRANCH   1   7
HETATM    7  C3  UNL     1     -13.554   3.634  22.147  1.00  0.00     0.274 C 
BRANCH   7   8
HETATM    8  C2  UNL     1     -14.584   3.220  21.176  1.00  0.00     0.057 C 
BRANCH   8   9
HETATM    9  C1  UNL     1     -15.616   2.233  21.569  1.00  0.00     0.231 C 
BRANCH   9  10
HETATM   10  N1  UNL     1     -14.968   1.341  22.560  1.00  0.00    -0.079 N 
ATOM     11  H13 UNL     1     -14.019   1.068  22.303  1.00  0.00     0.274 HD
ATOM     12  H12 UNL     1     -14.729   1.808  23.434  1.00  0.00     0.274 HD
ATOM     13  H11 UNL     1     -15.601   0.551  22.679  1.00  0.00     0.274 HD
ENDBRANCH   9  10
ENDBRANCH   8   9
ENDBRANCH   7   8
ENDBRANCH   1   7
BRANCH   5  14
HETATM   14  N3  UNL     1     -15.625   4.675  25.679  1.00  0.00    -0.073 N 
ATOM     15  H33 UNL     1     -16.081   5.538  25.384  1.00  0.00     0.274 HD
ATOM     16  H32 UNL     1     -16.451   4.077  25.678  1.00  0.00     0.274 HD
ATOM     17  H31 UNL     1     -15.195   4.751  26.601  1.00  0.00     0.274 HD
ENDBRANCH   5  14
TORSDOF 5
ENDMDL
MODEL 4
REMARK VINA RESULT: -5.140972049      1.208      1.570
REMARK  5 active torsions:
REMARK  status: ('A' for Active; 'I' for Inactive)
REMARK    1  A    between atoms: N1_1  and  C1_5 
REMARK    2  A    between atoms: C1_5  and  C2_6 
REMARK    3  A    between atoms: C2_6  and  C3_7 
REMARK    4  A    between atoms: C3_7  and  N2_8 
REMARK    5  A    between atoms: C7_12  and  N3_13 
ROOT
HETATM    1  N2  UNL     1     -14.802   4.465  24.051  1.00  0.00     0.090 N 
HETATM    2  C4  UNL     1     -14.568   5.808  24.618  1.00  0.00     0.272 C 
HETATM    3  C5  UNL     1     -13.582   6.603  23.854  1.00  0.00     0.032 C 
HETATM    4  C6  UNL     1     -12.265   5.900  23.638  1.00  0.00     0.036 C 
HETATM    5  C7  UNL     1     -12.458   4.454  23.254  1.00  0.00     0.211 C 
HETATM    6  C8  UNL     1     -13.484   3.856  24.169  1.00  0.00     0.305 C 
ENDROOT
BRANCH   1   7
HETATM    7  C3  UNL     1     -15.245   4.642  22.715  1.00  0.00     0.274 C 
BRANCH   7   8
HETATM    8  C2  UNL     1     -16.516   4.014  22.305  1.00  0.00     0.057 C 
BRANCH   8   9
HETATM    9  C1  UNL     1     -16.528   2.610  21.837  1.00  0.00     0.231 C 
BRANCH   9  10
HETATM   10  N1  UNL     1     -17.828   2.047  22.274  1.00  0.00    -0.079 N 
ATOM     11  H13 UNL     1     -18.287   2.598  22.999  1.00  0.00     0.274 HD
ATOM     12  H12 UNL     1     -18.564   2.130  21.573  1.00  0.00     0.274 HD
ATOM     13  H11 UNL     1     -17.636   1.085  22.553  1.00  0.00     0.274 HD
ENDBRANCH   9  10
ENDBRANCH   8   9
ENDBRANCH   7   8
ENDBRANCH   1   7
BRANCH   5  14
HETATM   14  N3  UNL     1     -11.200   3.737  23.530  1.00  0.00    -0.073 N 
ATOM     15  H33 UNL     1     -10.375   4.272  23.259  1.00  0.00     0.274 HD
ATOM     16  H32 UNL     1     -10.997   3.667  24.526  1.00  0.00     0.274 HD
ATOM     17  H31 UNL     1     -11.248   2.827  23.071  1.00  0.00     0.274 HD
ENDBRANCH   5  14
TORSDOF 5
ENDMDL
MODEL 5
REMARK VINA RESULT: -5.035474451      1.836      2.581
REMARK  5 active torsions:
REMARK  status: ('A' for Active; 'I' for Inactive)
REMARK    1  A    between atoms: N1_1  and  C1_5 
REMARK    2  A    between atoms: C1_5  and  C2_6 
REMARK    3  A    between atoms: C2_6  and  C3_7 
REMARK    4  A    between atoms: C3_7  and  N2_8 
REMARK    5  A    between atoms: C7_12  and  N3_13 
ROOT
HETATM    1  N2  UNL     1     -13.438   5.054  23.284  1.00  0.00     0.090 N 
HETATM    2  C4  UNL     1     -12.580   4.329  24.242  1.00  0.00     0.272 C 
HETATM    3  C5  UNL     1     -13.337   3.692  25.342  1.00  0.00     0.032 C 
HETATM    4  C6  UNL     1     -14.249   4.637  26.083  1.00  0.00     0.036 C 
HETATM    5  C7  UNL     1     -14.998   5.547  25.141  1.00  0.00     0.211 C 
HETATM    6  C8  UNL     1     -14.029   6.081  24.131  1.00  0.00     0.305 C 
ENDROOT
BRANCH   1   7
HETATM    7  C3  UNL     1     -14.370   4.121  22.761  1.00  0.00     0.274 C 
BRANCH   7   8
HETATM    8  C2  UNL     1     -13.940   3.238  21.660  1.00  0.00     0.057 C 
BRANCH   8   9
HETATM    9  C1  UNL     1     -14.688   1.992  21.376  1.00  0.00     0.231 C 
BRANCH   9  10
HETATM   10  N1  UNL     1     -14.889   1.332  22.688  1.00  0.00    -0.079 N 
ATOM     11  H13 UNL     1     -14.036   0.929  23.076  1.00  0.00     0.274 HD
ATOM     12  H12 UNL     1     -15.074   1.985  23.449  1.00  0.00     0.274 HD
ATOM     13  H11 UNL     1     -15.634   0.650  22.546  1.00  0.00     0.274 HD
ENDBRANCH   9  10
ENDBRANCH   8   9
ENDBRANCH   7   8
ENDBRANCH   1   7
BRANCH   5  14
HETATM   14  N3  UNL     1     -15.468   6.713  25.911  1.00  0.00    -0.073 N 
ATOM     15  H33 UNL     1     -16.318   6.519  26.441  1.00  0.00     0.274 HD
ATOM     16  H32 UNL     1     -14.862   6.934  26.701  1.00  0.00     0.274 HD
ATOM     17  H31 UNL     1     -15.576   7.495  25.265  1.00  0.00     0.274 HD
ENDBRANCH   5  14
TORSDOF 5
ENDMDL
