MODEL 1
REMARK VINA RESULT: -8.854384230      0.000      0.000
REMARK  17 active torsions:
REMARK  status: ('A' for Active; 'I' for Inactive)
REMARK    1  A    between atoms: O1_2  and  C2_3 
REMARK    2  A    between atoms: C2_3  and  C3_5 
REMARK    3  A    between atoms: C3_5  and  C4_6 
REMARK    4  A    between atoms: C3_5  and  N15_54 
REMARK    5  A    between atoms: C4_6  and  S1_7 
REMARK    6  A    between atoms: S1_7  and  C5_8 
REMARK    7  A    between atoms: C6_11  and  N2_12 
REMARK    8  A    between atoms: N2_12  and  C7_14 
REMARK    9  A    between atoms: C8_19  and  S2_20 
REMARK   10  A    between atoms: S2_20  and  C9_21 
REMARK   11  A    between atoms: C9_21  and  C10_22 
REMARK   12  A    between atoms: C10_22  and  N5_23 
REMARK   13  A    between atoms: N5_23  and  C11_25 
REMARK   14  A    between atoms: C17_35  and  N8_36 
REMARK   15  A    between atoms: N9_39  and  O3_40 
REMARK   16  A    between atoms: C18_48  and  N13_49 
REMARK   17  A    between atoms: N15_54  and  O4_55 
ROOT
HETATM    1  C7  UNL     1       3.127   5.220   7.423  1.00  0.00     0.726 A 
HETATM    2  N3  UNL     1       3.521   4.285   6.542  1.00  0.00    -0.128 N 
ATOM      3  H3  UNL     1       4.208   3.594   6.844  1.00  0.00     0.205 HD
HETATM    4  N4  UNL     1       3.060   4.214   5.300  1.00  0.00    -0.264 N 
ATOM      5  H4  UNL     1       3.392   3.482   4.672  1.00  0.00     0.189 HD
HETATM    6  C8  UNL     1       2.153   5.110   4.870  1.00  0.00     0.174 A 
HETATM    7  N10 UNL     1       1.748   6.051   5.734  1.00  0.00    -0.264 N 
ATOM      8  H10 UNL     1       1.061   6.739   5.427  1.00  0.00     0.189 HD
HETATM    9  N11 UNL     1       2.208   6.118   6.972  1.00  0.00    -0.128 N 
ATOM     10  H11 UNL     1       1.872   6.851   7.596  1.00  0.00     0.205 HD
ENDROOT
BRANCH   1  11
HETATM   11  N2  UNL     1       3.581   5.282   8.633  1.00  0.00    -0.019 N 
ATOM     12  H2  UNL     1       4.466   5.745   8.843  1.00  0.00     0.203 HD
BRANCH  11  13
HETATM   13  C6  UNL     1       2.803   4.681   9.660  1.00  0.00     0.713 A 
HETATM   14  N1  UNL     1       1.493   5.016   9.723  1.00  0.00    -0.169 N 
HETATM   15  C5  UNL     1       0.705   4.484  10.670  1.00  0.00     0.174 A 
ATOM     16  H1  UNL     1       1.104   5.676   9.049  1.00  0.00     0.186 HD
HETATM   17  N14 UNL     1       1.229   3.607  11.565  1.00  0.00    -0.170 N 
HETATM   18  C18 UNL     1       2.524   3.262  11.517  1.00  0.00     0.692 A 
ATOM     19  H14 UNL     1       0.629   3.204  12.284  1.00  0.00     0.186 HD
HETATM   20  N12 UNL     1       3.295   3.810  10.558  1.00  0.00    -0.022 N 
ATOM     21  H12 UNL     1       4.282   3.556  10.512  1.00  0.00     0.203 HD
BRANCH  15  22
HETATM   22  S1  UNL     1      -1.032   4.860  10.840  1.00  0.00    -0.091 SA
BRANCH  22  23
HETATM   23  C4  UNL     1      -1.913   3.964   9.531  1.00  0.00     0.116 C 
BRANCH  23  24
HETATM   24  C3  UNL     1      -2.385   4.968   8.493  1.00  0.00     0.215 C 
BRANCH  24  25
HETATM   25  C2  UNL     1      -1.227   5.288   7.620  1.00  0.00     0.281 C 
HETATM   26  O2  UNL     1      -0.440   4.351   7.269  1.00  0.00    -0.263 OA
BRANCH  25  27
HETATM   27  O1  UNL     1      -0.947   6.551   7.162  1.00  0.00    -0.325 OA
HETATM   28  C1  UNL     1      -1.009   7.650   8.033  1.00  0.00     0.213 C 
ENDBRANCH  25  27
ENDBRANCH  24  25
BRANCH  24  29
HETATM   29  N15 UNL     1      -3.435   4.359   7.721  1.00  0.00    -0.088 NA
BRANCH  29  30
HETATM   30  O4  UNL     1      -3.145   4.475   6.424  1.00  0.00    -0.295 OA
ATOM     31  H4  UNL     1      -3.797   5.028   6.009  1.00  0.00     0.238 HD
ENDBRANCH  29  30
ENDBRANCH  24  29
ENDBRANCH  23  24
ENDBRANCH  22  23
ENDBRANCH  15  22
BRANCH  18  32
HETATM   32  N13 UNL     1       3.071   2.435  12.341  1.00  0.00    -0.234 N 
ATOM     33 2H13 UNL     1       3.729   1.709  12.057  1.00  0.00     0.174 HD
ATOM     34 1H13 UNL     1       2.832   2.510  13.330  1.00  0.00     0.174 HD
ENDBRANCH  18  32
ENDBRANCH  11  13
ENDBRANCH   1  11
BRANCH   6  35
HETATM   35  S2  UNL     1       1.513   5.048   3.236  1.00  0.00    -0.090 SA
BRANCH  35  36
HETATM   36  C9  UNL     1       1.466   3.352   2.657  1.00  0.00     0.102 C 
BRANCH  36  37
HETATM   37  C10 UNL     1       0.792   3.213   1.291  1.00  0.00     0.148 C 
BRANCH  37  38
HETATM   38  N5  UNL     1       1.818   3.143   0.284  1.00  0.00    -0.223 N 
ATOM     39  H5  UNL     1       1.825   2.336  -0.339  1.00  0.00     0.177 HD
BRANCH  38  40
HETATM   40  C11 UNL     1       2.831   4.143   0.106  1.00  0.00     0.708 A 
HETATM   41  N6  UNL     1       2.481   5.407  -0.241  1.00  0.00    -0.174 N 
HETATM   42  C12 UNL     1       3.369   6.399  -0.428  1.00  0.00     0.135 A 
ATOM     43  H6  UNL     1       1.490   5.616  -0.368  1.00  0.00     0.186 HD
HETATM   44  N7  UNL     1       2.992   7.645  -0.772  1.00  0.00    -0.351 N 
HETATM   45  C16 UNL     1       4.714   6.154  -0.265  1.00  0.00     0.055 A 
HETATM   46  C13 UNL     1       3.881   8.642  -0.958  1.00  0.00     0.090 A 
ATOM     47  H7  UNL     1       1.999   7.842  -0.895  1.00  0.00     0.166 HD
HETATM   48  C14 UNL     1       5.235   8.431  -0.804  1.00  0.00     0.018 A 
HETATM   49  C15 UNL     1       5.648   7.157  -0.449  1.00  0.00     0.020 A 
HETATM   50  C17 UNL     1       5.077   4.874   0.089  1.00  0.00     0.159 A 
HETATM   51  N9  UNL     1       4.139   3.897   0.267  1.00  0.00    -0.035 N 
BRANCH  50  52
HETATM   52  N8  UNL     1       6.340   4.617   0.248  1.00  0.00    -0.382 N 
ATOM     53  H82 UNL     1       6.993   5.357   0.503  1.00  0.00     0.157 HD
ATOM     54  H81 UNL     1       6.657   3.657   0.111  1.00  0.00     0.157 HD
ENDBRANCH  50  52
BRANCH  51  55
HETATM   55  O3  UNL     1       4.567   2.652   0.613  1.00  0.00    -0.268 OA
ATOM     56  H3  UNL     1       4.952   2.079  -0.039  1.00  0.00     0.246 HD
ENDBRANCH  51  55
ENDBRANCH  38  40
ENDBRANCH  37  38
ENDBRANCH  36  37
ENDBRANCH  35  36
ENDBRANCH   6  35
TORSDOF 17
ENDMDL
MODEL 2
REMARK VINA RESULT: -8.820675692      3.180      8.335
REMARK  17 active torsions:
REMARK  status: ('A' for Active; 'I' for Inactive)
REMARK    1  A    between atoms: O1_2  and  C2_3 
REMARK    2  A    between atoms: C2_3  and  C3_5 
REMARK    3  A    between atoms: C3_5  and  C4_6 
REMARK    4  A    between atoms: C3_5  and  N15_54 
REMARK    5  A    between atoms: C4_6  and  S1_7 
REMARK    6  A    between atoms: S1_7  and  C5_8 
REMARK    7  A    between atoms: C6_11  and  N2_12 
REMARK    8  A    between atoms: N2_12  and  C7_14 
REMARK    9  A    between atoms: C8_19  and  S2_20 
REMARK   10  A    between atoms: S2_20  and  C9_21 
REMARK   11  A    between atoms: C9_21  and  C10_22 
REMARK   12  A    between atoms: C10_22  and  N5_23 
REMARK   13  A    between atoms: N5_23  and  C11_25 
REMARK   14  A    between atoms: C17_35  and  N8_36 
REMARK   15  A    between atoms: N9_39  and  O3_40 
REMARK   16  A    between atoms: C18_48  and  N13_49 
REMARK   17  A    between atoms: N15_54  and  O4_55 
ROOT
HETATM    1  C7  UNL     1       2.123   8.621   5.916  1.00  0.00     0.726 A 
HETATM    2  N3  UNL     1       3.212   8.704   6.699  1.00  0.00    -0.128 N 
ATOM      3  H3  UNL     1       4.123   8.502   6.286  1.00  0.00     0.205 HD
HETATM    4  N4  UNL     1       3.163   9.037   7.982  1.00  0.00    -0.264 N 
ATOM      5  H4  UNL     1       4.021   9.087   8.531  1.00  0.00     0.189 HD
HETATM    6  C8  UNL     1       1.978   9.310   8.558  1.00  0.00     0.174 A 
HETATM    7  N10 UNL     1       0.880   9.232   7.793  1.00  0.00    -0.264 N 
ATOM      8  H10 UNL     1      -0.028   9.435   8.212  1.00  0.00     0.189 HD
HETATM    9  N11 UNL     1       0.933   8.901   6.514  1.00  0.00    -0.128 N 
ATOM     10  H11 UNL     1       0.072   8.853   5.969  1.00  0.00     0.205 HD
ENDROOT
BRANCH   1  11
HETATM   11  N2  UNL     1       2.181   8.295   4.665  1.00  0.00    -0.019 N 
ATOM     12  H2  UNL     1       2.156   9.004   3.932  1.00  0.00     0.203 HD
BRANCH  11  13
HETATM   13  C6  UNL     1       2.278   6.912   4.348  1.00  0.00     0.713 A 
HETATM   14  N1  UNL     1       1.424   6.070   4.975  1.00  0.00    -0.169 N 
HETATM   15  C5  UNL     1       1.467   4.753   4.721  1.00  0.00     0.174 A 
ATOM     16  H1  UNL     1       0.746   6.438   5.642  1.00  0.00     0.186 HD
HETATM   17  N14 UNL     1       2.372   4.270   3.831  1.00  0.00    -0.170 N 
HETATM   18  C18 UNL     1       3.225   5.089   3.201  1.00  0.00     0.692 A 
ATOM     19  H14 UNL     1       2.403   3.268   3.639  1.00  0.00     0.186 HD
HETATM   20  N12 UNL     1       3.164   6.407   3.473  1.00  0.00    -0.022 N 
ATOM     21  H12 UNL     1       3.809   7.040   3.000  1.00  0.00     0.203 HD
BRANCH  15  22
HETATM   22  S1  UNL     1       0.386   3.559   5.492  1.00  0.00    -0.091 SA
BRANCH  22  23
HETATM   23  C4  UNL     1      -0.091   4.224   7.111  1.00  0.00     0.116 C 
BRANCH  23  24
HETATM   24  C3  UNL     1      -1.193   5.250   6.907  1.00  0.00     0.215 C 
BRANCH  24  25
HETATM   25  C2  UNL     1      -2.286   4.929   7.859  1.00  0.00     0.281 C 
HETATM   26  O2  UNL     1      -3.411   4.548   7.403  1.00  0.00    -0.263 OA
BRANCH  25  27
HETATM   27  O1  UNL     1      -2.156   5.020   9.223  1.00  0.00    -0.325 OA
HETATM   28  C1  UNL     1      -2.446   3.914  10.037  1.00  0.00     0.213 C 
ENDBRANCH  25  27
ENDBRANCH  24  25
BRANCH  24  29
HETATM   29  N15 UNL     1      -0.654   6.553   7.191  1.00  0.00    -0.088 NA
BRANCH  29  30
HETATM   30  O4  UNL     1      -1.646   7.362   7.567  1.00  0.00    -0.295 OA
ATOM     31  H4  UNL     1      -1.362   7.874   8.315  1.00  0.00     0.238 HD
ENDBRANCH  29  30
ENDBRANCH  24  29
ENDBRANCH  23  24
ENDBRANCH  22  23
ENDBRANCH  15  22
BRANCH  18  32
HETATM   32  N13 UNL     1       4.104   4.682   2.348  1.00  0.00    -0.234 N 
ATOM     33 2H13 UNL     1       4.706   5.312   1.817  1.00  0.00     0.174 HD
ATOM     34 1H13 UNL     1       4.201   3.679   2.196  1.00  0.00     0.174 HD
ENDBRANCH  18  32
ENDBRANCH  11  13
ENDBRANCH   1  11
BRANCH   6  35
HETATM   35  S2  UNL     1       1.869   9.761  10.252  1.00  0.00    -0.090 SA
BRANCH  35  36
HETATM   36  C9  UNL     1       1.319   8.363  11.228  1.00  0.00     0.102 C 
BRANCH  36  37
HETATM   37  C10 UNL     1      -0.079   7.882  10.838  1.00  0.00     0.148 C 
BRANCH  37  38
HETATM   38  N5  UNL     1       0.052   6.654  10.100  1.00  0.00    -0.223 N 
ATOM     39  H5  UNL     1      -0.657   6.436   9.400  1.00  0.00     0.177 HD
BRANCH  38  40
HETATM   40  C11 UNL     1       1.123   5.718  10.291  1.00  0.00     0.708 A 
HETATM   41  N6  UNL     1       1.168   4.962  11.417  1.00  0.00    -0.174 N 
HETATM   42  C12 UNL     1       2.137   4.066  11.670  1.00  0.00     0.135 A 
ATOM     43  H6  UNL     1       0.426   5.079  12.107  1.00  0.00     0.186 HD
HETATM   44  N7  UNL     1       2.156   3.327  12.796  1.00  0.00    -0.351 N 
HETATM   45  C16 UNL     1       3.154   3.880  10.761  1.00  0.00     0.055 A 
HETATM   46  C13 UNL     1       3.126   2.427  13.052  1.00  0.00     0.090 A 
ATOM     47  H7  UNL     1       1.409   3.452  13.479  1.00  0.00     0.166 HD
HETATM   48  C14 UNL     1       4.159   2.216  12.163  1.00  0.00     0.018 A 
HETATM   49  C15 UNL     1       4.163   2.964  10.996  1.00  0.00     0.020 A 
HETATM   50  C17 UNL     1       3.115   4.644   9.616  1.00  0.00     0.159 A 
HETATM   51  N9  UNL     1       2.110   5.543   9.401  1.00  0.00    -0.035 N 
BRANCH  50  52
HETATM   52  N8  UNL     1       4.063   4.489   8.742  1.00  0.00    -0.382 N 
ATOM     53  H82 UNL     1       4.456   3.565   8.560  1.00  0.00     0.157 HD
ATOM     54  H81 UNL     1       4.399   5.313   8.245  1.00  0.00     0.157 HD
ENDBRANCH  50  52
BRANCH  51  55
HETATM   55  O3  UNL     1       2.133   6.269   8.249  1.00  0.00    -0.268 OA
ATOM     56  H3  UNL     1       1.733   5.926   7.458  1.00  0.00     0.246 HD
ENDBRANCH  51  55
ENDBRANCH  38  40
ENDBRANCH  37  38
ENDBRANCH  36  37
ENDBRANCH  35  36
ENDBRANCH   6  35
TORSDOF 17
ENDMDL
MODEL 3
REMARK VINA RESULT: -8.793432507      1.679      2.317
REMARK  17 active torsions:
REMARK  status: ('A' for Active; 'I' for Inactive)
REMARK    1  A    between atoms: O1_2  and  C2_3 
REMARK    2  A    between atoms: C2_3  and  C3_5 
REMARK    3  A    between atoms: C3_5  and  C4_6 
REMARK    4  A    between atoms: C3_5  and  N15_54 
REMARK    5  A    between atoms: C4_6  and  S1_7 
REMARK    6  A    between atoms: S1_7  and  C5_8 
REMARK    7  A    between atoms: C6_11  and  N2_12 
REMARK    8  A    between atoms: N2_12  and  C7_14 
REMARK    9  A    between atoms: C8_19  and  S2_20 
REMARK   10  A    between atoms: S2_20  and  C9_21 
REMARK   11  A    between atoms: C9_21  and  C10_22 
REMARK   12  A    between atoms: C10_22  and  N5_23 
REMARK   13  A    between atoms: N5_23  and  C11_25 
REMARK   14  A    between atoms: C17_35  and  N8_36 
REMARK   15  A    between atoms: N9_39  and  O3_40 
REMARK   16  A    between atoms: C18_48  and  N13_49 
REMARK   17  A    between atoms: N15_54  and  O4_55 
ROOT
HETATM    1  C7  UNL     1       2.145   5.338   5.814  1.00  0.00     0.726 A 
HETATM    2  N3  UNL     1       0.903   4.829   5.890  1.00  0.00    -0.128 N 
ATOM      3  H3  UNL     1       0.331   5.066   6.701  1.00  0.00     0.205 HD
HETATM    4  N4  UNL     1       0.384   4.034   4.964  1.00  0.00    -0.264 N 
ATOM      5  H4  UNL     1      -0.565   3.677   5.071  1.00  0.00     0.189 HD
HETATM    6  C8  UNL     1       1.112   3.701   3.883  1.00  0.00     0.174 A 
HETATM    7  N10 UNL     1       2.352   4.199   3.789  1.00  0.00    -0.264 N 
ATOM      8  H10 UNL     1       2.920   3.958   2.976  1.00  0.00     0.189 HD
HETATM    9  N11 UNL     1       2.867   4.992   4.714  1.00  0.00    -0.128 N 
ATOM     10  H11 UNL     1       3.817   5.348   4.602  1.00  0.00     0.205 HD
ENDROOT
BRANCH   1  11
HETATM   11  N2  UNL     1       2.644   6.113   6.723  1.00  0.00    -0.019 N 
ATOM     12  H2  UNL     1       2.794   7.106   6.547  1.00  0.00     0.203 HD
BRANCH  11  13
HETATM   13  C6  UNL     1       2.975   5.528   7.977  1.00  0.00     0.713 A 
HETATM   14  N1  UNL     1       2.158   5.795   9.021  1.00  0.00    -0.169 N 
HETATM   15  C5  UNL     1       2.417   5.275  10.231  1.00  0.00     0.174 A 
ATOM     16  H1  UNL     1       1.343   6.394   8.889  1.00  0.00     0.186 HD
HETATM   17  N14 UNL     1       3.504   4.478  10.401  1.00  0.00    -0.170 N 
HETATM   18  C18 UNL     1       4.324   4.202   9.377  1.00  0.00     0.692 A 
ATOM     19  H14 UNL     1       3.699   4.084  11.321  1.00  0.00     0.186 HD
HETATM   20  N12 UNL     1       4.044   4.737   8.172  1.00  0.00    -0.022 N 
ATOM     21  H12 UNL     1       4.661   4.535   7.386  1.00  0.00     0.203 HD
BRANCH  15  22
HETATM   22  S1  UNL     1       1.403   5.565  11.672  1.00  0.00    -0.091 SA
BRANCH  22  23
HETATM   23  C4  UNL     1      -0.330   5.467  11.147  1.00  0.00     0.116 C 
BRANCH  23  24
HETATM   24  C3  UNL     1      -0.672   6.730  10.374  1.00  0.00     0.215 C 
BRANCH  24  25
HETATM   25  C2  UNL     1      -1.740   6.384   9.402  1.00  0.00     0.281 C 
HETATM   26  O2  UNL     1      -2.649   5.562   9.747  1.00  0.00    -0.263 OA
BRANCH  25  27
HETATM   27  O1  UNL     1      -1.808   6.903   8.133  1.00  0.00    -0.325 OA
HETATM   28  C1  UNL     1      -0.747   7.667   7.623  1.00  0.00     0.213 C 
ENDBRANCH  25  27
ENDBRANCH  24  25
BRANCH  24  29
HETATM   29  N15 UNL     1      -1.152   7.713  11.308  1.00  0.00    -0.088 NA
BRANCH  29  30
HETATM   30  O4  UNL     1      -2.357   8.133  10.919  1.00  0.00    -0.295 OA
ATOM     31  H4  UNL     1      -2.279   9.008  10.557  1.00  0.00     0.238 HD
ENDBRANCH  29  30
ENDBRANCH  24  29
ENDBRANCH  23  24
ENDBRANCH  22  23
ENDBRANCH  15  22
BRANCH  18  32
HETATM   32  N13 UNL     1       5.369   3.453   9.483  1.00  0.00    -0.234 N 
ATOM     33 2H13 UNL     1       6.318   3.783   9.310  1.00  0.00     0.174 HD
ATOM     34 1H13 UNL     1       5.238   2.479   9.754  1.00  0.00     0.174 HD
ENDBRANCH  18  32
ENDBRANCH  11  13
ENDBRANCH   1  11
BRANCH   6  35
HETATM   35  S2  UNL     1       0.460   2.658   2.630  1.00  0.00    -0.090 SA
BRANCH  35  36
HETATM   36  C9  UNL     1      -0.067   3.637   1.225  1.00  0.00     0.102 C 
BRANCH  36  37
HETATM   37  C10 UNL     1       0.640   3.238  -0.072  1.00  0.00     0.148 C 
BRANCH  37  38
HETATM   38  N5  UNL     1       2.043   3.079   0.206  1.00  0.00    -0.223 N 
ATOM     39  H5  UNL     1       2.370   2.166   0.518  1.00  0.00     0.177 HD
BRANCH  38  40
HETATM   40  C11 UNL     1       3.008   4.133   0.069  1.00  0.00     0.708 A 
HETATM   41  N6  UNL     1       2.594   5.400  -0.185  1.00  0.00    -0.174 N 
HETATM   42  C12 UNL     1       3.435   6.440  -0.328  1.00  0.00     0.135 A 
ATOM     43  H6  UNL     1       1.593   5.573  -0.272  1.00  0.00     0.186 HD
HETATM   44  N7  UNL     1       2.996   7.688  -0.578  1.00  0.00    -0.351 N 
HETATM   45  C16 UNL     1       4.793   6.244  -0.217  1.00  0.00     0.055 A 
HETATM   46  C13 UNL     1       3.836   8.733  -0.721  1.00  0.00     0.090 A 
ATOM     47  H7  UNL     1       1.993   7.850  -0.663  1.00  0.00     0.166 HD
HETATM   48  C14 UNL     1       5.203   8.571  -0.617  1.00  0.00     0.018 A 
HETATM   49  C15 UNL     1       5.679   7.296  -0.359  1.00  0.00     0.020 A 
HETATM   50  C17 UNL     1       5.219   4.961   0.041  1.00  0.00     0.159 A 
HETATM   51  N9  UNL     1       4.329   3.934   0.178  1.00  0.00    -0.035 N 
BRANCH  50  52
HETATM   52  N8  UNL     1       6.496   4.749   0.149  1.00  0.00    -0.382 N 
ATOM     53  H82 UNL     1       6.907   4.502   1.050  1.00  0.00     0.157 HD
ATOM     54  H81 UNL     1       7.072   4.835  -0.688  1.00  0.00     0.157 HD
ENDBRANCH  50  52
BRANCH  51  55
HETATM   55  O3  UNL     1       4.818   2.689   0.429  1.00  0.00    -0.268 OA
ATOM     56  H3  UNL     1       4.481   2.179   1.156  1.00  0.00     0.246 HD
ENDBRANCH  51  55
ENDBRANCH  38  40
ENDBRANCH  37  38
ENDBRANCH  36  37
ENDBRANCH  35  36
ENDBRANCH   6  35
TORSDOF 17
ENDMDL
MODEL 4
REMARK VINA RESULT: -8.749154666      2.132      3.811
REMARK  17 active torsions:
REMARK  status: ('A' for Active; 'I' for Inactive)
REMARK    1  A    between atoms: O1_2  and  C2_3 
REMARK    2  A    between atoms: C2_3  and  C3_5 
REMARK    3  A    between atoms: C3_5  and  C4_6 
REMARK    4  A    between atoms: C3_5  and  N15_54 
REMARK    5  A    between atoms: C4_6  and  S1_7 
REMARK    6  A    between atoms: S1_7  and  C5_8 
REMARK    7  A    between atoms: C6_11  and  N2_12 
REMARK    8  A    between atoms: N2_12  and  C7_14 
REMARK    9  A    between atoms: C8_19  and  S2_20 
REMARK   10  A    between atoms: S2_20  and  C9_21 
REMARK   11  A    between atoms: C9_21  and  C10_22 
REMARK   12  A    between atoms: C10_22  and  N5_23 
REMARK   13  A    between atoms: N5_23  and  C11_25 
REMARK   14  A    between atoms: C17_35  and  N8_36 
REMARK   15  A    between atoms: N9_39  and  O3_40 
REMARK   16  A    between atoms: C18_48  and  N13_49 
REMARK   17  A    between atoms: N15_54  and  O4_55 
ROOT
HETATM    1  C7  UNL     1       2.266   6.349   5.204  1.00  0.00     0.726 A 
HETATM    2  N3  UNL     1       2.331   7.654   5.520  1.00  0.00    -0.128 N 
ATOM      3  H3  UNL     1       1.904   7.963   6.394  1.00  0.00     0.205 HD
HETATM    4  N4  UNL     1       2.922   8.560   4.753  1.00  0.00    -0.264 N 
ATOM      5  H4  UNL     1       2.944   9.538   5.041  1.00  0.00     0.189 HD
HETATM    6  C8  UNL     1       3.493   8.187   3.593  1.00  0.00     0.174 A 
HETATM    7  N10 UNL     1       3.439   6.890   3.261  1.00  0.00    -0.264 N 
ATOM      8  H10 UNL     1       3.867   6.587   2.386  1.00  0.00     0.189 HD
HETATM    9  N11 UNL     1       2.849   5.989   4.028  1.00  0.00    -0.128 N 
ATOM     10  H11 UNL     1       2.831   5.011   3.736  1.00  0.00     0.205 HD
ENDROOT
BRANCH   1  11
HETATM   11  N2  UNL     1       1.687   5.471   5.958  1.00  0.00    -0.019 N 
ATOM     12  H2  UNL     1       0.824   5.012   5.668  1.00  0.00     0.203 HD
BRANCH  11  13
HETATM   13  C6  UNL     1       2.298   5.171   7.207  1.00  0.00     0.713 A 
HETATM   14  N1  UNL     1       1.570   5.399   8.325  1.00  0.00    -0.169 N 
HETATM   15  C5  UNL     1       2.090   5.137   9.534  1.00  0.00     0.174 A 
ATOM     16  H1  UNL     1       0.623   5.770   8.248  1.00  0.00     0.186 HD
HETATM   17  N14 UNL     1       3.352   4.642   9.629  1.00  0.00    -0.170 N 
HETATM   18  C18 UNL     1       4.086   4.409   8.533  1.00  0.00     0.692 A 
ATOM     19  H14 UNL     1       3.745   4.444  10.549  1.00  0.00     0.186 HD
HETATM   20  N12 UNL     1       3.543   4.680   7.330  1.00  0.00    -0.022 N 
ATOM     21  H12 UNL     1       4.093   4.508   6.488  1.00  0.00     0.203 HD
BRANCH  15  22
HETATM   22  S1  UNL     1       1.215   5.401  11.068  1.00  0.00    -0.091 SA
BRANCH  22  23
HETATM   23  C4  UNL     1      -0.546   5.567  10.667  1.00  0.00     0.116 C 
BRANCH  23  24
HETATM   24  C3  UNL     1      -0.794   6.976  10.155  1.00  0.00     0.215 C 
BRANCH  24  25
HETATM   25  C2  UNL     1      -1.708   6.874   8.989  1.00  0.00     0.281 C 
HETATM   26  O2  UNL     1      -2.558   5.927   8.950  1.00  0.00    -0.263 OA
BRANCH  25  27
HETATM   27  O1  UNL     1      -1.691   7.750   7.932  1.00  0.00    -0.325 OA
HETATM   28  C1  UNL     1      -0.523   8.464   7.623  1.00  0.00     0.213 C 
ENDBRANCH  25  27
ENDBRANCH  24  25
BRANCH  24  29
HETATM   29  N15 UNL     1      -1.415   7.736  11.207  1.00  0.00    -0.088 NA
BRANCH  29  30
HETATM   30  O4  UNL     1      -2.582   8.213  10.769  1.00  0.00    -0.295 OA
ATOM     31  H4  UNL     1      -2.963   8.765  11.441  1.00  0.00     0.238 HD
ENDBRANCH  29  30
ENDBRANCH  24  29
ENDBRANCH  23  24
ENDBRANCH  22  23
ENDBRANCH  15  22
BRANCH  18  32
HETATM   32  N13 UNL     1       5.288   3.940   8.567  1.00  0.00    -0.234 N 
ATOM     33 2H13 UNL     1       6.112   4.485   8.313  1.00  0.00     0.174 HD
ATOM     34 1H13 UNL     1       5.420   2.974   8.863  1.00  0.00     0.174 HD
ENDBRANCH  18  32
ENDBRANCH  11  13
ENDBRANCH   1  11
BRANCH   6  35
HETATM   35  S2  UNL     1       4.292   9.354   2.553  1.00  0.00    -0.090 SA
BRANCH  35  36
HETATM   36  C9  UNL     1       5.491   8.529   1.508  1.00  0.00     0.102 C 
BRANCH  36  37
HETATM   37  C10 UNL     1       5.131   8.600   0.023  1.00  0.00     0.148 C 
BRANCH  37  38
HETATM   38  N5  UNL     1       5.376   7.311  -0.567  1.00  0.00    -0.223 N 
ATOM     39  H5  UNL     1       6.108   7.237  -1.272  1.00  0.00     0.177 HD
BRANCH  38  40
HETATM   40  C11 UNL     1       4.648   6.124  -0.220  1.00  0.00     0.708 A 
HETATM   41  N6  UNL     1       3.300   6.174  -0.074  1.00  0.00    -0.174 N 
HETATM   42  C12 UNL     1       2.549   5.108   0.251  1.00  0.00     0.135 A 
ATOM     43  H6  UNL     1       2.832   7.069  -0.218  1.00  0.00     0.186 HD
HETATM   44  N7  UNL     1       1.211   5.187   0.388  1.00  0.00    -0.351 N 
HETATM   45  C16 UNL     1       3.146   3.884   0.453  1.00  0.00     0.055 A 
HETATM   46  C13 UNL     1       0.455   4.120   0.712  1.00  0.00     0.090 A 
ATOM     47  H7  UNL     1       0.754   6.087   0.241  1.00  0.00     0.166 HD
HETATM   48  C14 UNL     1       1.021   2.879   0.922  1.00  0.00     0.018 A 
HETATM   49  C15 UNL     1       2.396   2.771   0.787  1.00  0.00     0.020 A 
HETATM   50  C17 UNL     1       4.513   3.826   0.306  1.00  0.00     0.159 A 
HETATM   51  N9  UNL     1       5.237   4.935  -0.024  1.00  0.00    -0.035 N 
BRANCH  50  52
HETATM   52  N8  UNL     1       5.101   2.683   0.492  1.00  0.00    -0.382 N 
ATOM     53  H82 UNL     1       5.220   2.027  -0.281  1.00  0.00     0.157 HD
ATOM     54  H81 UNL     1       5.440   2.462   1.428  1.00  0.00     0.157 HD
ENDBRANCH  50  52
BRANCH  51  55
HETATM   55  O3  UNL     1       6.586   4.808  -0.151  1.00  0.00    -0.268 OA
ATOM     56  H3  UNL     1       6.977   3.952  -0.281  1.00  0.00     0.246 HD
ENDBRANCH  51  55
ENDBRANCH  38  40
ENDBRANCH  37  38
ENDBRANCH  36  37
ENDBRANCH  35  36
ENDBRANCH   6  35
TORSDOF 17
ENDMDL
MODEL 5
REMARK VINA RESULT: -8.748397282      3.772      6.518
REMARK  17 active torsions:
REMARK  status: ('A' for Active; 'I' for Inactive)
REMARK    1  A    between atoms: O1_2  and  C2_3 
REMARK    2  A    between atoms: C2_3  and  C3_5 
REMARK    3  A    between atoms: C3_5  and  C4_6 
REMARK    4  A    between atoms: C3_5  and  N15_54 
REMARK    5  A    between atoms: C4_6  and  S1_7 
REMARK    6  A    between atoms: S1_7  and  C5_8 
REMARK    7  A    between atoms: C6_11  and  N2_12 
REMARK    8  A    between atoms: N2_12  and  C7_14 
REMARK    9  A    between atoms: C8_19  and  S2_20 
REMARK   10  A    between atoms: S2_20  and  C9_21 
REMARK   11  A    between atoms: C9_21  and  C10_22 
REMARK   12  A    between atoms: C10_22  and  N5_23 
REMARK   13  A    between atoms: N5_23  and  C11_25 
REMARK   14  A    between atoms: C17_35  and  N8_36 
REMARK   15  A    between atoms: N9_39  and  O3_40 
REMARK   16  A    between atoms: C18_48  and  N13_49 
REMARK   17  A    between atoms: N15_54  and  O4_55 
ROOT
HETATM    1  C7  UNL     1      -0.715   7.991   9.885  1.00  0.00     0.726 A 
HETATM    2  N3  UNL     1      -1.108   7.882   8.605  1.00  0.00    -0.128 N 
ATOM      3  H3  UNL     1      -1.739   7.120   8.355  1.00  0.00     0.205 HD
HETATM    4  N4  UNL     1      -0.716   8.715   7.650  1.00  0.00    -0.264 N 
ATOM      5  H4  UNL     1      -1.046   8.587   6.693  1.00  0.00     0.189 HD
HETATM    6  C8  UNL     1       0.117   9.729   7.946  1.00  0.00     0.174 A 
HETATM    7  N10 UNL     1       0.519   9.854   9.218  1.00  0.00    -0.264 N 
ATOM      8  H10 UNL     1       1.150  10.618   9.462  1.00  0.00     0.189 HD
HETATM    9  N11 UNL     1       0.127   9.023  10.167  1.00  0.00    -0.128 N 
ATOM     10  H11 UNL     1       0.458   9.155  11.123  1.00  0.00     0.205 HD
ENDROOT
BRANCH   1  11
HETATM   11  N2  UNL     1      -1.102   7.173  10.811  1.00  0.00    -0.019 N 
ATOM     12  H2  UNL     1      -1.715   7.481  11.566  1.00  0.00     0.203 HD
BRANCH  11  13
HETATM   13  C6  UNL     1      -0.639   5.830  10.738  1.00  0.00     0.713 A 
HETATM   14  N1  UNL     1       0.694   5.639  10.611  1.00  0.00    -0.169 N 
HETATM   15  C5  UNL     1       1.193   4.395  10.536  1.00  0.00     0.174 A 
ATOM     16  H1  UNL     1       1.322   6.442  10.573  1.00  0.00     0.186 HD
HETATM   17  N14 UNL     1       0.352   3.330  10.588  1.00  0.00    -0.170 N 
HETATM   18  C18 UNL     1      -0.971   3.501  10.715  1.00  0.00     0.692 A 
ATOM     19  H14 UNL     1       0.733   2.385  10.530  1.00  0.00     0.186 HD
HETATM   20  N12 UNL     1      -1.449   4.758  10.788  1.00  0.00    -0.022 N 
ATOM     21  H12 UNL     1      -2.455   4.901  10.883  1.00  0.00     0.203 HD
BRANCH  15  22
HETATM   22  S1  UNL     1       2.934   4.035  10.368  1.00  0.00    -0.091 SA
BRANCH  22  23
HETATM   23  C4  UNL     1       3.814   5.003  11.624  1.00  0.00     0.116 C 
BRANCH  23  24
HETATM   24  C3  UNL     1       3.710   4.275  12.954  1.00  0.00     0.215 C 
BRANCH  24  25
HETATM   25  C2  UNL     1       3.060   5.198  13.919  1.00  0.00     0.281 C 
HETATM   26  O2  UNL     1       1.924   5.695  13.631  1.00  0.00    -0.263 OA
BRANCH  25  27
HETATM   27  O1  UNL     1       3.618   5.555  15.122  1.00  0.00    -0.325 OA
HETATM   28  C1  UNL     1       3.249   6.758  15.744  1.00  0.00     0.213 C 
ENDBRANCH  25  27
ENDBRANCH  24  25
BRANCH  24  29
HETATM   29  N15 UNL     1       2.898   3.103  12.765  1.00  0.00    -0.088 NA
BRANCH  29  30
HETATM   30  O4  UNL     1       2.307   2.791  13.920  1.00  0.00    -0.295 OA
ATOM     31  H4  UNL     1       1.398   2.573  13.754  1.00  0.00     0.238 HD
ENDBRANCH  29  30
ENDBRANCH  24  29
ENDBRANCH  23  24
ENDBRANCH  22  23
ENDBRANCH  15  22
BRANCH  18  32
HETATM   32  N13 UNL     1      -1.813   2.524  10.769  1.00  0.00    -0.234 N 
ATOM     33 2H13 UNL     1      -2.609   2.433  10.138  1.00  0.00     0.174 HD
ATOM     34 1H13 UNL     1      -1.675   1.808  11.481  1.00  0.00     0.174 HD
ENDBRANCH  18  32
ENDBRANCH  11  13
ENDBRANCH   1  11
BRANCH   6  35
HETATM   35  S2  UNL     1       0.653  10.858   6.712  1.00  0.00    -0.090 SA
BRANCH  35  36
HETATM   36  C9  UNL     1       2.210  10.313   6.013  1.00  0.00     0.102 C 
BRANCH  36  37
HETATM   37  C10 UNL     1       2.041   9.164   5.018  1.00  0.00     0.148 C 
BRANCH  37  38
HETATM   38  N5  UNL     1       2.509   7.953   5.639  1.00  0.00    -0.223 N 
ATOM     39  H5  UNL     1       3.292   8.018   6.288  1.00  0.00     0.177 HD
BRANCH  38  40
HETATM   40  C11 UNL     1       1.937   6.659   5.396  1.00  0.00     0.708 A 
HETATM   41  N6  UNL     1       1.995   6.116   4.154  1.00  0.00    -0.174 N 
HETATM   42  C12 UNL     1       1.482   4.912   3.847  1.00  0.00     0.135 A 
ATOM     43  H6  UNL     1       2.452   6.650   3.414  1.00  0.00     0.186 HD
HETATM   44  N7  UNL     1       1.555   4.396   2.605  1.00  0.00    -0.351 N 
HETATM   45  C16 UNL     1       0.859   4.163   4.820  1.00  0.00     0.055 A 
HETATM   46  C13 UNL     1       1.043   3.189   2.294  1.00  0.00     0.090 A 
ATOM     47  H7  UNL     1       2.015   4.938   1.873  1.00  0.00     0.166 HD
HETATM   48  C14 UNL     1       0.411   2.413   3.244  1.00  0.00     0.018 A 
HETATM   49  C15 UNL     1       0.324   2.922   4.530  1.00  0.00     0.020 A 
HETATM   50  C17 UNL     1       0.797   4.709   6.082  1.00  0.00     0.159 A 
HETATM   51  N9  UNL     1       1.331   5.937   6.349  1.00  0.00    -0.035 N 
BRANCH  50  52
HETATM   52  N8  UNL     1       0.213   4.023   7.018  1.00  0.00    -0.382 N 
ATOM     53  H82 UNL     1       0.350   3.015   7.087  1.00  0.00     0.157 HD
ATOM     54  H81 UNL     1      -0.384   4.521   7.679  1.00  0.00     0.157 HD
ENDBRANCH  50  52
BRANCH  51  55
HETATM   55  O3  UNL     1       1.232   6.418   7.618  1.00  0.00    -0.268 OA
ATOM     56  H3  UNL     1       0.943   7.310   7.772  1.00  0.00     0.246 HD
ENDBRANCH  51  55
ENDBRANCH  38  40
ENDBRANCH  37  38
ENDBRANCH  36  37
ENDBRANCH  35  36
ENDBRANCH   6  35
TORSDOF 17
ENDMDL
