MODEL 1
REMARK VINA RESULT: -6.213817445      0.000      0.000
REMARK  2 active torsions:
REMARK  status: ('A' for Active; 'I' for Inactive)
REMARK    1  A    between atoms: C3_9  and  C4_10 
REMARK       I    between atoms: C4_10  and  N4_12 
REMARK    2  A    between atoms: N4_12  and  N5_13 
ROOT
HETATM    1  N1  UNL     1       4.918 104.156   6.222  1.00  0.00    -0.234 N 
ATOM      2  H11 UNL     1       5.706 104.323   6.849  1.00  0.00     0.174 HD
ATOM      3  H12 UNL     1       4.538 104.971   5.741  1.00  0.00     0.174 HD
HETATM    4  C1  UNL     1       4.500 102.987   6.255  1.00  0.00     0.680 A 
HETATM    5  N2  UNL     1       3.432 102.760   5.405  1.00  0.00    -0.178 N 
ATOM      6  H2  UNL     1       2.996 103.526   4.889  1.00  0.00     0.185 HD
HETATM    7  C2  UNL     1       2.984 101.489   5.280  1.00  0.00     0.154 A 
HETATM    8  N3  UNL     1       1.881 101.254   4.376  1.00  0.00    -0.081 NA
HETATM    9  C3  UNL     1       3.537 100.437   5.950  1.00  0.00     0.158 A 
HETATM   10  C5  UNL     1       4.578 100.656   6.782  1.00  0.00     0.280 A 
HETATM   11  O2  UNL     1       5.180  99.748   7.471  1.00  0.00    -0.266 OA
HETATM   12  N6  UNL     1       5.004 101.908   6.891  1.00  0.00    -0.155 N 
ATOM     13  H6  UNL     1       5.790 102.072   7.519  1.00  0.00     0.187 HD
ENDROOT
BRANCH   9  14
HETATM   14  C4  UNL     1       2.907  99.074   5.758  1.00  0.00     0.354 C 
HETATM   15  O1  UNL     1       3.522  98.188   5.268  1.00  0.00    -0.249 OA
HETATM   16  N4  UNL     1       1.487  99.015   6.248  1.00  0.00    -0.288 NA
BRANCH  16  17
HETATM   17  N5  UNL     1       0.402  98.970   6.621  1.00  0.00    -0.276 N 
ATOM     18  H52 UNL     1       1.371  99.017   6.305  1.00  0.00     0.191 HD
ATOM     19  H51 UNL     1      -0.562  98.930   6.952  1.00  0.00     0.191 HD
ENDBRANCH  16  17
ENDBRANCH   9  14
TORSDOF 2
ENDMDL
MODEL 2
REMARK VINA RESULT: -5.929080697      1.254      2.281
REMARK  2 active torsions:
REMARK  status: ('A' for Active; 'I' for Inactive)
REMARK    1  A    between atoms: C3_9  and  C4_10 
REMARK       I    between atoms: C4_10  and  N4_12 
REMARK    2  A    between atoms: N4_12  and  N5_13 
ROOT
HETATM    1  N1  UNL     1       5.061 104.156   6.257  1.00  0.00    -0.234 N 
ATOM      2  H11 UNL     1       4.656 104.936   5.738  1.00  0.00     0.174 HD
ATOM      3  H12 UNL     1       5.886 104.363   6.821  1.00  0.00     0.174 HD
HETATM    4  C1  UNL     1       4.524 103.064   6.008  1.00  0.00     0.680 A 
HETATM    5  N2  UNL     1       5.073 102.007   6.712  1.00  0.00    -0.178 N 
ATOM      6  H2  UNL     1       5.899 102.135   7.296  1.00  0.00     0.185 HD
HETATM    7  C2  UNL     1       4.477 100.797   6.599  1.00  0.00     0.154 A 
HETATM    8  N3  UNL     1       5.042  99.700   7.351  1.00  0.00    -0.081 NA
HETATM    9  C3  UNL     1       3.371 100.582   5.829  1.00  0.00     0.158 A 
HETATM   10  C5  UNL     1       2.836 101.611   5.139  1.00  0.00     0.280 A 
HETATM   11  O2  UNL     1       1.799 101.534   4.376  1.00  0.00    -0.266 OA
HETATM   12  N6  UNL     1       3.433 102.790   5.262  1.00  0.00    -0.155 N 
ATOM     13  H6  UNL     1       3.027 103.567   4.741  1.00  0.00     0.187 HD
ENDROOT
BRANCH   9  14
HETATM   14  C4  UNL     1       2.835  99.168   5.750  1.00  0.00     0.354 C 
HETATM   15  O1  UNL     1       3.513  98.287   5.341  1.00  0.00    -0.249 OA
HETATM   16  N4  UNL     1       1.417  99.055   6.235  1.00  0.00    -0.288 NA
BRANCH  16  17
HETATM   17  N5  UNL     1       0.334  98.969   6.606  1.00  0.00    -0.276 N 
ATOM     18  H52 UNL     1       1.290  99.048   6.260  1.00  0.00     0.191 HD
ATOM     19  H51 UNL     1      -0.628  98.891   6.935  1.00  0.00     0.191 HD
ENDBRANCH  16  17
ENDBRANCH   9  14
TORSDOF 2
ENDMDL
MODEL 3
REMARK VINA RESULT: -5.649684294      1.887      2.778
REMARK  2 active torsions:
REMARK  status: ('A' for Active; 'I' for Inactive)
REMARK    1  A    between atoms: C3_9  and  C4_10 
REMARK       I    between atoms: C4_10  and  N4_12 
REMARK    2  A    between atoms: N4_12  and  N5_13 
ROOT
HETATM    1  N1  UNL     1       5.294 104.156   6.252  1.00  0.00    -0.234 N 
ATOM      2  H11 UNL     1       4.958 104.949   5.706  1.00  0.00     0.174 HD
ATOM      3  H12 UNL     1       6.122 104.315   6.825  1.00  0.00     0.174 HD
HETATM    4  C1  UNL     1       4.680 103.101   6.020  1.00  0.00     0.680 A 
HETATM    5  N2  UNL     1       5.135 102.025   6.761  1.00  0.00    -0.178 N 
ATOM      6  H2  UNL     1       5.959 102.106   7.358  1.00  0.00     0.185 HD
HETATM    7  C2  UNL     1       4.451 100.860   6.667  1.00  0.00     0.154 A 
HETATM    8  N3  UNL     1       4.919  99.745   7.458  1.00  0.00    -0.081 NA
HETATM    9  C3  UNL     1       3.346 100.708   5.882  1.00  0.00     0.158 A 
HETATM   10  C5  UNL     1       2.901 101.756   5.156  1.00  0.00     0.280 A 
HETATM   11  O2  UNL     1       1.875 101.736   4.377  1.00  0.00    -0.266 OA
HETATM   12  N6  UNL     1       3.584 102.890   5.261  1.00  0.00    -0.155 N 
ATOM     13  H6  UNL     1       3.246 103.681   4.713  1.00  0.00     0.187 HD
ENDROOT
BRANCH   9  14
HETATM   14  C4  UNL     1       2.706  99.338   5.830  1.00  0.00     0.354 C 
HETATM   15  O1  UNL     1       1.583  99.182   6.175  1.00  0.00    -0.249 OA
HETATM   16  N4  UNL     1       3.637  98.279   5.311  1.00  0.00    -0.288 NA
BRANCH  16  17
HETATM   17  N5  UNL     1       4.349  97.470   4.915  1.00  0.00    -0.276 N 
ATOM     18  H52 UNL     1       3.722  98.199   5.253  1.00  0.00     0.191 HD
ATOM     19  H51 UNL     1       4.982  96.751   4.564  1.00  0.00     0.191 HD
ENDBRANCH  16  17
ENDBRANCH   9  14
TORSDOF 2
ENDMDL
MODEL 4
REMARK VINA RESULT: -5.623791744      1.271      1.271
REMARK  2 active torsions:
REMARK  status: ('A' for Active; 'I' for Inactive)
REMARK    1  A    between atoms: C3_9  and  C4_10 
REMARK       I    between atoms: C4_10  and  N4_12 
REMARK    2  A    between atoms: N4_12  and  N5_13 
ROOT
HETATM    1  N1  UNL     1       6.030 103.406   6.872  1.00  0.00    -0.234 N 
ATOM      2  H11 UNL     1       6.753 103.053   7.499  1.00  0.00     0.174 HD
ATOM      3  H12 UNL     1       6.069 104.399   6.644  1.00  0.00     0.174 HD
HETATM    4  C1  UNL     1       5.164 102.562   6.591  1.00  0.00     0.680 A 
HETATM    5  N2  UNL     1       4.183 103.040   5.740  1.00  0.00    -0.178 N 
ATOM      6  H2  UNL     1       4.156 104.023   5.467  1.00  0.00     0.185 HD
HETATM    7  C2  UNL     1       3.262 102.161   5.280  1.00  0.00     0.154 A 
HETATM    8  N3  UNL     1       2.252 102.662   4.376  1.00  0.00    -0.081 NA
HETATM    9  C3  UNL     1       3.263 100.839   5.619  1.00  0.00     0.158 A 
HETATM   10  C5  UNL     1       4.216 100.370   6.452  1.00  0.00     0.280 A 
HETATM   11  O2  UNL     1       4.319  99.148   6.848  1.00  0.00    -0.266 OA
HETATM   12  N6  UNL     1       5.111 101.246   6.892  1.00  0.00    -0.155 N 
ATOM     13  H6  UNL     1       5.831 100.890   7.519  1.00  0.00     0.187 HD
ENDROOT
BRANCH   9  14
HETATM   14  C4  UNL     1       2.145  99.976   5.075  1.00  0.00     0.354 C 
HETATM   15  O1  UNL     1       2.383  99.048   4.378  1.00  0.00    -0.249 OA
HETATM   16  N4  UNL     1       0.784 100.435   5.519  1.00  0.00    -0.288 NA
BRANCH  16  17
HETATM   17  N5  UNL     1      -0.255 100.787   5.859  1.00  0.00    -0.276 N 
ATOM     18  H52 UNL     1       0.675 100.478   5.574  1.00  0.00     0.191 HD
ATOM     19  H51 UNL     1      -1.178 101.099   6.159  1.00  0.00     0.191 HD
ENDBRANCH  16  17
ENDBRANCH   9  14
TORSDOF 2
ENDMDL
MODEL 5
REMARK VINA RESULT: -5.448219039      1.380      1.584
REMARK  2 active torsions:
REMARK  status: ('A' for Active; 'I' for Inactive)
REMARK    1  A    between atoms: C3_9  and  C4_10 
REMARK       I    between atoms: C4_10  and  N4_12 
REMARK    2  A    between atoms: N4_12  and  N5_13 
ROOT
HETATM    1  N1  UNL     1       5.294 104.156   6.250  1.00  0.00    -0.234 N 
ATOM      2  H11 UNL     1       6.071 104.259   6.903  1.00  0.00     0.174 HD
ATOM      3  H12 UNL     1       5.025 104.988   5.727  1.00  0.00     0.174 HD
HETATM    4  C1  UNL     1       4.747 103.042   6.305  1.00  0.00     0.680 A 
HETATM    5  N2  UNL     1       3.693 102.902   5.419  1.00  0.00    -0.178 N 
ATOM      6  H2  UNL     1       3.365 103.690   4.861  1.00  0.00     0.185 HD
HETATM    7  C2  UNL     1       3.111 101.684   5.319  1.00  0.00     0.154 A 
HETATM    8  N3  UNL     1       2.023 101.537   4.379  1.00  0.00    -0.081 NA
HETATM    9  C3  UNL     1       3.518 100.603   6.046  1.00  0.00     0.158 A 
HETATM   10  C5  UNL     1       4.544 100.738   6.913  1.00  0.00     0.280 A 
HETATM   11  O2  UNL     1       5.015  99.797   7.657  1.00  0.00    -0.266 OA
HETATM   12  N6  UNL     1       5.103 101.939   6.998  1.00  0.00    -0.155 N 
ATOM     13  H6  UNL     1       5.879 102.039   7.652  1.00  0.00     0.187 HD
ENDROOT
BRANCH   9  14
HETATM   14  C4  UNL     1       2.747  99.312   5.875  1.00  0.00     0.354 C 
HETATM   15  O1  UNL     1       1.618  99.232   6.225  1.00  0.00    -0.249 OA
HETATM   16  N4  UNL     1       3.566  98.224   5.240  1.00  0.00    -0.288 NA
BRANCH  16  17
HETATM   17  N5  UNL     1       4.192  97.393   4.755  1.00  0.00    -0.276 N 
ATOM     18  H52 UNL     1       3.651  98.142   5.187  1.00  0.00     0.191 HD
ATOM     19  H51 UNL     1       4.748  96.654   4.324  1.00  0.00     0.191 HD
ENDBRANCH  16  17
ENDBRANCH   9  14
TORSDOF 2
ENDMDL
