MODEL 1
REMARK VINA RESULT: -6.997735996      0.000      0.000
REMARK  16 active torsions:
REMARK  status: ('A' for Active; 'I' for Inactive)
REMARK    1  A    between atoms: C2_2  and  N1_3 
REMARK    2  A    between atoms: C8_12  and  N2_13 
REMARK    3  A    between atoms: C9_15  and  N3_16 
REMARK    4  A    between atoms: C9_15  and  C21_44 
REMARK       I    between atoms: C10_18  and  N4_19 
REMARK       I    between atoms: C10_18  and  N8_27 
REMARK    5  A    between atoms: N4_19  and  C11_21 
REMARK    6  A    between atoms: C11_21  and  N5_22 
REMARK    7  A    between atoms: N8_27  and  C13_29 
REMARK    8  A    between atoms: C13_29  and  N9_31 
REMARK    9  A    between atoms: N9_31  and  C14_33 
REMARK   10  A    between atoms: C14_33  and  C15_34 
REMARK   11  A    between atoms: C15_34  and  C16_35 
REMARK   12  A    between atoms: C16_35  and  C17_36 
REMARK   13  A    between atoms: C17_36  and  C18_37 
REMARK   14  A    between atoms: C18_37  and  C19_38 
REMARK   15  A    between atoms: C19_38  and  C20_39 
REMARK   16  A    between atoms: C20_39  and  N10_40 
ROOT
HETATM    1  N3  UNL     1     -16.077   4.805  14.280  1.00  0.00    -0.170 N 
ATOM      2  H3  UNL     1     -16.717   4.586  15.043  1.00  0.00     0.186 HD
HETATM    3  C10 UNL     1     -15.622   6.014  14.211  1.00  0.00     0.683 C 
HETATM    4  N4  UNL     1     -16.065   6.931  15.215  1.00  0.00    -0.210 N 
ATOM      5  H4  UNL     1     -16.349   7.872  14.942  1.00  0.00     0.179 HD
HETATM    6  N8  UNL     1     -14.730   6.474  13.222  1.00  0.00    -0.166 N 
ATOM      7  H8  UNL     1     -14.911   6.191  12.259  1.00  0.00     0.186 HD
ENDROOT
BRANCH   1   8
HETATM    8  C9  UNL     1     -15.754   3.768  13.379  1.00  0.00     0.195 C 
HETATM    9  N2  UNL     1     -16.474   3.387  12.403  1.00  0.00    -0.358 N 
ATOM     10  H2  UNL     1     -16.060   2.620  11.873  1.00  0.00     0.162 HD
BRANCH   9  11
HETATM   11  C8  UNL     1     -17.700   3.794  11.908  1.00  0.00     0.072 C 
HETATM   12  C2  UNL     1     -18.922   3.188  12.548  1.00  0.00     0.146 C 
HETATM   13  C1  UNL     1     -18.732   1.825  13.108  1.00  0.00     0.049 C 
HETATM   14  C3  UNL     1     -19.965   3.238  11.441  1.00  0.00     0.050 C 
HETATM   15  C4  UNL     1     -19.307   3.996  10.318  1.00  0.00    -0.032 C 
HETATM   16  C5  UNL     1     -19.938   3.855   9.004  1.00  0.00     0.016 C 
HETATM   17  C6  UNL     1     -19.091   5.412  10.793  1.00  0.00     0.012 C 
HETATM   18  C22 UNL     1     -17.898   3.446  10.413  1.00  0.00    -0.013 C 
HETATM   19  C7  UNL     1     -17.957   5.284  11.821  1.00  0.00     0.035 C 
HETATM   20  C23 UNL     1     -17.784   1.996  10.151  1.00  0.00     0.018 C 
HETATM   21  C24 UNL     1     -16.900   4.184   9.581  1.00  0.00     0.018 C 
BRANCH  12  22
HETATM   22  N1  UNL     1     -19.369   4.059  13.627  1.00  0.00    -0.068 N 
ATOM     23  H13 UNL     1     -19.996   3.588  14.280  1.00  0.00     0.275 HD
ATOM     24  H12 UNL     1     -18.625   4.282  14.288  1.00  0.00     0.275 HD
ATOM     25  H11 UNL     1     -19.787   4.890  13.208  1.00  0.00     0.275 HD
ENDBRANCH  12  22
ENDBRANCH   9  11
BRANCH   8  26
HETATM   26  C21 UNL     1     -14.454   3.105  13.624  1.00  0.00     0.245 C 
HETATM   27  O1  UNL     1     -13.445   3.614  13.107  1.00  0.00    -0.642 OA
HETATM   28  O2  UNL     1     -14.340   1.964  14.395  1.00  0.00    -0.642 OA
ENDBRANCH   8  26
ENDBRANCH   1   8
BRANCH   4  29
HETATM   29  C11 UNL     1     -16.118   6.554  16.590  1.00  0.00     0.264 C 
BRANCH  29  30
HETATM   30  N5  UNL     1     -15.183   7.284  17.360  1.00  0.00    -0.350 N 
HETATM   31  C12 UNL     1     -14.929   8.528  17.355  1.00  0.00     0.198 C 
HETATM   32  N6  UNL     1     -13.915   9.031  18.251  1.00  0.00    -0.067 NA
HETATM   33  N7  UNL     1     -15.562   9.507  16.529  1.00  0.00    -0.067 NA
ATOM     34  H5  UNL     1     -14.632   6.730  18.016  1.00  0.00     0.163 HD
ENDBRANCH  29  30
ENDBRANCH   4  29
BRANCH   6  35
HETATM   35  C13 UNL     1     -13.599   7.301  13.457  1.00  0.00     0.186 C 
HETATM   36  S1  UNL     1     -13.654   8.920  13.316  1.00  0.00    -0.040 SA
BRANCH  35  37
HETATM   37  N9  UNL     1     -12.378   6.690  13.835  1.00  0.00    -0.367 N 
ATOM     38  H9  UNL     1     -12.306   6.187  14.719  1.00  0.00     0.161 HD
BRANCH  37  39
HETATM   39  C14 UNL     1     -11.248   6.785  12.966  1.00  0.00     0.122 C 
BRANCH  39  40
HETATM   40  C15 UNL     1     -11.498   6.196  11.590  1.00  0.00     0.020 C 
BRANCH  40  41
HETATM   41  C16 UNL     1     -10.617   5.030  11.309  1.00  0.00     0.002 C 
BRANCH  41  42
HETATM   42  C17 UNL     1      -9.932   4.573  12.561  1.00  0.00     0.000 C 
BRANCH  42  43
HETATM   43  C18 UNL     1      -8.684   3.825  12.241  1.00  0.00     0.002 C 
BRANCH  43  44
HETATM   44  C19 UNL     1      -7.619   4.107  13.293  1.00  0.00     0.027 C 
BRANCH  44  45
HETATM   45  C20 UNL     1      -7.488   5.593  13.521  1.00  0.00     0.229 C 
BRANCH  45  46
HETATM   46  N10 UNL     1      -6.321   5.822  14.362  1.00  0.00    -0.079 N 
ATOM     47 3H10 UNL     1      -5.893   4.955  14.686  1.00  0.00     0.274 HD
ATOM     48 2H10 UNL     1      -5.523   6.182  13.839  1.00  0.00     0.274 HD
ATOM     49 1H10 UNL     1      -6.597   6.436  15.129  1.00  0.00     0.274 HD
ENDBRANCH  45  46
ENDBRANCH  44  45
ENDBRANCH  43  44
ENDBRANCH  42  43
ENDBRANCH  41  42
ENDBRANCH  40  41
ENDBRANCH  39  40
ENDBRANCH  37  39
ENDBRANCH  35  37
ENDBRANCH   6  35
TORSDOF 16
ENDMDL
MODEL 2
REMARK VINA RESULT: -6.765976783      3.971      8.023
REMARK  16 active torsions:
REMARK  status: ('A' for Active; 'I' for Inactive)
REMARK    1  A    between atoms: C2_2  and  N1_3 
REMARK    2  A    between atoms: C8_12  and  N2_13 
REMARK    3  A    between atoms: C9_15  and  N3_16 
REMARK    4  A    between atoms: C9_15  and  C21_44 
REMARK       I    between atoms: C10_18  and  N4_19 
REMARK       I    between atoms: C10_18  and  N8_27 
REMARK    5  A    between atoms: N4_19  and  C11_21 
REMARK    6  A    between atoms: C11_21  and  N5_22 
REMARK    7  A    between atoms: N8_27  and  C13_29 
REMARK    8  A    between atoms: C13_29  and  N9_31 
REMARK    9  A    between atoms: N9_31  and  C14_33 
REMARK   10  A    between atoms: C14_33  and  C15_34 
REMARK   11  A    between atoms: C15_34  and  C16_35 
REMARK   12  A    between atoms: C16_35  and  C17_36 
REMARK   13  A    between atoms: C17_36  and  C18_37 
REMARK   14  A    between atoms: C18_37  and  C19_38 
REMARK   15  A    between atoms: C19_38  and  C20_39 
REMARK   16  A    between atoms: C20_39  and  N10_40 
ROOT
HETATM    1  N3  UNL     1     -12.271   7.742  11.817  1.00  0.00    -0.170 N 
ATOM      2  H3  UNL     1     -11.605   8.302  12.347  1.00  0.00     0.186 HD
HETATM    3  C10 UNL     1     -11.834   6.657  11.264  1.00  0.00     0.683 C 
HETATM    4  N4  UNL     1     -10.450   6.350  11.449  1.00  0.00    -0.210 N 
ATOM      5  H4  UNL     1      -9.898   6.031  10.652  1.00  0.00     0.179 HD
HETATM    6  N8  UNL     1     -12.627   5.775  10.504  1.00  0.00    -0.166 N 
ATOM      7  H8  UNL     1     -13.274   6.187   9.832  1.00  0.00     0.186 HD
ENDROOT
BRANCH   1   8
HETATM    8  C9  UNL     1     -13.602   8.207  11.742  1.00  0.00     0.195 C 
HETATM    9  N2  UNL     1     -14.031   9.086  10.929  1.00  0.00    -0.358 N 
ATOM     10  H2  UNL     1     -15.026   9.282  11.038  1.00  0.00     0.162 HD
BRANCH   9  11
HETATM   11  C8  UNL     1     -13.434   9.832   9.929  1.00  0.00     0.072 C 
HETATM   12  C2  UNL     1     -12.701  11.076  10.359  1.00  0.00     0.146 C 
HETATM   13  C1  UNL     1     -13.219  11.719  11.594  1.00  0.00     0.049 C 
HETATM   14  C3  UNL     1     -12.783  11.978   9.137  1.00  0.00     0.050 C 
HETATM   15  C4  UNL     1     -13.419  11.130   8.067  1.00  0.00    -0.032 C 
HETATM   16  C5  UNL     1     -13.964  11.861   6.921  1.00  0.00     0.016 C 
HETATM   17  C6  UNL     1     -12.454  10.018   7.738  1.00  0.00     0.012 C 
HETATM   18  C22 UNL     1     -14.445  10.381   8.894  1.00  0.00    -0.013 C 
HETATM   19  C7  UNL     1     -12.515   9.103   8.970  1.00  0.00     0.035 C 
HETATM   20  C23 UNL     1     -15.480  11.237   9.514  1.00  0.00     0.018 C 
HETATM   21  C24 UNL     1     -15.100   9.249   8.171  1.00  0.00     0.018 C 
BRANCH  12  22
HETATM   22  N1  UNL     1     -11.300  10.743  10.580  1.00  0.00    -0.068 N 
ATOM     23  H13 UNL     1     -10.750  11.541  10.898  1.00  0.00     0.275 HD
ATOM     24  H12 UNL     1     -11.159  10.147  11.396  1.00  0.00     0.275 HD
ATOM     25  H11 UNL     1     -10.935  10.329   9.722  1.00  0.00     0.275 HD
ENDBRANCH  12  22
ENDBRANCH   9  11
BRANCH   8  26
HETATM   26  C21 UNL     1     -14.542   7.583  12.699  1.00  0.00     0.245 C 
HETATM   27  O1  UNL     1     -14.295   7.712  13.910  1.00  0.00    -0.642 OA
HETATM   28  O2  UNL     1     -15.658   6.881  12.287  1.00  0.00    -0.642 OA
ENDBRANCH   8  26
ENDBRANCH   1   8
BRANCH   4  29
HETATM   29  C11 UNL     1      -9.826   6.480  12.726  1.00  0.00     0.264 C 
BRANCH  29  30
HETATM   30  N5  UNL     1      -8.594   5.787  12.770  1.00  0.00    -0.350 N 
HETATM   31  C12 UNL     1      -8.350   4.561  12.550  1.00  0.00     0.198 C 
HETATM   32  N6  UNL     1      -6.988   4.096  12.662  1.00  0.00    -0.067 NA
HETATM   33  N7  UNL     1      -9.313   3.568  12.194  1.00  0.00    -0.067 NA
ATOM     34  H5  UNL     1      -7.784   6.355  13.016  1.00  0.00     0.163 HD
ENDBRANCH  29  30
ENDBRANCH   4  29
BRANCH   6  35
HETATM   35  C13 UNL     1     -12.598   4.358  10.598  1.00  0.00     0.186 C 
HETATM   36  S1  UNL     1     -12.836   3.390   9.313  1.00  0.00    -0.040 SA
BRANCH  35  37
HETATM   37  N9  UNL     1     -12.348   3.766  11.861  1.00  0.00    -0.367 N 
ATOM     38  H9  UNL     1     -11.597   3.084  11.970  1.00  0.00     0.161 HD
BRANCH  37  39
HETATM   39  C14 UNL     1     -13.157   4.132  12.980  1.00  0.00     0.122 C 
BRANCH  39  40
HETATM   40  C15 UNL     1     -14.554   3.542  12.929  1.00  0.00     0.020 C 
BRANCH  40  41
HETATM   41  C16 UNL     1     -14.831   2.650  14.088  1.00  0.00     0.002 C 
BRANCH  41  42
HETATM   42  C17 UNL     1     -16.282   2.280  14.133  1.00  0.00     0.000 C 
BRANCH  42  43
HETATM   43  C18 UNL     1     -17.076   3.130  13.201  1.00  0.00     0.002 C 
BRANCH  43  44
HETATM   44  C19 UNL     1     -18.118   2.285  12.479  1.00  0.00     0.027 C 
BRANCH  44  45
HETATM   45  C20 UNL     1     -17.976   2.440  10.985  1.00  0.00     0.229 C 
BRANCH  45  46
HETATM   46  N10 UNL     1     -18.359   1.182  10.359  1.00  0.00    -0.079 N 
ATOM     47 3H10 UNL     1     -19.167   0.749  10.808  1.00  0.00     0.274 HD
ATOM     48 2H10 UNL     1     -18.769   1.312   9.434  1.00  0.00     0.274 HD
ATOM     49 1H10 UNL     1     -17.543   0.571  10.345  1.00  0.00     0.274 HD
ENDBRANCH  45  46
ENDBRANCH  44  45
ENDBRANCH  43  44
ENDBRANCH  42  43
ENDBRANCH  41  42
ENDBRANCH  40  41
ENDBRANCH  39  40
ENDBRANCH  37  39
ENDBRANCH  35  37
ENDBRANCH   6  35
TORSDOF 16
ENDMDL
MODEL 3
REMARK VINA RESULT: -6.667703109      2.430      5.652
REMARK  16 active torsions:
REMARK  status: ('A' for Active; 'I' for Inactive)
REMARK    1  A    between atoms: C2_2  and  N1_3 
REMARK    2  A    between atoms: C8_12  and  N2_13 
REMARK    3  A    between atoms: C9_15  and  N3_16 
REMARK    4  A    between atoms: C9_15  and  C21_44 
REMARK       I    between atoms: C10_18  and  N4_19 
REMARK       I    between atoms: C10_18  and  N8_27 
REMARK    5  A    between atoms: N4_19  and  C11_21 
REMARK    6  A    between atoms: C11_21  and  N5_22 
REMARK    7  A    between atoms: N8_27  and  C13_29 
REMARK    8  A    between atoms: C13_29  and  N9_31 
REMARK    9  A    between atoms: N9_31  and  C14_33 
REMARK   10  A    between atoms: C14_33  and  C15_34 
REMARK   11  A    between atoms: C15_34  and  C16_35 
REMARK   12  A    between atoms: C16_35  and  C17_36 
REMARK   13  A    between atoms: C17_36  and  C18_37 
REMARK   14  A    between atoms: C18_37  and  C19_38 
REMARK   15  A    between atoms: C19_38  and  C20_39 
REMARK   16  A    between atoms: C20_39  and  N10_40 
ROOT
HETATM    1  N3  UNL     1     -16.909   4.301  12.769  1.00  0.00    -0.170 N 
ATOM      2  H3  UNL     1     -17.873   4.628  12.814  1.00  0.00     0.186 HD
HETATM    3  C10 UNL     1     -16.372   4.182  11.597  1.00  0.00     0.683 C 
HETATM    4  N4  UNL     1     -17.190   4.520  10.475  1.00  0.00    -0.210 N 
ATOM      5  H4  UNL     1     -17.195   3.910   9.657  1.00  0.00     0.179 HD
HETATM    6  N8  UNL     1     -15.052   3.748  11.366  1.00  0.00    -0.166 N 
ATOM      7  H8  UNL     1     -14.721   2.948  11.905  1.00  0.00     0.186 HD
ENDROOT
BRANCH   1   8
HETATM    8  C9  UNL     1     -16.258   4.012  13.987  1.00  0.00     0.195 C 
HETATM    9  N2  UNL     1     -15.964   4.861  14.887  1.00  0.00    -0.358 N 
ATOM     10  H2  UNL     1     -15.495   4.448  15.692  1.00  0.00     0.162 HD
BRANCH   9  11
HETATM   11  C8  UNL     1     -16.146   6.228  15.002  1.00  0.00     0.072 C 
HETATM   12  C2  UNL     1     -15.082   7.106  14.398  1.00  0.00     0.146 C 
HETATM   13  C1  UNL     1     -13.721   6.511  14.358  1.00  0.00     0.049 C 
HETATM   14  C3  UNL     1     -15.153   8.377  15.231  1.00  0.00     0.050 C 
HETATM   15  C4  UNL     1     -16.340   8.183  16.137  1.00  0.00    -0.032 C 
HETATM   16  C5  UNL     1     -16.404   9.078  17.296  1.00  0.00     0.016 C 
HETATM   17  C6  UNL     1     -17.572   8.149  15.268  1.00  0.00     0.012 C 
HETATM   18  C22 UNL     1     -16.185   6.714  16.471  1.00  0.00    -0.013 C 
HETATM   19  C7  UNL     1     -17.476   6.795  14.550  1.00  0.00     0.035 C 
HETATM   20  C23 UNL     1     -14.951   6.377  17.211  1.00  0.00     0.018 C 
HETATM   21  C24 UNL     1     -17.365   6.122  17.172  1.00  0.00     0.018 C 
BRANCH  12  22
HETATM   22  N1  UNL     1     -15.466   7.439  13.033  1.00  0.00    -0.068 N 
ATOM     23  H13 UNL     1     -15.602   8.441  12.894  1.00  0.00     0.275 HD
ATOM     24  H12 UNL     1     -14.705   7.312  12.365  1.00  0.00     0.275 HD
ATOM     25  H11 UNL     1     -16.295   6.893  12.797  1.00  0.00     0.275 HD
ENDBRANCH  12  22
ENDBRANCH   9  11
BRANCH   8  26
HETATM   26  C21 UNL     1     -15.921   2.586  14.198  1.00  0.00     0.245 C 
HETATM   27  O1  UNL     1     -14.722   2.266  14.134  1.00  0.00    -0.642 OA
HETATM   28  O2  UNL     1     -16.884   1.631  14.459  1.00  0.00    -0.642 OA
ENDBRANCH   8  26
ENDBRANCH   1   8
BRANCH   4  29
HETATM   29  C11 UNL     1     -18.001   5.695  10.475  1.00  0.00     0.264 C 
BRANCH  29  30
HETATM   30  N5  UNL     1     -18.148   6.220   9.170  1.00  0.00    -0.350 N 
HETATM   31  C12 UNL     1     -17.274   6.727   8.402  1.00  0.00     0.198 C 
HETATM   32  N6  UNL     1     -17.687   7.195   7.100  1.00  0.00    -0.067 NA
HETATM   33  N7  UNL     1     -15.887   6.887   8.703  1.00  0.00    -0.067 NA
ATOM     34  H5  UNL     1     -19.094   6.186   8.791  1.00  0.00     0.163 HD
ENDBRANCH  29  30
ENDBRANCH   4  29
BRANCH   6  35
HETATM   35  C13 UNL     1     -14.146   4.335  10.443  1.00  0.00     0.186 C 
HETATM   36  S1  UNL     1     -13.546   3.523   9.168  1.00  0.00    -0.040 SA
BRANCH  35  37
HETATM   37  N9  UNL     1     -13.753   5.682  10.639  1.00  0.00    -0.367 N 
ATOM     38  H9  UNL     1     -14.422   6.367  10.990  1.00  0.00     0.161 HD
BRANCH  37  39
HETATM   39  C14 UNL     1     -12.412   6.072  10.342  1.00  0.00     0.122 C 
BRANCH  39  40
HETATM   40  C15 UNL     1     -11.459   5.884  11.508  1.00  0.00     0.020 C 
BRANCH  40  41
HETATM   41  C16 UNL     1     -10.641   4.648  11.373  1.00  0.00     0.002 C 
BRANCH  41  42
HETATM   42  C17 UNL     1      -9.503   4.662  12.348  1.00  0.00     0.000 C 
BRANCH  42  43
HETATM   43  C18 UNL     1      -9.332   6.015  12.947  1.00  0.00     0.002 C 
BRANCH  43  44
HETATM   44  C19 UNL     1      -7.853   6.321  13.139  1.00  0.00     0.027 C 
BRANCH  44  45
HETATM   45  C20 UNL     1      -7.140   5.123  13.718  1.00  0.00     0.229 C 
BRANCH  45  46
HETATM   46  N10 UNL     1      -6.316   5.578  14.830  1.00  0.00    -0.079 N 
ATOM     47 3H10 UNL     1      -6.852   6.083  15.536  1.00  0.00     0.274 HD
ATOM     48 2H10 UNL     1      -5.996   4.812  15.423  1.00  0.00     0.274 HD
ATOM     49 1H10 UNL     1      -5.546   6.130  14.452  1.00  0.00     0.274 HD
ENDBRANCH  45  46
ENDBRANCH  44  45
ENDBRANCH  43  44
ENDBRANCH  42  43
ENDBRANCH  41  42
ENDBRANCH  40  41
ENDBRANCH  39  40
ENDBRANCH  37  39
ENDBRANCH  35  37
ENDBRANCH   6  35
TORSDOF 16
ENDMDL
MODEL 4
REMARK VINA RESULT: -6.665228617      3.566      6.962
REMARK  16 active torsions:
REMARK  status: ('A' for Active; 'I' for Inactive)
REMARK    1  A    between atoms: C2_2  and  N1_3 
REMARK    2  A    between atoms: C8_12  and  N2_13 
REMARK    3  A    between atoms: C9_15  and  N3_16 
REMARK    4  A    between atoms: C9_15  and  C21_44 
REMARK       I    between atoms: C10_18  and  N4_19 
REMARK       I    between atoms: C10_18  and  N8_27 
REMARK    5  A    between atoms: N4_19  and  C11_21 
REMARK    6  A    between atoms: C11_21  and  N5_22 
REMARK    7  A    between atoms: N8_27  and  C13_29 
REMARK    8  A    between atoms: C13_29  and  N9_31 
REMARK    9  A    between atoms: N9_31  and  C14_33 
REMARK   10  A    between atoms: C14_33  and  C15_34 
REMARK   11  A    between atoms: C15_34  and  C16_35 
REMARK   12  A    between atoms: C16_35  and  C17_36 
REMARK   13  A    between atoms: C17_36  and  C18_37 
REMARK   14  A    between atoms: C18_37  and  C19_38 
REMARK   15  A    between atoms: C19_38  and  C20_39 
REMARK   16  A    between atoms: C20_39  and  N10_40 
ROOT
HETATM    1  N3  UNL     1     -12.625   9.201  13.788  1.00  0.00    -0.170 N 
ATOM      2  H3  UNL     1     -12.048   8.771  14.512  1.00  0.00     0.186 HD
HETATM    3  C10 UNL     1     -12.283   9.002  12.556  1.00  0.00     0.683 C 
HETATM    4  N4  UNL     1     -11.123   8.198  12.328  1.00  0.00    -0.210 N 
ATOM      5  H4  UNL     1     -10.435   8.497  11.636  1.00  0.00     0.179 HD
HETATM    6  N8  UNL     1     -12.975   9.522  11.444  1.00  0.00    -0.166 N 
ATOM      7  H8  UNL     1     -13.279  10.494  11.494  1.00  0.00     0.186 HD
ENDROOT
BRANCH   1   8
HETATM    8  C9  UNL     1     -13.734   9.967  14.205  1.00  0.00     0.195 C 
HETATM    9  N2  UNL     1     -14.822   9.499  14.667  1.00  0.00    -0.358 N 
ATOM     10  H2  UNL     1     -15.500  10.222  14.910  1.00  0.00     0.162 HD
BRANCH   9  11
HETATM   11  C8  UNL     1     -15.281   8.216  14.909  1.00  0.00     0.072 C 
HETATM   12  C2  UNL     1     -16.436   7.741  14.067  1.00  0.00     0.146 C 
HETATM   13  C1  UNL     1     -17.352   8.809  13.591  1.00  0.00     0.049 C 
HETATM   14  C3  UNL     1     -17.125   6.715  14.955  1.00  0.00     0.050 C 
HETATM   15  C4  UNL     1     -16.233   6.580  16.160  1.00  0.00    -0.032 C 
HETATM   16  C5  UNL     1     -16.847   5.955  17.335  1.00  0.00     0.016 C 
HETATM   17  C6  UNL     1     -14.935   5.968  15.695  1.00  0.00     0.012 C 
HETATM   18  C22 UNL     1     -15.816   8.024  16.348  1.00  0.00    -0.013 C 
HETATM   19  C7  UNL     1     -14.260   7.098  14.905  1.00  0.00     0.035 C 
HETATM   20  C23 UNL     1     -16.924   8.949  16.668  1.00  0.00     0.018 C 
HETATM   21  C24 UNL     1     -14.708   8.213  17.334  1.00  0.00     0.018 C 
BRANCH  12  22
HETATM   22  N1  UNL     1     -15.912   7.046  12.899  1.00  0.00    -0.068 N 
ATOM     23  H13 UNL     1     -16.644   6.758  12.249  1.00  0.00     0.275 HD
ATOM     24  H12 UNL     1     -15.403   7.664  12.267  1.00  0.00     0.275 HD
ATOM     25  H11 UNL     1     -15.346   6.263  13.226  1.00  0.00     0.275 HD
ENDBRANCH  12  22
ENDBRANCH   9  11
BRANCH   8  26
HETATM   26  C21 UNL     1     -13.566  11.433  14.088  1.00  0.00     0.245 C 
HETATM   27  O1  UNL     1     -13.189  12.049  15.099  1.00  0.00    -0.642 OA
HETATM   28  O2  UNL     1     -13.811  12.111  12.910  1.00  0.00    -0.642 OA
ENDBRANCH   8  26
ENDBRANCH   1   8
BRANCH   4  29
HETATM   29  C11 UNL     1     -10.909   6.985  13.049  1.00  0.00     0.264 C 
BRANCH  29  30
HETATM   30  N5  UNL     1      -9.530   6.721  13.215  1.00  0.00    -0.350 N 
HETATM   31  C12 UNL     1      -8.879   5.656  12.983  1.00  0.00     0.198 C 
HETATM   32  N6  UNL     1      -7.458   5.645  13.239  1.00  0.00    -0.067 NA
HETATM   33  N7  UNL     1      -9.425   4.434  12.484  1.00  0.00    -0.067 NA
ATOM     34  H5  UNL     1      -8.977   7.500  13.573  1.00  0.00     0.163 HD
ENDBRANCH  29  30
ENDBRANCH   4  29
BRANCH   6  35
HETATM   35  C13 UNL     1     -13.283   8.801  10.259  1.00  0.00     0.186 C 
HETATM   36  S1  UNL     1     -12.878   9.337   8.779  1.00  0.00    -0.040 SA
BRANCH  35  37
HETATM   37  N9  UNL     1     -13.965   7.564  10.374  1.00  0.00    -0.367 N 
ATOM     38  H9  UNL     1     -14.957   7.544  10.610  1.00  0.00     0.161 HD
BRANCH  37  39
HETATM   39  C14 UNL     1     -13.251   6.347  10.157  1.00  0.00     0.122 C 
BRANCH  39  40
HETATM   40  C15 UNL     1     -13.965   5.126  10.710  1.00  0.00     0.020 C 
BRANCH  40  41
HETATM   41  C16 UNL     1     -13.049   4.237  11.475  1.00  0.00     0.002 C 
BRANCH  41  42
HETATM   42  C17 UNL     1     -13.618   3.933  12.827  1.00  0.00     0.000 C 
BRANCH  42  43
HETATM   43  C18 UNL     1     -15.063   3.583  12.729  1.00  0.00     0.002 C 
BRANCH  43  44
HETATM   44  C19 UNL     1     -15.489   2.765  13.940  1.00  0.00     0.027 C 
BRANCH  44  45
HETATM   45  C20 UNL     1     -16.913   3.091  14.320  1.00  0.00     0.229 C 
BRANCH  45  46
HETATM   46  N10 UNL     1     -17.648   1.839  14.443  1.00  0.00    -0.079 N 
ATOM     47 3H10 UNL     1     -18.203   1.626  13.614  1.00  0.00     0.274 HD
ATOM     48 2H10 UNL     1     -17.040   1.021  14.416  1.00  0.00     0.274 HD
ATOM     49 1H10 UNL     1     -18.211   1.883  15.293  1.00  0.00     0.274 HD
ENDBRANCH  45  46
ENDBRANCH  44  45
ENDBRANCH  43  44
ENDBRANCH  42  43
ENDBRANCH  41  42
ENDBRANCH  40  41
ENDBRANCH  39  40
ENDBRANCH  37  39
ENDBRANCH  35  37
ENDBRANCH   6  35
TORSDOF 16
ENDMDL
MODEL 5
REMARK VINA RESULT: -6.654564786      3.617      6.639
REMARK  16 active torsions:
REMARK  status: ('A' for Active; 'I' for Inactive)
REMARK    1  A    between atoms: C2_2  and  N1_3 
REMARK    2  A    between atoms: C8_12  and  N2_13 
REMARK    3  A    between atoms: C9_15  and  N3_16 
REMARK    4  A    between atoms: C9_15  and  C21_44 
REMARK       I    between atoms: C10_18  and  N4_19 
REMARK       I    between atoms: C10_18  and  N8_27 
REMARK    5  A    between atoms: N4_19  and  C11_21 
REMARK    6  A    between atoms: C11_21  and  N5_22 
REMARK    7  A    between atoms: N8_27  and  C13_29 
REMARK    8  A    between atoms: C13_29  and  N9_31 
REMARK    9  A    between atoms: N9_31  and  C14_33 
REMARK   10  A    between atoms: C14_33  and  C15_34 
REMARK   11  A    between atoms: C15_34  and  C16_35 
REMARK   12  A    between atoms: C16_35  and  C17_36 
REMARK   13  A    between atoms: C17_36  and  C18_37 
REMARK   14  A    between atoms: C18_37  and  C19_38 
REMARK   15  A    between atoms: C19_38  and  C20_39 
REMARK   16  A    between atoms: C20_39  and  N10_40 
ROOT
HETATM    1  N3  UNL     1     -12.884   9.240  14.019  1.00  0.00    -0.170 N 
ATOM      2  H3  UNL     1     -12.298   8.727  14.677  1.00  0.00     0.186 HD
HETATM    3  C10 UNL     1     -12.537   9.227  12.773  1.00  0.00     0.683 C 
HETATM    4  N4  UNL     1     -11.357   8.492  12.439  1.00  0.00    -0.210 N 
ATOM      5  H4  UNL     1     -10.676   8.903  11.799  1.00  0.00     0.179 HD
HETATM    6  N8  UNL     1     -13.241   9.881  11.743  1.00  0.00    -0.166 N 
ATOM      7  H8  UNL     1     -13.570  10.829  11.929  1.00  0.00     0.186 HD
ENDROOT
BRANCH   1   8
HETATM    8  C9  UNL     1     -14.013   9.911  14.536  1.00  0.00     0.195 C 
HETATM    9  N2  UNL     1     -15.013   9.355  15.090  1.00  0.00    -0.358 N 
ATOM     10  H2  UNL     1     -15.725  10.019  15.395  1.00  0.00     0.162 HD
BRANCH   9  11
HETATM   11  C8  UNL     1     -15.339   8.039  15.366  1.00  0.00     0.072 C 
HETATM   12  C2  UNL     1     -15.847   7.212  14.215  1.00  0.00     0.146 C 
HETATM   13  C1  UNL     1     -16.556   7.974  13.154  1.00  0.00     0.049 C 
HETATM   14  C3  UNL     1     -16.726   6.168  14.887  1.00  0.00     0.050 C 
HETATM   15  C4  UNL     1     -16.533   6.387  16.364  1.00  0.00    -0.032 C 
HETATM   16  C5  UNL     1     -17.546   5.781  17.232  1.00  0.00     0.016 C 
HETATM   17  C6  UNL     1     -15.101   6.042  16.689  1.00  0.00     0.012 C 
HETATM   18  C22 UNL     1     -16.478   7.901  16.405  1.00  0.00    -0.013 C 
HETATM   19  C7  UNL     1     -14.297   7.196  16.072  1.00  0.00     0.035 C 
HETATM   20  C23 UNL     1     -17.721   8.574  15.974  1.00  0.00     0.018 C 
HETATM   21  C24 UNL     1     -16.039   8.457  17.721  1.00  0.00     0.018 C 
BRANCH  12  22
HETATM   22  N1  UNL     1     -14.722   6.524  13.597  1.00  0.00    -0.068 N 
ATOM     23  H13 UNL     1     -14.423   6.960  12.725  1.00  0.00     0.275 HD
ATOM     24  H12 UNL     1     -13.851   6.646  14.115  1.00  0.00     0.275 HD
ATOM     25  H11 UNL     1     -14.977   5.543  13.481  1.00  0.00     0.275 HD
ENDBRANCH  12  22
ENDBRANCH   9  11
BRANCH   8  26
HETATM   26  C21 UNL     1     -13.980  11.386  14.411  1.00  0.00     0.245 C 
HETATM   27  O1  UNL     1     -13.212  12.008  15.164  1.00  0.00    -0.642 OA
HETATM   28  O2  UNL     1     -14.762  12.066  13.498  1.00  0.00    -0.642 OA
ENDBRANCH   8  26
ENDBRANCH   1   8
BRANCH   4  29
HETATM   29  C11 UNL     1     -11.113   7.195  12.982  1.00  0.00     0.264 C 
BRANCH  29  30
HETATM   30  N5  UNL     1      -9.752   7.030  13.328  1.00  0.00    -0.350 N 
HETATM   31  C12 UNL     1      -8.887   6.236  12.845  1.00  0.00     0.198 C 
HETATM   32  N6  UNL     1      -7.547   6.264  13.381  1.00  0.00    -0.067 NA
HETATM   33  N7  UNL     1      -9.112   5.291  11.798  1.00  0.00    -0.067 NA
ATOM     34  H5  UNL     1      -9.416   7.637  14.076  1.00  0.00     0.163 HD
ENDBRANCH  29  30
ENDBRANCH   4  29
BRANCH   6  35
HETATM   35  C13 UNL     1     -13.529   9.329  10.467  1.00  0.00     0.186 C 
HETATM   36  S1  UNL     1     -13.224  10.121   9.080  1.00  0.00    -0.040 SA
BRANCH  35  37
HETATM   37  N9  UNL     1     -14.101   8.034  10.401  1.00  0.00    -0.367 N 
ATOM     38  H9  UNL     1     -13.680   7.259  10.913  1.00  0.00     0.161 HD
BRANCH  37  39
HETATM   39  C14 UNL     1     -15.272   7.824   9.611  1.00  0.00     0.122 C 
BRANCH  39  40
HETATM   40  C15 UNL     1     -15.463   6.377   9.194  1.00  0.00     0.020 C 
BRANCH  40  41
HETATM   41  C16 UNL     1     -15.949   5.528  10.316  1.00  0.00     0.002 C 
BRANCH  41  42
HETATM   42  C17 UNL     1     -15.022   4.373  10.542  1.00  0.00     0.000 C 
BRANCH  42  43
HETATM   43  C18 UNL     1     -13.935   4.356   9.523  1.00  0.00     0.002 C 
BRANCH  43  44
HETATM   44  C19 UNL     1     -12.578   4.234  10.203  1.00  0.00     0.027 C 
BRANCH  44  45
HETATM   45  C20 UNL     1     -12.753   4.034  11.689  1.00  0.00     0.229 C 
BRANCH  45  46
HETATM   46  N10 UNL     1     -11.478   3.594  12.241  1.00  0.00    -0.079 N 
ATOM     47 3H10 UNL     1     -10.744   3.534  11.536  1.00  0.00     0.274 HD
ATOM     48 2H10 UNL     1     -11.042   4.300  12.835  1.00  0.00     0.274 HD
ATOM     49 1H10 UNL     1     -11.629   2.710  12.728  1.00  0.00     0.274 HD
ENDBRANCH  45  46
ENDBRANCH  44  45
ENDBRANCH  43  44
ENDBRANCH  42  43
ENDBRANCH  41  42
ENDBRANCH  40  41
ENDBRANCH  39  40
ENDBRANCH  37  39
ENDBRANCH  35  37
ENDBRANCH   6  35
TORSDOF 16
ENDMDL
