MODEL 1
REMARK VINA RESULT: -5.815664704      0.000      0.000
REMARK  16 active torsions:
REMARK  status: ('A' for Active; 'I' for Inactive)
REMARK    1  A    between atoms: C2_2  and  C4_4 
REMARK    2  A    between atoms: C9_9  and  O1_10 
REMARK    3  A    between atoms: C10_12  and  O2_13 
REMARK    4  A    between atoms: C11_15  and  C12_16 
REMARK    5  A    between atoms: C12_16  and  O3_17 
REMARK    6  A    between atoms: C17_23  and  O4_24 
REMARK    7  A    between atoms: O4_24  and  C18_25 
REMARK    8  A    between atoms: C18_25  and  C19_27 
REMARK    9  A    between atoms: C19_27  and  C20_28 
REMARK   10  A    between atoms: C20_28  and  C21_29 
REMARK   11  A    between atoms: C25_33  and  O6_34 
REMARK   12  A    between atoms: O6_34  and  C26_35 
REMARK   13  A    between atoms: C26_35  and  C27_37 
REMARK   14  A    between atoms: C27_37  and  C28_39 
REMARK   15  A    between atoms: C28_39  and  O9_40 
REMARK   16  A    between atoms: C30_42  and  C31_43 
ROOT
HETATM    1  C4  UNL     1      -1.047   2.976  27.478  1.00  0.00     0.014 C 
HETATM    2  C5  UNL     1      -0.046   3.021  28.580  1.00  0.00     0.013 C 
HETATM    3  C6  UNL     1       0.540   4.366  28.952  1.00  0.00    -0.010 C 
HETATM    4  C7  UNL     1       1.012   4.160  30.403  1.00  0.00     0.010 C 
HETATM    5  C8  UNL     1      -0.313   5.524  28.701  1.00  0.00     0.032 C 
HETATM    6  C9  UNL     1      -0.983   6.200  29.850  1.00  0.00     0.152 C 
HETATM    7  C10 UNL     1      -2.436   6.584  29.512  1.00  0.00     0.154 C 
HETATM    8  C11 UNL     1      -2.589   7.825  28.769  1.00  0.00     0.057 C 
HETATM    9  C13 UNL     1      -1.991   7.970  27.434  1.00  0.00     0.010 A 
HETATM   10  C14 UNL     1      -1.841   9.441  27.065  1.00  0.00    -0.015 A 
HETATM   11  C15 UNL     1      -2.805   8.763  26.465  1.00  0.00    -0.015 A 
HETATM   12  C16 UNL     1      -1.127   7.006  26.830  1.00  0.00     0.044 C 
HETATM   13  C17 UNL     1      -1.746   5.788  26.198  1.00  0.00     0.144 C 
HETATM   14  C23 UNL     1      -0.594   4.929  25.883  1.00  0.00     0.047 C 
HETATM   15  C24 UNL     1      -0.588   3.509  26.171  1.00  0.00     0.018 C 
HETATM   16  C25 UNL     1       0.627   5.711  26.434  1.00  0.00     0.148 C 
HETATM   17  C30 UNL     1       0.109   6.501  27.584  1.00  0.00     0.004 C 
ENDROOT
BRANCH  16  18
HETATM   18  O6  UNL     1       1.136   6.554  25.421  1.00  0.00    -0.308 OA
BRANCH  18  19
HETATM   19  C26 UNL     1       2.364   6.277  24.788  1.00  0.00     0.332 C 
HETATM   20  O7  UNL     1       2.886   5.146  24.936  1.00  0.00    -0.256 OA
BRANCH  19  21
HETATM   21  C27 UNL     1       3.035   7.273  23.969  1.00  0.00     0.247 C 
HETATM   22  O8  UNL     1       2.982   7.146  22.721  1.00  0.00    -0.284 OA
BRANCH  21  23
HETATM   23  C28 UNL     1       3.756   8.401  24.605  1.00  0.00     0.256 C 
BRANCH  23  24
HETATM   24  O9  UNL     1       4.509   7.934  25.689  1.00  0.00    -0.388 OA
HETATM   25  C29 UNL     1       5.148   8.961  26.348  1.00  0.00     0.202 C 
ENDBRANCH  23  24
ENDBRANCH  21  23
ENDBRANCH  19  21
ENDBRANCH  18  19
ENDBRANCH  16  18
BRANCH  17  26
HETATM   26  C31 UNL     1       0.977   7.571  28.051  1.00  0.00    -0.011 C 
HETATM   27  C32 UNL     1       1.208   8.797  27.241  1.00  0.00     0.010 C 
HETATM   28  C33 UNL     1       2.338   7.198  28.598  1.00  0.00     0.010 C 
ENDBRANCH  17  26
BRANCH  13  29
HETATM   29  O4  UNL     1      -2.385   6.195  24.969  1.00  0.00    -0.315 OA
BRANCH  29  30
HETATM   30  C18 UNL     1      -3.190   5.352  24.238  1.00  0.00     0.259 C 
HETATM   31  O5  UNL     1      -3.147   5.440  22.995  1.00  0.00    -0.265 OA
BRANCH  30  32
HETATM   32  C19 UNL     1      -4.058   4.391  24.937  1.00  0.00     0.111 C 
BRANCH  32  33
HETATM   33  C20 UNL     1      -3.955   2.980  24.449  1.00  0.00     0.009 C 
BRANCH  33  34
HETATM   34  C21 UNL     1      -4.440   1.940  25.399  1.00  0.00    -0.004 C 
HETATM   35  C22 UNL     1      -4.203   0.538  24.866  1.00  0.00     0.005 C 
ENDBRANCH  33  34
ENDBRANCH  32  33
ENDBRANCH  30  32
ENDBRANCH  29  30
ENDBRANCH  13  29
BRANCH   1  36
HETATM   36  C2  UNL     1      -1.241   1.504  27.245  1.00  0.00    -0.089 C 
HETATM   37  C1  UNL     1      -0.582   0.918  26.263  1.00  0.00     0.014 C 
HETATM   38  C3  UNL     1      -2.158   0.693  28.092  1.00  0.00     0.043 C 
ENDBRANCH   1  36
BRANCH   6  39
HETATM   39  O1  UNL     1      -1.256   5.184  30.805  1.00  0.00    -0.393 OA
ATOM     40  H1  UNL     1      -2.136   4.876  30.621  1.00  0.00     0.210 HD
ENDBRANCH   6  39
BRANCH   7  41
HETATM   41  O2  UNL     1      -3.061   6.779  30.774  1.00  0.00    -0.392 OA
ATOM     42  H2  UNL     1      -3.515   7.609  30.694  1.00  0.00     0.210 HD
ENDBRANCH   7  41
BRANCH   8  43
HETATM   43  C12 UNL     1      -4.097   8.114  28.683  1.00  0.00     0.172 C 
BRANCH  43  44
HETATM   44  O3  UNL     1      -4.519   9.049  29.588  1.00  0.00    -0.400 OA
ATOM     45  H3  UNL     1      -5.322   9.486  29.329  1.00  0.00     0.209 HD
ENDBRANCH  43  44
ENDBRANCH   8  43
TORSDOF 16
ENDMDL
MODEL 2
REMARK VINA RESULT: -5.770568094      1.818      3.295
REMARK  16 active torsions:
REMARK  status: ('A' for Active; 'I' for Inactive)
REMARK    1  A    between atoms: C2_2  and  C4_4 
REMARK    2  A    between atoms: C9_9  and  O1_10 
REMARK    3  A    between atoms: C10_12  and  O2_13 
REMARK    4  A    between atoms: C11_15  and  C12_16 
REMARK    5  A    between atoms: C12_16  and  O3_17 
REMARK    6  A    between atoms: C17_23  and  O4_24 
REMARK    7  A    between atoms: O4_24  and  C18_25 
REMARK    8  A    between atoms: C18_25  and  C19_27 
REMARK    9  A    between atoms: C19_27  and  C20_28 
REMARK   10  A    between atoms: C20_28  and  C21_29 
REMARK   11  A    between atoms: C25_33  and  O6_34 
REMARK   12  A    between atoms: O6_34  and  C26_35 
REMARK   13  A    between atoms: C26_35  and  C27_37 
REMARK   14  A    between atoms: C27_37  and  C28_39 
REMARK   15  A    between atoms: C28_39  and  O9_40 
REMARK   16  A    between atoms: C30_42  and  C31_43 
ROOT
HETATM    1  C4  UNL     1      -2.885   4.783  25.055  1.00  0.00     0.014 C 
HETATM    2  C5  UNL     1      -2.388   3.571  25.764  1.00  0.00     0.013 C 
HETATM    3  C6  UNL     1      -1.420   3.768  26.912  1.00  0.00    -0.010 C 
HETATM    4  C7  UNL     1      -1.590   2.484  27.745  1.00  0.00     0.010 C 
HETATM    5  C8  UNL     1      -1.534   5.033  27.632  1.00  0.00     0.032 C 
HETATM    6  C9  UNL     1      -2.166   5.049  28.984  1.00  0.00     0.152 C 
HETATM    7  C10 UNL     1      -3.097   6.263  29.160  1.00  0.00     0.154 C 
HETATM    8  C11 UNL     1      -2.430   7.504  29.521  1.00  0.00     0.057 C 
HETATM    9  C13 UNL     1      -1.432   8.101  28.621  1.00  0.00     0.010 A 
HETATM   10  C14 UNL     1      -0.532   9.071  29.377  1.00  0.00    -0.015 A 
HETATM   11  C15 UNL     1      -1.443   9.594  28.574  1.00  0.00    -0.015 A 
HETATM   12  C16 UNL     1      -0.945   7.477  27.432  1.00  0.00     0.044 C 
HETATM   13  C17 UNL     1      -1.799   7.532  26.194  1.00  0.00     0.144 C 
HETATM   14  C23 UNL     1      -1.118   6.628  25.254  1.00  0.00     0.047 C 
HETATM   15  C24 UNL     1      -1.840   5.654  24.461  1.00  0.00     0.018 C 
HETATM   16  C25 UNL     1       0.070   6.054  26.070  1.00  0.00     0.148 C 
HETATM   17  C30 UNL     1      -0.384   6.051  27.487  1.00  0.00     0.004 C 
ENDROOT
BRANCH  16  18
HETATM   18  O6  UNL     1       1.199   6.884  25.895  1.00  0.00    -0.308 OA
BRANCH  18  19
HETATM   19  C26 UNL     1       2.306   6.464  25.132  1.00  0.00     0.332 C 
HETATM   20  O7  UNL     1       2.713   5.283  25.247  1.00  0.00    -0.256 OA
BRANCH  19  21
HETATM   21  C27 UNL     1       2.982   7.367  24.217  1.00  0.00     0.247 C 
HETATM   22  O8  UNL     1       2.854   7.167  22.984  1.00  0.00    -0.284 OA
BRANCH  21  23
HETATM   23  C28 UNL     1       3.796   8.489  24.741  1.00  0.00     0.256 C 
BRANCH  23  24
HETATM   24  O9  UNL     1       4.684   8.019  25.716  1.00  0.00    -0.388 OA
HETATM   25  C29 UNL     1       4.664   8.807  26.848  1.00  0.00     0.202 C 
ENDBRANCH  23  24
ENDBRANCH  21  23
ENDBRANCH  19  21
ENDBRANCH  18  19
ENDBRANCH  16  18
BRANCH  17  26
HETATM   26  C31 UNL     1       0.665   5.881  28.480  1.00  0.00    -0.011 C 
HETATM   27  C32 UNL     1       1.711   6.917  28.694  1.00  0.00     0.010 C 
HETATM   28  C33 UNL     1       1.403   4.561  28.520  1.00  0.00     0.010 C 
ENDBRANCH  17  26
BRANCH  13  29
HETATM   29  O4  UNL     1      -1.751   8.879  25.675  1.00  0.00    -0.315 OA
BRANCH  29  30
HETATM   30  C18 UNL     1      -2.403   9.254  24.523  1.00  0.00     0.259 C 
HETATM   31  O5  UNL     1      -1.728   9.787  23.620  1.00  0.00    -0.265 OA
BRANCH  30  32
HETATM   32  C19 UNL     1      -3.850   9.014  24.398  1.00  0.00     0.111 C 
BRANCH  32  33
HETATM   33  C20 UNL     1      -4.256   8.242  23.181  1.00  0.00     0.009 C 
BRANCH  33  34
HETATM   34  C21 UNL     1      -4.664   9.067  22.010  1.00  0.00    -0.004 C 
HETATM   35  C22 UNL     1      -5.072   8.205  20.829  1.00  0.00     0.005 C 
ENDBRANCH  33  34
ENDBRANCH  32  33
ENDBRANCH  30  32
ENDBRANCH  29  30
ENDBRANCH  13  29
BRANCH   1  36
HETATM   36  C2  UNL     1      -3.627   4.217  23.877  1.00  0.00    -0.089 C 
HETATM   37  C1  UNL     1      -4.260   3.067  24.011  1.00  0.00     0.014 C 
HETATM   38  C3  UNL     1      -3.663   4.919  22.566  1.00  0.00     0.043 C 
ENDBRANCH   1  36
BRANCH   6  39
HETATM   39  O1  UNL     1      -3.156   4.031  28.973  1.00  0.00    -0.393 OA
ATOM     40  H1  UNL     1      -3.732   4.227  28.242  1.00  0.00     0.210 HD
ENDBRANCH   6  39
BRANCH   7  41
HETATM   41  O2  UNL     1      -3.942   5.916  30.249  1.00  0.00    -0.392 OA
ATOM     42  H2  UNL     1      -4.822   6.076  29.933  1.00  0.00     0.210 HD
ENDBRANCH   7  41
BRANCH   8  43
HETATM   43  C12 UNL     1      -3.531   8.538  29.813  1.00  0.00     0.172 C 
BRANCH  43  44
HETATM   44  O3  UNL     1      -4.636   8.387  29.020  1.00  0.00    -0.400 OA
ATOM     45  H3  UNL     1      -5.000   7.510  29.049  1.00  0.00     0.209 HD
ENDBRANCH  43  44
ENDBRANCH   8  43
TORSDOF 16
ENDMDL
MODEL 3
REMARK VINA RESULT: -5.705114047      1.563      2.466
REMARK  16 active torsions:
REMARK  status: ('A' for Active; 'I' for Inactive)
REMARK    1  A    between atoms: C2_2  and  C4_4 
REMARK    2  A    between atoms: C9_9  and  O1_10 
REMARK    3  A    between atoms: C10_12  and  O2_13 
REMARK    4  A    between atoms: C11_15  and  C12_16 
REMARK    5  A    between atoms: C12_16  and  O3_17 
REMARK    6  A    between atoms: C17_23  and  O4_24 
REMARK    7  A    between atoms: O4_24  and  C18_25 
REMARK    8  A    between atoms: C18_25  and  C19_27 
REMARK    9  A    between atoms: C19_27  and  C20_28 
REMARK   10  A    between atoms: C20_28  and  C21_29 
REMARK   11  A    between atoms: C25_33  and  O6_34 
REMARK   12  A    between atoms: O6_34  and  C26_35 
REMARK   13  A    between atoms: C26_35  and  C27_37 
REMARK   14  A    between atoms: C27_37  and  C28_39 
REMARK   15  A    between atoms: C28_39  and  O9_40 
REMARK   16  A    between atoms: C30_42  and  C31_43 
ROOT
HETATM    1  C4  UNL     1      -3.172   3.008  26.313  1.00  0.00     0.014 C 
HETATM    2  C5  UNL     1      -2.494   2.166  27.339  1.00  0.00     0.013 C 
HETATM    3  C6  UNL     1      -1.563   2.851  28.316  1.00  0.00    -0.010 C 
HETATM    4  C7  UNL     1      -1.533   1.887  29.516  1.00  0.00     0.010 C 
HETATM    5  C8  UNL     1      -1.865   4.250  28.610  1.00  0.00     0.032 C 
HETATM    6  C9  UNL     1      -2.486   4.603  29.920  1.00  0.00     0.152 C 
HETATM    7  C10 UNL     1      -3.590   5.664  29.755  1.00  0.00     0.154 C 
HETATM    8  C11 UNL     1      -3.117   7.038  29.675  1.00  0.00     0.057 C 
HETATM    9  C13 UNL     1      -2.225   7.455  28.584  1.00  0.00     0.010 A 
HETATM   10  C14 UNL     1      -1.479   8.732  28.952  1.00  0.00    -0.015 A 
HETATM   11  C15 UNL     1      -2.463   8.838  28.074  1.00  0.00    -0.015 A 
HETATM   12  C16 UNL     1      -1.654   6.562  27.626  1.00  0.00     0.044 C 
HETATM   13  C17 UNL     1      -2.510   6.101  26.478  1.00  0.00     0.144 C 
HETATM   14  C23 UNL     1      -1.704   5.052  25.835  1.00  0.00     0.047 C 
HETATM   15  C24 UNL     1      -2.273   3.785  25.424  1.00  0.00     0.018 C 
HETATM   16  C25 UNL     1      -0.440   4.942  26.726  1.00  0.00     0.148 C 
HETATM   17  C30 UNL     1      -0.882   5.322  28.095  1.00  0.00     0.004 C 
ENDROOT
BRANCH  16  18
HETATM   18  O6  UNL     1       0.550   5.826  26.243  1.00  0.00    -0.308 OA
BRANCH  18  19
HETATM   19  C26 UNL     1       1.793   5.351  25.781  1.00  0.00     0.332 C 
HETATM   20  O7  UNL     1       2.114   4.159  26.008  1.00  0.00    -0.256 OA
BRANCH  19  21
HETATM   21  C27 UNL     1       2.708   6.211  25.050  1.00  0.00     0.247 C 
HETATM   22  O8  UNL     1       3.206   5.773  23.984  1.00  0.00    -0.284 OA
BRANCH  21  23
HETATM   23  C28 UNL     1       3.033   7.563  25.561  1.00  0.00     0.256 C 
BRANCH  23  24
HETATM   24  O9  UNL     1       4.356   7.594  26.019  1.00  0.00    -0.388 OA
HETATM   25  C29 UNL     1       4.420   7.736  27.389  1.00  0.00     0.202 C 
ENDBRANCH  23  24
ENDBRANCH  21  23
ENDBRANCH  19  21
ENDBRANCH  18  19
ENDBRANCH  16  18
BRANCH  17  26
HETATM   26  C31 UNL     1       0.184   5.627  29.036  1.00  0.00    -0.011 C 
HETATM   27  C32 UNL     1       1.046   6.830  28.875  1.00  0.00     0.010 C 
HETATM   28  C33 UNL     1       1.130   4.513  29.428  1.00  0.00     0.010 C 
ENDBRANCH  17  26
BRANCH  13  29
HETATM   29  O4  UNL     1      -2.670   7.206  25.564  1.00  0.00    -0.315 OA
BRANCH  29  30
HETATM   30  C18 UNL     1      -3.874   7.512  24.972  1.00  0.00     0.259 C 
HETATM   31  O5  UNL     1      -4.286   8.685  25.062  1.00  0.00    -0.265 OA
BRANCH  30  32
HETATM   32  C19 UNL     1      -4.619   6.459  24.262  1.00  0.00     0.111 C 
BRANCH  32  33
HETATM   33  C20 UNL     1      -4.358   6.388  22.790  1.00  0.00     0.009 C 
BRANCH  33  34
HETATM   34  C21 UNL     1      -3.476   5.270  22.353  1.00  0.00    -0.004 C 
HETATM   35  C22 UNL     1      -3.803   4.813  20.942  1.00  0.00     0.005 C 
ENDBRANCH  33  34
ENDBRANCH  32  33
ENDBRANCH  30  32
ENDBRANCH  29  30
ENDBRANCH  13  29
BRANCH   1  36
HETATM   36  C2  UNL     1      -3.824   1.997  25.411  1.00  0.00    -0.089 C 
HETATM   37  C1  UNL     1      -4.212   2.369  24.206  1.00  0.00     0.014 C 
HETATM   38  C3  UNL     1      -4.043   0.590  25.844  1.00  0.00     0.043 C 
ENDBRANCH   1  36
BRANCH   6  39
HETATM   39  O1  UNL     1      -3.311   3.504  30.278  1.00  0.00    -0.393 OA
ATOM     40  H1  UNL     1      -3.456   3.574  31.215  1.00  0.00     0.210 HD
ENDBRANCH   6  39
BRANCH   7  41
HETATM   41  O2  UNL     1      -4.368   5.564  30.940  1.00  0.00    -0.392 OA
ATOM     42  H2  UNL     1      -4.737   6.430  31.062  1.00  0.00     0.210 HD
ENDBRANCH   7  41
BRANCH   8  43
HETATM   43  C12 UNL     1      -4.362   7.943  29.686  1.00  0.00     0.172 C 
BRANCH  43  44
HETATM   44  O3  UNL     1      -4.621   8.486  30.915  1.00  0.00    -0.400 OA
ATOM     45  H3  UNL     1      -5.061   9.327  30.867  1.00  0.00     0.209 HD
ENDBRANCH  43  44
ENDBRANCH   8  43
TORSDOF 16
ENDMDL
MODEL 4
REMARK VINA RESULT: -5.701843273      1.276      2.009
REMARK  16 active torsions:
REMARK  status: ('A' for Active; 'I' for Inactive)
REMARK    1  A    between atoms: C2_2  and  C4_4 
REMARK    2  A    between atoms: C9_9  and  O1_10 
REMARK    3  A    between atoms: C10_12  and  O2_13 
REMARK    4  A    between atoms: C11_15  and  C12_16 
REMARK    5  A    between atoms: C12_16  and  O3_17 
REMARK    6  A    between atoms: C17_23  and  O4_24 
REMARK    7  A    between atoms: O4_24  and  C18_25 
REMARK    8  A    between atoms: C18_25  and  C19_27 
REMARK    9  A    between atoms: C19_27  and  C20_28 
REMARK   10  A    between atoms: C20_28  and  C21_29 
REMARK   11  A    between atoms: C25_33  and  O6_34 
REMARK   12  A    between atoms: O6_34  and  C26_35 
REMARK   13  A    between atoms: C26_35  and  C27_37 
REMARK   14  A    between atoms: C27_37  and  C28_39 
REMARK   15  A    between atoms: C28_39  and  O9_40 
REMARK   16  A    between atoms: C30_42  and  C31_43 
ROOT
HETATM    1  C4  UNL     1      -2.307   3.738  26.516  1.00  0.00     0.014 C 
HETATM    2  C5  UNL     1      -1.405   3.111  27.522  1.00  0.00     0.013 C 
HETATM    3  C6  UNL     1      -0.431   4.006  28.258  1.00  0.00    -0.010 C 
HETATM    4  C7  UNL     1      -0.130   3.221  29.548  1.00  0.00     0.010 C 
HETATM    5  C8  UNL     1      -0.844   5.398  28.423  1.00  0.00     0.032 C 
HETATM    6  C9  UNL     1      -1.316   5.866  29.758  1.00  0.00     0.152 C 
HETATM    7  C10 UNL     1      -2.544   6.788  29.633  1.00  0.00     0.154 C 
HETATM    8  C11 UNL     1      -2.243   8.176  29.317  1.00  0.00     0.057 C 
HETATM    9  C13 UNL     1      -1.561   8.522  28.062  1.00  0.00     0.010 A 
HETATM   10  C14 UNL     1      -0.919   9.901  28.156  1.00  0.00    -0.015 A 
HETATM   11  C15 UNL     1      -2.019   9.795  27.429  1.00  0.00    -0.015 A 
HETATM   12  C16 UNL     1      -1.030   7.564  27.145  1.00  0.00     0.044 C 
HETATM   13  C17 UNL     1      -1.978   6.873  26.203  1.00  0.00     0.144 C 
HETATM   14  C23 UNL     1      -1.156   5.826  25.578  1.00  0.00     0.047 C 
HETATM   15  C24 UNL     1      -1.630   4.467  25.414  1.00  0.00     0.018 C 
HETATM   16  C25 UNL     1       0.223   5.956  26.276  1.00  0.00     0.148 C 
HETATM   17  C30 UNL     1      -0.068   6.476  27.639  1.00  0.00     0.004 C 
ENDROOT
BRANCH  16  18
HETATM   18  O6  UNL     1       1.033   6.854  25.546  1.00  0.00    -0.308 OA
BRANCH  18  19
HETATM   19  C26 UNL     1       2.235   6.433  24.945  1.00  0.00     0.332 C 
HETATM   20  O7  UNL     1       2.652   5.270  25.164  1.00  0.00    -0.256 OA
BRANCH  19  21
HETATM   21  C27 UNL     1       2.999   7.316  24.081  1.00  0.00     0.247 C 
HETATM   22  O8  UNL     1       2.933   7.133  22.840  1.00  0.00    -0.284 OA
BRANCH  21  23
HETATM   23  C28 UNL     1       3.828   8.398  24.662  1.00  0.00     0.256 C 
BRANCH  23  24
HETATM   24  O9  UNL     1       4.561   7.905  25.748  1.00  0.00    -0.388 OA
HETATM   25  C29 UNL     1       5.149   8.920  26.472  1.00  0.00     0.202 C 
ENDBRANCH  23  24
ENDBRANCH  21  23
ENDBRANCH  19  21
ENDBRANCH  18  19
ENDBRANCH  16  18
BRANCH  17  26
HETATM   26  C31 UNL     1       1.076   7.005  28.365  1.00  0.00    -0.011 C 
HETATM   27  C32 UNL     1       1.743   8.270  27.956  1.00  0.00     0.010 C 
HETATM   28  C33 UNL     1       2.205   6.056  28.706  1.00  0.00     0.010 C 
ENDBRANCH  17  26
BRANCH  13  29
HETATM   29  O4  UNL     1      -2.384   7.824  25.195  1.00  0.00    -0.315 OA
BRANCH  29  30
HETATM   30  C18 UNL     1      -3.696   7.989  24.817  1.00  0.00     0.259 C 
HETATM   31  O5  UNL     1      -4.568   7.956  25.707  1.00  0.00    -0.265 OA
BRANCH  30  32
HETATM   32  C19 UNL     1      -4.019   8.199  23.396  1.00  0.00     0.111 C 
BRANCH  32  33
HETATM   33  C20 UNL     1      -4.616   7.012  22.705  1.00  0.00     0.009 C 
BRANCH  33  34
HETATM   34  C21 UNL     1      -3.943   5.711  22.979  1.00  0.00    -0.004 C 
HETATM   35  C22 UNL     1      -3.615   4.967  21.697  1.00  0.00     0.005 C 
ENDBRANCH  33  34
ENDBRANCH  32  33
ENDBRANCH  30  32
ENDBRANCH  29  30
ENDBRANCH  13  29
BRANCH   1  36
HETATM   36  C2  UNL     1      -2.959   2.558  25.851  1.00  0.00    -0.089 C 
HETATM   37  C1  UNL     1      -2.357   1.384  25.893  1.00  0.00     0.014 C 
HETATM   38  C3  UNL     1      -4.264   2.682  25.146  1.00  0.00     0.043 C 
ENDBRANCH   1  36
BRANCH   6  39
HETATM   39  O1  UNL     1      -1.957   4.754  30.367  1.00  0.00    -0.393 OA
ATOM     40  H1  UNL     1      -2.342   5.078  31.173  1.00  0.00     0.210 HD
ENDBRANCH   6  39
BRANCH   7  41
HETATM   41  O2  UNL     1      -3.136   6.778  30.925  1.00  0.00    -0.392 OA
ATOM     42  H2  UNL     1      -3.781   7.475  30.901  1.00  0.00     0.210 HD
ENDBRANCH   7  41
BRANCH   8  43
HETATM   43  C12 UNL     1      -3.567   8.954  29.405  1.00  0.00     0.172 C 
BRANCH  43  44
HETATM   44  O3  UNL     1      -4.613   8.306  28.807  1.00  0.00    -0.400 OA
ATOM     45  H3  UNL     1      -5.452   8.496  29.211  1.00  0.00     0.209 HD
ENDBRANCH  43  44
ENDBRANCH   8  43
TORSDOF 16
ENDMDL
MODEL 5
REMARK VINA RESULT: -5.696482889      2.288      6.333
REMARK  16 active torsions:
REMARK  status: ('A' for Active; 'I' for Inactive)
REMARK    1  A    between atoms: C2_2  and  C4_4 
REMARK    2  A    between atoms: C9_9  and  O1_10 
REMARK    3  A    between atoms: C10_12  and  O2_13 
REMARK    4  A    between atoms: C11_15  and  C12_16 
REMARK    5  A    between atoms: C12_16  and  O3_17 
REMARK    6  A    between atoms: C17_23  and  O4_24 
REMARK    7  A    between atoms: O4_24  and  C18_25 
REMARK    8  A    between atoms: C18_25  and  C19_27 
REMARK    9  A    between atoms: C19_27  and  C20_28 
REMARK   10  A    between atoms: C20_28  and  C21_29 
REMARK   11  A    between atoms: C25_33  and  O6_34 
REMARK   12  A    between atoms: O6_34  and  C26_35 
REMARK   13  A    between atoms: C26_35  and  C27_37 
REMARK   14  A    between atoms: C27_37  and  C28_39 
REMARK   15  A    between atoms: C28_39  and  O9_40 
REMARK   16  A    between atoms: C30_42  and  C31_43 
ROOT
HETATM    1  C4  UNL     1      -2.401   4.919  25.198  1.00  0.00     0.014 C 
HETATM    2  C5  UNL     1      -1.385   5.995  25.370  1.00  0.00     0.013 C 
HETATM    3  C6  UNL     1      -0.528   5.967  26.617  1.00  0.00    -0.010 C 
HETATM    4  C7  UNL     1       0.721   6.770  26.208  1.00  0.00     0.010 C 
HETATM    5  C8  UNL     1      -0.294   4.649  27.201  1.00  0.00     0.032 C 
HETATM    6  C9  UNL     1       1.038   4.000  27.028  1.00  0.00     0.152 C 
HETATM    7  C10 UNL     1       0.899   2.497  26.721  1.00  0.00     0.154 C 
HETATM    8  C11 UNL     1       0.700   1.645  27.884  1.00  0.00     0.057 C 
HETATM    9  C13 UNL     1      -0.482   1.821  28.740  1.00  0.00     0.010 A 
HETATM   10  C14 UNL     1      -0.252   1.205  30.115  1.00  0.00    -0.015 A 
HETATM   11  C15 UNL     1      -1.053   0.554  29.288  1.00  0.00    -0.015 A 
HETATM   12  C16 UNL     1      -1.427   2.882  28.599  1.00  0.00     0.044 C 
HETATM   13  C17 UNL     1      -2.474   2.770  27.523  1.00  0.00     0.144 C 
HETATM   14  C23 UNL     1      -3.116   4.093  27.515  1.00  0.00     0.047 C 
HETATM   15  C24 UNL     1      -3.404   4.803  26.285  1.00  0.00     0.018 C 
HETATM   16  C25 UNL     1      -2.323   4.909  28.569  1.00  0.00     0.148 C 
HETATM   17  C30 UNL     1      -0.949   4.339  28.563  1.00  0.00     0.004 C 
ENDROOT
BRANCH  16  18
HETATM   18  O6  UNL     1      -2.936   4.757  29.833  1.00  0.00    -0.308 OA
BRANCH  18  19
HETATM   19  C26 UNL     1      -3.727   5.780  30.391  1.00  0.00     0.332 C 
HETATM   20  O7  UNL     1      -4.756   5.471  31.039  1.00  0.00    -0.256 OA
BRANCH  19  21
HETATM   21  C27 UNL     1      -3.377   7.181  30.231  1.00  0.00     0.247 C 
HETATM   22  O8  UNL     1      -2.319   7.591  30.767  1.00  0.00    -0.284 OA
BRANCH  21  23
HETATM   23  C28 UNL     1      -4.255   8.086  29.453  1.00  0.00     0.256 C 
BRANCH  23  24
HETATM   24  O9  UNL     1      -4.216   7.738  28.098  1.00  0.00    -0.388 OA
HETATM   25  C29 UNL     1      -3.279   8.476  27.406  1.00  0.00     0.202 C 
ENDBRANCH  23  24
ENDBRANCH  21  23
ENDBRANCH  19  21
ENDBRANCH  18  19
ENDBRANCH  16  18
BRANCH  17  26
HETATM   26  C31 UNL     1      -0.116   4.701  29.699  1.00  0.00    -0.011 C 
HETATM   27  C32 UNL     1      -0.509   4.362  31.094  1.00  0.00     0.010 C 
HETATM   28  C33 UNL     1       0.416   6.115  29.772  1.00  0.00     0.010 C 
ENDBRANCH  17  26
BRANCH  13  29
HETATM   29  O4  UNL     1      -3.437   1.777  27.935  1.00  0.00    -0.315 OA
BRANCH  29  30
HETATM   30  C18 UNL     1      -3.811   0.726  27.129  1.00  0.00     0.259 C 
HETATM   31  O5  UNL     1      -4.508  -0.176  27.633  1.00  0.00    -0.265 OA
BRANCH  30  32
HETATM   32  C19 UNL     1      -3.383   0.707  25.721  1.00  0.00     0.111 C 
BRANCH  32  33
HETATM   33  C20 UNL     1      -4.353   1.322  24.760  1.00  0.00     0.009 C 
BRANCH  33  34
HETATM   34  C21 UNL     1      -4.405   0.687  23.413  1.00  0.00    -0.004 C 
HETATM   35  C22 UNL     1      -4.346  -0.827  23.503  1.00  0.00     0.005 C 
ENDBRANCH  33  34
ENDBRANCH  32  33
ENDBRANCH  30  32
ENDBRANCH  29  30
ENDBRANCH  13  29
BRANCH   1  36
HETATM   36  C2  UNL     1      -3.187   5.373  23.999  1.00  0.00    -0.089 C 
HETATM   37  C1  UNL     1      -3.543   6.640  23.908  1.00  0.00     0.014 C 
HETATM   38  C3  UNL     1      -3.573   4.428  22.916  1.00  0.00     0.043 C 
ENDBRANCH   1  36
BRANCH   6  39
HETATM   39  O1  UNL     1       1.526   4.423  25.763  1.00  0.00    -0.393 OA
ATOM     40  H1  UNL     1       1.777   3.633  25.297  1.00  0.00     0.210 HD
ENDBRANCH   6  39
BRANCH   7  41
HETATM   41  O2  UNL     1       2.146   2.128  26.148  1.00  0.00    -0.392 OA
ATOM     42  H2  UNL     1       2.418   1.359  26.634  1.00  0.00     0.210 HD
ENDBRANCH   7  41
BRANCH   8  43
HETATM   43  C12 UNL     1       0.757   0.189  27.390  1.00  0.00     0.172 C 
BRANCH  43  44
HETATM   44  O3  UNL     1       0.121   0.002  26.193  1.00  0.00    -0.400 OA
ATOM     45  H3  UNL     1      -0.697  -0.474  26.274  1.00  0.00     0.209 HD
ENDBRANCH  43  44
ENDBRANCH   8  43
TORSDOF 16
ENDMDL
