MODEL 1
REMARK VINA RESULT: -5.569513641      0.000      0.000
REMARK  4 active torsions:
REMARK  status: ('A' for Active; 'I' for Inactive)
REMARK    1  A    between atoms: O1_1  and  N1_3 
REMARK    2  A    between atoms: C1_5  and  O2_6 
REMARK    3  A    between atoms: C1_5  and  C2_8 
REMARK    4  A    between atoms: C3_9  and  C4_10 
ROOT
HETATM    1  C2  UNL     1      92.983  15.629  34.335  1.00  0.00     0.059 C 
HETATM    2  C3  UNL     1      91.774  15.812  33.826  1.00  0.00     0.023 C 
ENDROOT
BRANCH   1   3
HETATM    3  C1  UNL     1      94.111  16.479  33.959  1.00  0.00     0.159 C 
HETATM    4  N1  UNL     1      94.860  17.035  34.882  1.00  0.00    -0.248 N 
ATOM      5  H1  UNL     1      94.665  16.881  35.872  1.00  0.00     0.196 HD
BRANCH   4   6
HETATM    6  O1  UNL     1      95.895  17.815  34.495  1.00  0.00    -0.288 OA
ATOM      7  H1  UNL     1      96.624  17.412  34.038  1.00  0.00     0.244 HD
ENDBRANCH   4   6
BRANCH   3   8
HETATM    8  O2  UNL     1      94.386  16.695  32.616  1.00  0.00    -0.345 OA
ATOM      9  H2  UNL     1      93.825  16.319  31.948  1.00  0.00     0.219 HD
ENDBRANCH   3   8
ENDBRANCH   1   3
BRANCH   2  10
HETATM   10  C4  UNL     1      90.695  14.902  34.267  1.00  0.00     0.006 A 
HETATM   11  C5  UNL     1      89.969  14.944  35.424  1.00  0.00     0.038 A 
HETATM   12  C6  UNL     1      89.035  14.005  35.604  1.00  0.00     0.018 A 
HETATM   13 BR1  UNL     1      87.904  13.894  37.179  1.00  0.00    -0.051 Br
HETATM   14  C7  UNL     1      88.879  13.072  34.614  1.00  0.00     0.069 A 
HETATM   15  S1  UNL     1      90.045  13.545  33.463  1.00  0.00    -0.101 SA
ENDBRANCH   2  10
TORSDOF 4
ENDMDL
MODEL 2
REMARK VINA RESULT: -5.554077490      1.671      1.821
REMARK  4 active torsions:
REMARK  status: ('A' for Active; 'I' for Inactive)
REMARK    1  A    between atoms: O1_1  and  N1_3 
REMARK    2  A    between atoms: C1_5  and  O2_6 
REMARK    3  A    between atoms: C1_5  and  C2_8 
REMARK    4  A    between atoms: C3_9  and  C4_10 
ROOT
HETATM    1  C2  UNL     1      93.086  15.553  34.094  1.00  0.00     0.059 C 
HETATM    2  C3  UNL     1      91.826  15.951  33.988  1.00  0.00     0.023 C 
ENDROOT
BRANCH   1   3
HETATM    3  C1  UNL     1      94.201  16.469  33.864  1.00  0.00     0.159 C 
HETATM    4  N1  UNL     1      94.847  16.995  34.877  1.00  0.00    -0.248 N 
ATOM      5  H1  UNL     1      94.580  16.773  35.837  1.00  0.00     0.196 HD
BRANCH   4   6
HETATM    6  O1  UNL     1      95.874  17.839  34.625  1.00  0.00    -0.288 OA
ATOM      7  H1  UNL     1      96.585  17.892  35.254  1.00  0.00     0.244 HD
ENDBRANCH   4   6
BRANCH   3   8
HETATM    8  O2  UNL     1      94.575  16.780  32.564  1.00  0.00    -0.345 OA
ATOM      9  H2  UNL     1      94.705  17.686  32.309  1.00  0.00     0.219 HD
ENDBRANCH   3   8
ENDBRANCH   1   3
BRANCH   2  10
HETATM   10  C4  UNL     1      90.765  14.953  34.239  1.00  0.00     0.006 A 
HETATM   11  C5  UNL     1      90.338  13.943  33.423  1.00  0.00     0.038 A 
HETATM   12  C6  UNL     1      89.354  13.158  33.872  1.00  0.00     0.018 A 
HETATM   13 BR1  UNL     1      88.611  11.674  32.863  1.00  0.00    -0.051 Br
HETATM   14  C7  UNL     1      88.847  13.429  35.115  1.00  0.00     0.069 A 
HETATM   15  S1  UNL     1      89.771  14.773  35.614  1.00  0.00    -0.101 SA
ENDBRANCH   2  10
TORSDOF 4
ENDMDL
MODEL 3
REMARK VINA RESULT: -5.552460191      4.301      4.706
REMARK  4 active torsions:
REMARK  status: ('A' for Active; 'I' for Inactive)
REMARK    1  A    between atoms: O1_1  and  N1_3 
REMARK    2  A    between atoms: C1_5  and  O2_6 
REMARK    3  A    between atoms: C1_5  and  C2_8 
REMARK    4  A    between atoms: C3_9  and  C4_10 
ROOT
HETATM    1  C2  UNL     1      90.349  14.297  32.842  1.00  0.00     0.059 C 
HETATM    2  C3  UNL     1      89.923  13.774  33.983  1.00  0.00     0.023 C 
ENDROOT
BRANCH   1   3
HETATM    3  C1  UNL     1      90.162  13.608  31.566  1.00  0.00     0.159 C 
HETATM    4  N1  UNL     1      90.014  14.295  30.458  1.00  0.00    -0.248 N 
ATOM      5  H1  UNL     1      90.026  15.315  30.472  1.00  0.00     0.196 HD
BRANCH   4   6
HETATM    6  O1  UNL     1      89.844  13.623  29.296  1.00  0.00    -0.288 OA
ATOM      7  H1  UNL     1      89.834  14.113  28.483  1.00  0.00     0.244 HD
ENDBRANCH   4   6
BRANCH   3   8
HETATM    8  O2  UNL     1      90.143  12.221  31.534  1.00  0.00    -0.345 OA
ATOM      9  H2  UNL     1      89.336  11.760  31.335  1.00  0.00     0.219 HD
ENDBRANCH   3   8
ENDBRANCH   1   3
BRANCH   2  10
HETATM   10  C4  UNL     1      90.157  14.545  35.224  1.00  0.00     0.006 A 
HETATM   11  C5  UNL     1      89.249  14.918  36.175  1.00  0.00     0.038 A 
HETATM   12  C6  UNL     1      89.701  15.617  37.221  1.00  0.00     0.018 A 
HETATM   13 BR1  UNL     1      88.571  16.239  38.673  1.00  0.00    -0.051 Br
HETATM   14  C7  UNL     1      91.038  15.906  37.257  1.00  0.00     0.069 A 
HETATM   15  S1  UNL     1      91.619  15.186  35.824  1.00  0.00    -0.101 SA
ENDBRANCH   2  10
TORSDOF 4
ENDMDL
MODEL 4
REMARK VINA RESULT: -5.471417922      7.649      8.715
REMARK  4 active torsions:
REMARK  status: ('A' for Active; 'I' for Inactive)
REMARK    1  A    between atoms: O1_1  and  N1_3 
REMARK    2  A    between atoms: C1_5  and  O2_6 
REMARK    3  A    between atoms: C1_5  and  C2_8 
REMARK    4  A    between atoms: C3_9  and  C4_10 
ROOT
HETATM    1  C2  UNL     1      90.714   8.583  34.536  1.00  0.00     0.059 C 
HETATM    2  C3  UNL     1      90.321   7.352  34.829  1.00  0.00     0.023 C 
ENDROOT
BRANCH   1   3
HETATM    3  C1  UNL     1      90.106   9.342  33.445  1.00  0.00     0.159 C 
HETATM    4  N1  UNL     1      88.980   9.988  33.633  1.00  0.00    -0.248 N 
ATOM      5  H1  UNL     1      88.514   9.969  34.541  1.00  0.00     0.196 HD
BRANCH   4   6
HETATM    6  O1  UNL     1      88.448  10.680  32.600  1.00  0.00    -0.288 OA
ATOM      7  H1  UNL     1      87.602  11.096  32.717  1.00  0.00     0.244 HD
ENDBRANCH   4   6
BRANCH   3   8
HETATM    8  O2  UNL     1      90.729   9.376  32.205  1.00  0.00    -0.345 OA
ATOM      9  H2  UNL     1      90.326   8.951  31.458  1.00  0.00     0.219 HD
ENDBRANCH   3   8
ENDBRANCH   1   3
BRANCH   2  10
HETATM   10  C4  UNL     1      90.994   6.662  35.951  1.00  0.00     0.006 A 
HETATM   11  C5  UNL     1      91.047   7.031  37.266  1.00  0.00     0.038 A 
HETATM   12  C6  UNL     1      91.722   6.240  38.105  1.00  0.00     0.018 A 
HETATM   13 BR1  UNL     1      91.912   6.592  40.006  1.00  0.00    -0.051 Br
HETATM   14  C7  UNL     1      92.310   5.120  37.581  1.00  0.00     0.069 A 
HETATM   15  S1  UNL     1      91.895   5.214  35.930  1.00  0.00    -0.101 SA
ENDBRANCH   2  10
TORSDOF 4
ENDMDL
MODEL 5
REMARK VINA RESULT: -5.376343416      5.551      6.478
REMARK  4 active torsions:
REMARK  status: ('A' for Active; 'I' for Inactive)
REMARK    1  A    between atoms: O1_1  and  N1_3 
REMARK    2  A    between atoms: C1_5  and  O2_6 
REMARK    3  A    between atoms: C1_5  and  C2_8 
REMARK    4  A    between atoms: C3_9  and  C4_10 
ROOT
HETATM    1  C2  UNL     1      89.837  11.752  32.984  1.00  0.00     0.059 C 
HETATM    2  C3  UNL     1      89.956  10.438  32.868  1.00  0.00     0.023 C 
ENDROOT
BRANCH   1   3
HETATM    3  C1  UNL     1      89.486  12.594  31.843  1.00  0.00     0.159 C 
HETATM    4  N1  UNL     1      90.374  13.406  31.320  1.00  0.00    -0.248 N 
ATOM      5  H1  UNL     1      91.318  13.461  31.703  1.00  0.00     0.196 HD
BRANCH   4   6
HETATM    6  O1  UNL     1      90.013  14.170  30.264  1.00  0.00    -0.288 OA
ATOM      7  H1  UNL     1      89.815  15.088  30.411  1.00  0.00     0.244 HD
ENDBRANCH   4   6
BRANCH   3   8
HETATM    8  O2  UNL     1      88.205  12.530  31.313  1.00  0.00    -0.345 OA
ATOM      9  H2  UNL     1      87.946  11.786  30.782  1.00  0.00     0.219 HD
ENDBRANCH   3   8
ENDBRANCH   1   3
BRANCH   2  10
HETATM   10  C4  UNL     1      90.314   9.668  34.080  1.00  0.00     0.006 A 
HETATM   11  C5  UNL     1      90.724   8.367  34.169  1.00  0.00     0.038 A 
HETATM   12  C6  UNL     1      90.995   7.886  35.386  1.00  0.00     0.018 A 
HETATM   13 BR1  UNL     1      91.588   6.067  35.720  1.00  0.00    -0.051 Br
HETATM   14  C7  UNL     1      90.840   8.734  36.449  1.00  0.00     0.069 A 
HETATM   15  S1  UNL     1      90.321  10.179  35.707  1.00  0.00    -0.101 SA
ENDBRANCH   2  10
TORSDOF 4
ENDMDL
