MODEL 1
REMARK VINA RESULT: -9.658099267      0.000      0.000
REMARK  7 active torsions:
REMARK  status: ('A' for Active; 'I' for Inactive)
REMARK    1  A    between atoms: C4_5  and  C5_6 
REMARK    2  A    between atoms: C5_6  and  O1_7 
REMARK    3  A    between atoms: O1_7  and  C6_8 
REMARK       I    between atoms: C6_8  and  N2_10 
REMARK    4  A    between atoms: N2_10  and  C7_11 
REMARK    5  A    between atoms: N2_10  and  C14_22 
REMARK    6  A    between atoms: C7_11  and  C8_12 
REMARK    7  A    between atoms: C17_25  and  C18_26 
ROOT
HETATM    1  C6  UNL     1       6.480   7.822  22.532  1.00  0.00     0.363 C 
HETATM    2  O2  UNL     1       5.954   8.727  23.211  1.00  0.00    -0.238 OA
HETATM    3  N2  UNL     1       5.594   6.964  21.776  1.00  0.00    -0.323 N 
ENDROOT
BRANCH   3   4
HETATM    4  C7  UNL     1       4.207   7.218  21.871  1.00  0.00     0.133 C 
BRANCH   4   5
HETATM    5  C8  UNL     1       3.357   6.534  22.855  1.00  0.00     0.005 C 
HETATM    6  C9  UNL     1       2.357   5.560  22.378  1.00  0.00     0.034 C 
HETATM    7  C10 UNL     1       1.304   5.244  23.446  1.00  0.00     0.236 C 
HETATM    8  N3  UNL     1       1.842   5.188  24.766  1.00  0.00    -0.044 N 
HETATM    9  C11 UNL     1       1.650   6.395  25.524  1.00  0.00     0.367 C 
ATOM     10  H32 UNL     1       1.469   4.384  25.272  1.00  0.00     0.280 HD
ATOM     11  H31 UNL     1       2.829   4.933  24.741  1.00  0.00     0.280 HD
HETATM   12  F1  UNL     1       0.359   6.832  25.521  1.00  0.00    -0.219 F 
HETATM   13  C12 UNL     1       2.643   7.423  25.088  1.00  0.00     0.067 C 
HETATM   14  C13 UNL     1       2.568   7.639  23.593  1.00  0.00     0.011 C 
ENDBRANCH   4   5
ENDBRANCH   3   4
BRANCH   3  15
HETATM   15  C14 UNL     1       6.208   6.021  20.902  1.00  0.00     0.089 C 
HETATM   16  C15 UNL     1       5.917   4.571  21.118  1.00  0.00     0.026 C 
HETATM   17  C16 UNL     1       7.103   3.777  20.538  1.00  0.00     0.011 C 
HETATM   18  C17 UNL     1       7.677   4.514  19.342  1.00  0.00     0.019 C 
HETATM   19  C24 UNL     1       6.633   5.293  18.607  1.00  0.00     0.011 C 
HETATM   20  C25 UNL     1       6.098   6.430  19.442  1.00  0.00     0.026 C 
BRANCH  18  21
HETATM   21  C18 UNL     1       8.213   3.499  18.413  1.00  0.00    -0.052 A 
HETATM   22  C19 UNL     1       7.822   3.502  17.093  1.00  0.00     0.007 A 
HETATM   23  C20 UNL     1       8.308   2.554  16.189  1.00  0.00     0.002 A 
HETATM   24  C21 UNL     1       9.200   1.589  16.610  1.00  0.00     0.026 A 
HETATM   25  C22 UNL     1       9.599   1.576  17.928  1.00  0.00     0.046 A 
HETATM   26  N4  UNL     1      10.516   0.576  18.349  1.00  0.00    -0.102 NA
HETATM   27  C23 UNL     1       9.103   2.531  18.819  1.00  0.00     0.034 A 
ENDBRANCH  18  21
ENDBRANCH   3  15
BRANCH   1  28
HETATM   28  O1  UNL     1       7.838   7.682  22.528  1.00  0.00    -0.304 OA
BRANCH  28  29
HETATM   29  C5  UNL     1       8.700   8.704  22.962  1.00  0.00     0.185 C 
BRANCH  29  30
HETATM   30  C4  UNL     1       9.414   8.363  24.231  1.00  0.00     0.013 C 
HETATM   31  C3  UNL     1       8.532   8.280  25.437  1.00  0.00     0.037 C 
HETATM   32  C2  UNL     1       9.318   7.684  26.557  1.00  0.00     0.272 C 
HETATM   33  N1  UNL     1      10.605   8.248  26.788  1.00  0.00     0.084 N 
HETATM   34  C1  UNL     1      11.370   7.284  27.577  1.00  0.00     0.309 C 
HETATM   35  C27 UNL     1      11.379   8.559  25.630  1.00  0.00     0.272 C 
HETATM   36  C26 UNL     1      10.555   9.279  24.555  1.00  0.00     0.037 C 
ENDBRANCH  29  30
ENDBRANCH  28  29
ENDBRANCH   1  28
TORSDOF 7
ENDMDL
MODEL 2
REMARK VINA RESULT: -9.466815051      1.277      1.567
REMARK  7 active torsions:
REMARK  status: ('A' for Active; 'I' for Inactive)
REMARK    1  A    between atoms: C4_5  and  C5_6 
REMARK    2  A    between atoms: C5_6  and  O1_7 
REMARK    3  A    between atoms: O1_7  and  C6_8 
REMARK       I    between atoms: C6_8  and  N2_10 
REMARK    4  A    between atoms: N2_10  and  C7_11 
REMARK    5  A    between atoms: N2_10  and  C14_22 
REMARK    6  A    between atoms: C7_11  and  C8_12 
REMARK    7  A    between atoms: C17_25  and  C18_26 
ROOT
HETATM    1  C6  UNL     1       6.894   8.486  21.674  1.00  0.00     0.363 C 
HETATM    2  O2  UNL     1       6.444   9.556  22.133  1.00  0.00    -0.238 OA
HETATM    3  N2  UNL     1       5.963   7.621  20.983  1.00  0.00    -0.323 N 
ENDROOT
BRANCH   3   4
HETATM    4  C7  UNL     1       4.622   8.057  20.886  1.00  0.00     0.133 C 
BRANCH   4   5
HETATM    5  C8  UNL     1       3.527   7.361  21.577  1.00  0.00     0.005 C 
HETATM    6  C9  UNL     1       2.192   7.985  21.605  1.00  0.00     0.034 C 
HETATM    7  C10 UNL     1       1.286   7.363  22.673  1.00  0.00     0.236 C 
HETATM    8  N3  UNL     1       1.463   5.953  22.809  1.00  0.00    -0.044 N 
HETATM    9  C11 UNL     1       2.317   5.577  23.903  1.00  0.00     0.367 C 
ATOM     10  H32 UNL     1       0.561   5.483  22.881  1.00  0.00     0.280 HD
ATOM     11  H31 UNL     1       1.799   5.548  21.935  1.00  0.00     0.280 HD
HETATM   12  F1  UNL     1       1.965   6.160  25.084  1.00  0.00    -0.219 F 
HETATM   13  C12 UNL     1       3.746   5.790  23.520  1.00  0.00     0.067 C 
HETATM   14  C13 UNL     1       3.967   7.211  23.051  1.00  0.00     0.011 C 
ENDBRANCH   4   5
ENDBRANCH   3   4
BRANCH   3  15
HETATM   15  C14 UNL     1       6.510   6.469  20.350  1.00  0.00     0.089 C 
HETATM   16  C15 UNL     1       6.302   5.142  21.005  1.00  0.00     0.026 C 
HETATM   17  C16 UNL     1       7.445   4.219  20.540  1.00  0.00     0.011 C 
HETATM   18  C17 UNL     1       7.851   4.581  19.123  1.00  0.00     0.019 C 
HETATM   19  C24 UNL     1       6.701   5.110  18.326  1.00  0.00     0.011 C 
HETATM   20  C25 UNL     1       6.220   6.437  18.858  1.00  0.00     0.026 C 
BRANCH  18  21
HETATM   21  C18 UNL     1       8.317   3.343  18.467  1.00  0.00    -0.052 A 
HETATM   22  C19 UNL     1       9.626   2.939  18.612  1.00  0.00     0.007 A 
HETATM   23  C20 UNL     1      10.099   1.774  18.003  1.00  0.00     0.002 A 
HETATM   24  C21 UNL     1       9.251   1.001  17.236  1.00  0.00     0.026 A 
HETATM   25  C22 UNL     1       7.940   1.394  17.084  1.00  0.00     0.046 A 
HETATM   26  N4  UNL     1       7.079   0.589  16.292  1.00  0.00    -0.102 NA
HETATM   27  C23 UNL     1       7.484   2.562  17.700  1.00  0.00     0.034 A 
ENDBRANCH  18  21
ENDBRANCH   3  15
BRANCH   1  28
HETATM   28  O1  UNL     1       8.215   8.182  21.839  1.00  0.00    -0.304 OA
BRANCH  28  29
HETATM   29  C5  UNL     1       9.112   9.053  22.480  1.00  0.00     0.185 C 
BRANCH  29  30
HETATM   30  C4  UNL     1       9.503   8.584  23.845  1.00  0.00     0.013 C 
HETATM   31  C3  UNL     1       8.371   8.503  24.822  1.00  0.00     0.037 C 
HETATM   32  C2  UNL     1       8.848   7.782  26.038  1.00  0.00     0.272 C 
HETATM   33  N1  UNL     1      10.085   8.227  26.585  1.00  0.00     0.084 N 
HETATM   34  C1  UNL     1      10.591   7.161  27.449  1.00  0.00     0.309 C 
HETATM   35  C27 UNL     1      11.116   8.541  25.649  1.00  0.00     0.272 C 
HETATM   36  C26 UNL     1      10.600   9.385  24.476  1.00  0.00     0.037 C 
ENDBRANCH  29  30
ENDBRANCH  28  29
ENDBRANCH   1  28
TORSDOF 7
ENDMDL
MODEL 3
REMARK VINA RESULT: -9.197812449      3.350      7.215
REMARK  7 active torsions:
REMARK  status: ('A' for Active; 'I' for Inactive)
REMARK    1  A    between atoms: C4_5  and  C5_6 
REMARK    2  A    between atoms: C5_6  and  O1_7 
REMARK    3  A    between atoms: O1_7  and  C6_8 
REMARK       I    between atoms: C6_8  and  N2_10 
REMARK    4  A    between atoms: N2_10  and  C7_11 
REMARK    5  A    between atoms: N2_10  and  C14_22 
REMARK    6  A    between atoms: C7_11  and  C8_12 
REMARK    7  A    between atoms: C17_25  and  C18_26 
ROOT
HETATM    1  C6  UNL     1       7.097   6.552  19.907  1.00  0.00     0.363 C 
HETATM    2  O2  UNL     1       8.016   7.231  19.405  1.00  0.00    -0.238 OA
HETATM    3  N2  UNL     1       7.272   5.117  19.926  1.00  0.00    -0.323 N 
ENDROOT
BRANCH   3   4
HETATM    4  C7  UNL     1       8.467   4.601  19.374  1.00  0.00     0.133 C 
BRANCH   4   5
HETATM    5  C8  UNL     1       8.466   3.758  18.170  1.00  0.00     0.005 C 
HETATM    6  C9  UNL     1       7.312   3.824  17.255  1.00  0.00     0.034 C 
HETATM    7  C10 UNL     1       7.267   2.630  16.295  1.00  0.00     0.236 C 
HETATM    8  N3  UNL     1       8.559   2.217  15.851  1.00  0.00    -0.044 N 
HETATM    9  C11 UNL     1       9.088   1.091  16.571  1.00  0.00     0.367 C 
ATOM     10  H32 UNL     1       8.551   2.031  14.848  1.00  0.00     0.280 HD
ATOM     11  H31 UNL     1       9.214   2.999  15.876  1.00  0.00     0.280 HD
HETATM   12  F1  UNL     1       8.219   0.044  16.645  1.00  0.00    -0.219 F 
HETATM   13  C12 UNL     1       9.611   1.544  17.896  1.00  0.00     0.067 C 
HETATM   14  C13 UNL     1       8.545   2.295  18.663  1.00  0.00     0.011 C 
ENDBRANCH   4   5
ENDBRANCH   3   4
BRANCH   3  15
HETATM   15  C14 UNL     1       6.283   4.361  20.618  1.00  0.00     0.089 C 
HETATM   16  C15 UNL     1       5.060   3.949  19.865  1.00  0.00     0.026 C 
HETATM   17  C16 UNL     1       3.936   3.742  20.899  1.00  0.00     0.011 C 
HETATM   18  C17 UNL     1       4.525   3.235  22.202  1.00  0.00     0.019 C 
HETATM   19  C24 UNL     1       5.748   2.402  21.979  1.00  0.00     0.011 C 
HETATM   20  C25 UNL     1       6.886   3.222  21.425  1.00  0.00     0.026 C 
BRANCH  18  21
HETATM   21  C18 UNL     1       3.509   2.375  22.841  1.00  0.00    -0.052 A 
HETATM   22  C19 UNL     1       3.690   1.010  22.879  1.00  0.00     0.007 A 
HETATM   23  C20 UNL     1       2.746   0.169  23.474  1.00  0.00     0.002 A 
HETATM   24  C21 UNL     1       1.605   0.699  24.040  1.00  0.00     0.026 A 
HETATM   25  C22 UNL     1       1.413   2.062  24.009  1.00  0.00     0.046 A 
HETATM   26  N4  UNL     1       0.233   2.594  24.593  1.00  0.00    -0.102 NA
HETATM   27  C23 UNL     1       2.366   2.889  23.409  1.00  0.00     0.034 A 
ENDBRANCH  18  21
ENDBRANCH   3  15
BRANCH   1  28
HETATM   28  O1  UNL     1       5.990   7.177  20.406  1.00  0.00    -0.304 OA
BRANCH  28  29
HETATM   29  C5  UNL     1       6.055   8.433  21.032  1.00  0.00     0.185 C 
BRANCH  29  30
HETATM   30  C4  UNL     1       6.824   8.405  22.314  1.00  0.00     0.013 C 
HETATM   31  C3  UNL     1       6.038   7.939  23.500  1.00  0.00     0.037 C 
HETATM   32  C2  UNL     1       6.983   7.711  24.632  1.00  0.00     0.272 C 
HETATM   33  N1  UNL     1       7.907   8.762  24.896  1.00  0.00     0.084 N 
HETATM   34  C1  UNL     1       8.994   8.197  25.696  1.00  0.00     0.309 C 
HETATM   35  C27 UNL     1       8.499   9.388  23.758  1.00  0.00     0.272 C 
HETATM   36  C26 UNL     1       7.466   9.711  22.670  1.00  0.00     0.037 C 
ENDBRANCH  29  30
ENDBRANCH  28  29
ENDBRANCH   1  28
TORSDOF 7
ENDMDL
MODEL 4
REMARK VINA RESULT: -9.158462550      4.211      8.075
REMARK  7 active torsions:
REMARK  status: ('A' for Active; 'I' for Inactive)
REMARK    1  A    between atoms: C4_5  and  C5_6 
REMARK    2  A    between atoms: C5_6  and  O1_7 
REMARK    3  A    between atoms: O1_7  and  C6_8 
REMARK       I    between atoms: C6_8  and  N2_10 
REMARK    4  A    between atoms: N2_10  and  C7_11 
REMARK    5  A    between atoms: N2_10  and  C14_22 
REMARK    6  A    between atoms: C7_11  and  C8_12 
REMARK    7  A    between atoms: C17_25  and  C18_26 
ROOT
HETATM    1  C6  UNL     1       6.439   6.154  19.363  1.00  0.00     0.363 C 
HETATM    2  O2  UNL     1       7.298   6.877  18.818  1.00  0.00    -0.238 OA
HETATM    3  N2  UNL     1       6.830   4.801  19.696  1.00  0.00    -0.323 N 
ENDROOT
BRANCH   3   4
HETATM    4  C7  UNL     1       8.149   4.409  19.374  1.00  0.00     0.133 C 
BRANCH   4   5
HETATM    5  C8  UNL     1       8.439   3.508  18.249  1.00  0.00     0.005 C 
HETATM    6  C9  UNL     1       7.537   3.511  17.083  1.00  0.00     0.034 C 
HETATM    7  C10 UNL     1       7.727   2.271  16.203  1.00  0.00     0.236 C 
HETATM    8  N3  UNL     1       9.089   1.857  16.102  1.00  0.00    -0.044 N 
HETATM    9  C11 UNL     1       9.435   0.776  16.984  1.00  0.00     0.367 C 
ATOM     10  H32 UNL     1       9.322   1.621  15.137  1.00  0.00     0.280 HD
ATOM     11  H31 UNL     1       9.717   2.650  16.242  1.00  0.00     0.280 HD
HETATM   12  F1  UNL     1       8.578  -0.280  16.903  1.00  0.00    -0.219 F 
HETATM   13  C12 UNL     1       9.625   1.302  18.371  1.00  0.00     0.067 C 
HETATM   14  C13 UNL     1       8.404   2.072  18.821  1.00  0.00     0.011 C 
ENDBRANCH   4   5
ENDBRANCH   3   4
BRANCH   3  15
HETATM   15  C14 UNL     1       5.891   4.028  20.437  1.00  0.00     0.089 C 
HETATM   16  C15 UNL     1       4.926   3.178  19.675  1.00  0.00     0.026 C 
HETATM   17  C16 UNL     1       3.691   2.974  20.574  1.00  0.00     0.011 C 
HETATM   18  C17 UNL     1       4.117   2.943  22.030  1.00  0.00     0.019 C 
HETATM   19  C24 UNL     1       5.494   2.384  22.202  1.00  0.00     0.011 C 
HETATM   20  C25 UNL     1       6.539   3.285  21.594  1.00  0.00     0.026 C 
BRANCH  18  21
HETATM   21  C18 UNL     1       3.181   2.052  22.745  1.00  0.00    -0.052 A 
HETATM   22  C19 UNL     1       3.420   0.697  22.788  1.00  0.00     0.007 A 
HETATM   23  C20 UNL     1       2.553  -0.173  23.454  1.00  0.00     0.002 A 
HETATM   24  C21 UNL     1       1.430   0.319  24.088  1.00  0.00     0.026 A 
HETATM   25  C22 UNL     1       1.181   1.673  24.053  1.00  0.00     0.046 A 
HETATM   26  N4  UNL     1       0.021   2.165  24.708  1.00  0.00    -0.102 NA
HETATM   27  C23 UNL     1       2.057   2.529  23.382  1.00  0.00     0.034 A 
ENDBRANCH  18  21
ENDBRANCH   3  15
BRANCH   1  28
HETATM   28  O1  UNL     1       5.196   6.657  19.620  1.00  0.00    -0.304 OA
BRANCH  28  29
HETATM   29  C5  UNL     1       4.985   7.720  20.514  1.00  0.00     0.185 C 
BRANCH  29  30
HETATM   30  C4  UNL     1       4.171   7.325  21.704  1.00  0.00     0.013 C 
HETATM   31  C3  UNL     1       4.950   6.665  22.799  1.00  0.00     0.037 C 
HETATM   32  C2  UNL     1       4.079   6.569  24.007  1.00  0.00     0.272 C 
HETATM   33  N1  UNL     1       2.773   6.043  23.796  1.00  0.00     0.084 N 
HETATM   34  C1  UNL     1       1.953   6.435  24.942  1.00  0.00     0.309 C 
HETATM   35  C27 UNL     1       2.095   6.482  22.619  1.00  0.00     0.272 C 
HETATM   36  C26 UNL     1       2.999   6.449  21.380  1.00  0.00     0.037 C 
ENDBRANCH  29  30
ENDBRANCH  28  29
ENDBRANCH   1  28
TORSDOF 7
ENDMDL
MODEL 5
REMARK VINA RESULT: -9.149438495      1.272      1.509
REMARK  7 active torsions:
REMARK  status: ('A' for Active; 'I' for Inactive)
REMARK    1  A    between atoms: C4_5  and  C5_6 
REMARK    2  A    between atoms: C5_6  and  O1_7 
REMARK    3  A    between atoms: O1_7  and  C6_8 
REMARK       I    between atoms: C6_8  and  N2_10 
REMARK    4  A    between atoms: N2_10  and  C7_11 
REMARK    5  A    between atoms: N2_10  and  C14_22 
REMARK    6  A    between atoms: C7_11  and  C8_12 
REMARK    7  A    between atoms: C17_25  and  C18_26 
ROOT
HETATM    1  C6  UNL     1       6.090   7.512  22.707  1.00  0.00     0.363 C 
HETATM    2  O2  UNL     1       5.508   8.354  23.421  1.00  0.00    -0.238 OA
HETATM    3  N2  UNL     1       5.259   6.611  21.939  1.00  0.00    -0.323 N 
ENDROOT
BRANCH   3   4
HETATM    4  C7  UNL     1       3.858   6.755  22.062  1.00  0.00     0.133 C 
BRANCH   4   5
HETATM    5  C8  UNL     1       2.958   5.594  22.108  1.00  0.00     0.005 C 
HETATM    6  C9  UNL     1       1.543   5.774  21.739  1.00  0.00     0.034 C 
HETATM    7  C10 UNL     1       0.669   4.608  22.214  1.00  0.00     0.236 C 
HETATM    8  N3  UNL     1       1.319   3.342  22.114  1.00  0.00    -0.044 N 
HETATM    9  C11 UNL     1       1.887   2.881  23.351  1.00  0.00     0.367 C 
ATOM     10  H32 UNL     1       0.685   2.643  21.727  1.00  0.00     0.280 HD
ATOM     11  H31 UNL     1       2.026   3.359  21.378  1.00  0.00     0.280 HD
HETATM   12  F1  UNL     1       1.009   2.918  24.393  1.00  0.00    -0.219 F 
HETATM   13  C12 UNL     1       3.172   3.598  23.611  1.00  0.00     0.067 C 
HETATM   14  C13 UNL     1       2.966   5.096  23.572  1.00  0.00     0.011 C 
ENDBRANCH   4   5
ENDBRANCH   3   4
BRANCH   3  15
HETATM   15  C14 UNL     1       5.927   5.744  21.027  1.00  0.00     0.089 C 
HETATM   16  C15 UNL     1       6.007   4.291  21.370  1.00  0.00     0.026 C 
HETATM   17  C16 UNL     1       7.238   3.718  20.642  1.00  0.00     0.011 C 
HETATM   18  C17 UNL     1       7.442   4.447  19.327  1.00  0.00     0.019 C 
HETATM   19  C24 UNL     1       6.149   4.916  18.738  1.00  0.00     0.011 C 
HETATM   20  C25 UNL     1       5.506   5.984  19.586  1.00  0.00     0.026 C 
BRANCH  18  21
HETATM   21  C18 UNL     1       8.043   3.489  18.378  1.00  0.00    -0.052 A 
HETATM   22  C19 UNL     1       7.685   3.522  17.049  1.00  0.00     0.007 A 
HETATM   23  C20 UNL     1       8.234   2.627  16.126  1.00  0.00     0.002 A 
HETATM   24  C21 UNL     1       9.155   1.685  16.539  1.00  0.00     0.026 A 
HETATM   25  C22 UNL     1       9.521   1.643  17.866  1.00  0.00     0.046 A 
HETATM   26  N4  UNL     1      10.468   0.668  18.276  1.00  0.00    -0.102 NA
HETATM   27  C23 UNL     1       8.962   2.544  18.775  1.00  0.00     0.034 A 
ENDBRANCH  18  21
ENDBRANCH   3  15
BRANCH   1  28
HETATM   28  O1  UNL     1       7.455   7.477  22.679  1.00  0.00    -0.304 OA
BRANCH  28  29
HETATM   29  C5  UNL     1       8.242   8.575  23.064  1.00  0.00     0.185 C 
BRANCH  29  30
HETATM   30  C4  UNL     1       9.082   8.293  24.269  1.00  0.00     0.013 C 
HETATM   31  C3  UNL     1       8.310   8.127  25.540  1.00  0.00     0.037 C 
HETATM   32  C2  UNL     1       9.232   7.597  26.587  1.00  0.00     0.272 C 
HETATM   33  N1  UNL     1      10.478   8.273  26.723  1.00  0.00     0.084 N 
HETATM   34  C1  UNL     1      11.386   7.377  27.438  1.00  0.00     0.309 C 
HETATM   35  C27 UNL     1      11.128   8.656  25.511  1.00  0.00     0.272 C 
HETATM   36  C26 UNL     1      10.160   9.305  24.512  1.00  0.00     0.037 C 
ENDBRANCH  29  30
ENDBRANCH  28  29
ENDBRANCH   1  28
TORSDOF 7
ENDMDL
