MODEL 1
REMARK VINA RESULT: -5.260536926      0.000      0.000
REMARK  3 active torsions:
REMARK  status: ('A' for Active; 'I' for Inactive)
REMARK    1  A    between atoms: C3_3  and  C4_4 
REMARK    2  A    between atoms: N2_9  and  N3_10 
REMARK    3  A    between atoms: C6_13  and  N4_14 
ROOT
HETATM    1  C1  UNL     1      26.089  24.694  31.967  1.00  0.00     0.012 C 
HETATM    2  C2  UNL     1      25.576  23.612  31.818  1.00  0.00    -0.110 C 
HETATM    3  C3  UNL     1      24.950  22.296  31.610  1.00  0.00     0.170 C 
ENDROOT
BRANCH   3   4
HETATM    4  C4  UNL     1      23.802  22.397  30.669  1.00  0.00     0.112 A 
HETATM    5  N1  UNL     1      22.533  22.127  31.031  1.00  0.00    -0.295 N 
HETATM    6  C5  UNL     1      21.523  22.232  30.142  1.00  0.00     0.361 A 
ATOM      7  H1  UNL     1      22.333  21.839  31.989  1.00  0.00     0.172 HD
HETATM    8  O1  UNL     1      20.323  21.974  30.490  1.00  0.00    -0.244 OA
HETATM    9  N2  UNL     1      21.727  22.607  28.871  1.00  0.00    -0.038 N 
HETATM   10  C6  UNL     1      22.985  22.878  28.500  1.00  0.00     0.702 A 
HETATM   11  N5  UNL     1      24.011  22.773  29.396  1.00  0.00    -0.178 N 
ATOM     12  H5  UNL     1      24.961  22.985  29.090  1.00  0.00     0.185 HD
BRANCH   9  13
HETATM   13  N3  UNL     1      20.652  22.704  27.978  1.00  0.00    -0.320 N 
ATOM     14  H32 UNL     1      20.675  22.274  27.054  1.00  0.00     0.178 HD
ATOM     15  H31 UNL     1      19.809  23.217  28.238  1.00  0.00     0.178 HD
ENDBRANCH   9  13
BRANCH  10  16
HETATM   16  N4  UNL     1      23.209  23.239  27.292  1.00  0.00    -0.233 N 
ATOM     17  H42 UNL     1      22.775  22.742  26.513  1.00  0.00     0.174 HD
ATOM     18  H41 UNL     1      23.829  24.031  27.121  1.00  0.00     0.174 HD
ENDBRANCH  10  16
ENDBRANCH   3   4
TORSDOF 3
ENDMDL
MODEL 2
REMARK VINA RESULT: -5.166163977      2.884      5.241
REMARK  3 active torsions:
REMARK  status: ('A' for Active; 'I' for Inactive)
REMARK    1  A    between atoms: C3_3  and  C4_4 
REMARK    2  A    between atoms: N2_9  and  N3_10 
REMARK    3  A    between atoms: C6_13  and  N4_14 
ROOT
HETATM    1  C1  UNL     1      17.471  18.495  28.539  1.00  0.00     0.012 C 
HETATM    2  C2  UNL     1      18.212  18.783  29.447  1.00  0.00    -0.110 C 
HETATM    3  C3  UNL     1      19.109  19.159  30.553  1.00  0.00     0.170 C 
ENDROOT
BRANCH   3   4
HETATM    4  C4  UNL     1      19.907  20.365  30.203  1.00  0.00     0.112 A 
HETATM    5  N1  UNL     1      20.976  20.767  30.916  1.00  0.00    -0.295 N 
HETATM    6  C5  UNL     1      21.670  21.868  30.559  1.00  0.00     0.361 A 
ATOM      7  H1  UNL     1      21.265  20.233  31.735  1.00  0.00     0.172 HD
HETATM    8  O1  UNL     1      22.681  22.245  31.239  1.00  0.00    -0.244 OA
HETATM    9  N2  UNL     1      21.337  22.608  29.492  1.00  0.00    -0.038 N 
HETATM   10  C6  UNL     1      20.275  22.216  28.775  1.00  0.00     0.702 A 
HETATM   11  N5  UNL     1      19.569  21.103  29.131  1.00  0.00    -0.178 N 
ATOM     12  H5  UNL     1      18.764  20.824  28.570  1.00  0.00     0.185 HD
BRANCH   9  13
HETATM   13  N3  UNL     1      22.083  23.745  29.155  1.00  0.00    -0.320 N 
ATOM     14  H32 UNL     1      22.608  24.273  29.851  1.00  0.00     0.178 HD
ATOM     15  H31 UNL     1      22.117  24.073  28.190  1.00  0.00     0.178 HD
ENDBRANCH   9  13
BRANCH  10  16
HETATM   16  N4  UNL     1      19.934  22.904  27.750  1.00  0.00    -0.233 N 
ATOM     17  H42 UNL     1      20.633  23.416  27.212  1.00  0.00     0.174 HD
ATOM     18  H41 UNL     1      18.951  22.931  27.481  1.00  0.00     0.174 HD
ENDBRANCH  10  16
ENDBRANCH   3   4
TORSDOF 3
ENDMDL
MODEL 3
REMARK VINA RESULT: -5.082987228      2.887      4.944
REMARK  3 active torsions:
REMARK  status: ('A' for Active; 'I' for Inactive)
REMARK    1  A    between atoms: C3_3  and  C4_4 
REMARK    2  A    between atoms: N2_9  and  N3_10 
REMARK    3  A    between atoms: C6_13  and  N4_14 
ROOT
HETATM    1  C1  UNL     1      18.194  18.808  32.672  1.00  0.00     0.012 C 
HETATM    2  C2  UNL     1      18.636  18.852  31.550  1.00  0.00    -0.110 C 
HETATM    3  C3  UNL     1      19.198  18.913  30.190  1.00  0.00     0.170 C 
ENDROOT
BRANCH   3   4
HETATM    4  C4  UNL     1      19.936  20.188  29.977  1.00  0.00     0.112 A 
HETATM    5  N1  UNL     1      20.944  20.590  30.773  1.00  0.00    -0.295 N 
HETATM    6  C5  UNL     1      21.585  21.755  30.541  1.00  0.00     0.361 A 
ATOM      7  H1  UNL     1      21.228  20.008  31.562  1.00  0.00     0.172 HD
HETATM    8  O1  UNL     1      22.539  22.133  31.299  1.00  0.00    -0.244 OA
HETATM    9  N2  UNL     1      21.256  22.560  29.520  1.00  0.00    -0.038 N 
HETATM   10  C6  UNL     1      20.255  22.168  28.721  1.00  0.00     0.702 A 
HETATM   11  N5  UNL     1      19.602  20.991  28.952  1.00  0.00    -0.178 N 
ATOM     12  H5  UNL     1      18.843  20.714  28.330  1.00  0.00     0.185 HD
BRANCH   9  13
HETATM   13  N3  UNL     1      21.946  23.762  29.312  1.00  0.00    -0.320 N 
ATOM     14  H32 UNL     1      21.563  24.662  29.600  1.00  0.00     0.178 HD
ATOM     15  H31 UNL     1      22.861  23.762  28.861  1.00  0.00     0.178 HD
ENDBRANCH   9  13
BRANCH  10  16
HETATM   16  N4  UNL     1      19.920  22.918  27.738  1.00  0.00    -0.233 N 
ATOM     17  H42 UNL     1      20.242  22.710  26.793  1.00  0.00     0.174 HD
ATOM     18  H41 UNL     1      19.324  23.726  27.917  1.00  0.00     0.174 HD
ENDBRANCH  10  16
ENDBRANCH   3   4
TORSDOF 3
ENDMDL
MODEL 4
REMARK VINA RESULT: -5.054025736      3.417      5.578
REMARK  3 active torsions:
REMARK  status: ('A' for Active; 'I' for Inactive)
REMARK    1  A    between atoms: C3_3  and  C4_4 
REMARK    2  A    between atoms: N2_9  and  N3_10 
REMARK    3  A    between atoms: C6_13  and  N4_14 
ROOT
HETATM    1  C1  UNL     1      16.507  18.657  31.931  1.00  0.00     0.012 C 
HETATM    2  C2  UNL     1      17.690  18.592  31.703  1.00  0.00    -0.110 C 
HETATM    3  C3  UNL     1      19.137  18.537  31.435  1.00  0.00     0.170 C 
ENDROOT
BRANCH   3   4
HETATM    4  C4  UNL     1      19.587  19.752  30.703  1.00  0.00     0.112 A 
HETATM    5  N1  UNL     1      20.622  20.511  31.112  1.00  0.00    -0.295 N 
HETATM    6  C5  UNL     1      20.995  21.605  30.415  1.00  0.00     0.361 A 
ATOM      7  H1  UNL     1      21.130  20.256  31.959  1.00  0.00     0.172 HD
HETATM    8  O1  UNL     1      21.974  22.321  30.808  1.00  0.00    -0.244 OA
HETATM    9  N2  UNL     1      20.364  21.987  29.295  1.00  0.00    -0.038 N 
HETATM   10  C6  UNL     1      19.334  21.238  28.879  1.00  0.00     0.702 A 
HETATM   11  N5  UNL     1      18.952  20.131  29.580  1.00  0.00    -0.178 N 
ATOM     12  H5  UNL     1      18.165  19.577  29.244  1.00  0.00     0.185 HD
BRANCH   9  13
HETATM   13  N3  UNL     1      20.782  23.129  28.600  1.00  0.00    -0.320 N 
ATOM     14  H32 UNL     1      21.197  23.075  27.670  1.00  0.00     0.178 HD
ATOM     15  H31 UNL     1      20.678  24.055  29.016  1.00  0.00     0.178 HD
ENDBRANCH   9  13
BRANCH  10  16
HETATM   16  N4  UNL     1      18.714  21.580  27.811  1.00  0.00    -0.233 N 
ATOM     17  H42 UNL     1      19.123  22.257  27.167  1.00  0.00     0.174 HD
ATOM     18  H41 UNL     1      17.804  21.163  27.617  1.00  0.00     0.174 HD
ENDBRANCH  10  16
ENDBRANCH   3   4
TORSDOF 3
ENDMDL
MODEL 5
REMARK VINA RESULT: -5.000268436      1.559      2.361
REMARK  3 active torsions:
REMARK  status: ('A' for Active; 'I' for Inactive)
REMARK    1  A    between atoms: C3_3  and  C4_4 
REMARK    2  A    between atoms: N2_9  and  N3_10 
REMARK    3  A    between atoms: C6_13  and  N4_14 
ROOT
HETATM    1  C1  UNL     1      25.668  24.163  31.982  1.00  0.00     0.012 C 
HETATM    2  C2  UNL     1      24.960  23.191  31.877  1.00  0.00    -0.110 C 
HETATM    3  C3  UNL     1      24.100  22.006  31.725  1.00  0.00     0.170 C 
ENDROOT
BRANCH   3   4
HETATM    4  C4  UNL     1      23.068  22.231  30.676  1.00  0.00     0.112 A 
HETATM    5  N1  UNL     1      23.350  22.776  29.478  1.00  0.00    -0.295 N 
HETATM    6  C5  UNL     1      22.380  22.961  28.557  1.00  0.00     0.361 A 
ATOM      7  H1  UNL     1      24.308  23.052  29.262  1.00  0.00     0.172 HD
HETATM    8  O1  UNL     1      22.653  23.479  27.424  1.00  0.00    -0.244 OA
HETATM    9  N2  UNL     1      21.104  22.617  28.785  1.00  0.00    -0.038 N 
HETATM   10  C6  UNL     1      20.813  22.073  29.974  1.00  0.00     0.702 A 
HETATM   11  N5  UNL     1      21.790  21.884  30.909  1.00  0.00    -0.178 N 
ATOM     12  H5  UNL     1      21.544  21.469  31.808  1.00  0.00     0.185 HD
BRANCH   9  13
HETATM   13  N3  UNL     1      20.127  22.825  27.803  1.00  0.00    -0.320 N 
ATOM     14  H32 UNL     1      19.308  22.223  27.718  1.00  0.00     0.178 HD
ATOM     15  H31 UNL     1      20.215  23.596  27.141  1.00  0.00     0.178 HD
ENDBRANCH   9  13
BRANCH  10  16
HETATM   16  N4  UNL     1      19.602  21.735  30.218  1.00  0.00    -0.233 N 
ATOM     17  H42 UNL     1      19.394  21.012  30.908  1.00  0.00     0.174 HD
ATOM     18  H41 UNL     1      18.850  22.200  29.711  1.00  0.00     0.174 HD
ENDBRANCH  10  16
ENDBRANCH   3   4
TORSDOF 3
ENDMDL
