MODEL 1
REMARK VINA RESULT: -7.022873775      0.000      0.000
REMARK  12 active torsions:
REMARK  status: ('A' for Active; 'I' for Inactive)
REMARK    1  A    between atoms: C2_2  and  C3_3 
REMARK    2  A    between atoms: C3_3  and  C5_5 
REMARK    3  A    between atoms: C7_10  and  C8_11 
REMARK    4  A    between atoms: C12_16  and  O2_17 
REMARK    5  A    between atoms: C13_19  and  C14_20 
REMARK    6  A    between atoms: C14_20  and  C16_22 
REMARK    7  A    between atoms: C19_28  and  N4_29 
REMARK    8  A    between atoms: N4_29  and  C20_30 
REMARK       I    between atoms: N4_29  and  C22_32 
REMARK    9  A    between atoms: C25_37  and  C26_38 
REMARK   10  A    between atoms: C26_38  and  C27_39 
REMARK   11  A    between atoms: C27_39  and  C28_40 
REMARK   12  A    between atoms: C28_40  and  N5_41 
ROOT
HETATM    1  C5  UNL     1       5.092  25.317   3.370  1.00  0.00     0.180 C 
HETATM    2  N1  UNL     1       5.461  25.222   1.986  1.00  0.00    -0.342 N 
ATOM      3  H1  UNL     1       4.805  24.686   1.417  1.00  0.00     0.163 HD
HETATM    4  C6  UNL     1       6.546  25.722   1.278  1.00  0.00     0.265 C 
HETATM    5  O1  UNL     1       6.289  26.324   0.199  1.00  0.00    -0.266 OA
HETATM    6  C7  UNL     1       8.005  25.647   1.618  1.00  0.00     0.084 C 
HETATM    7  N2  UNL     1       8.339  24.678   2.580  1.00  0.00    -0.333 N 
HETATM    8  C11 UNL     1       7.779  23.322   2.197  1.00  0.00     0.158 C 
HETATM    9  C12 UNL     1       9.046  24.640   3.780  1.00  0.00     0.141 C 
HETATM   10  C13 UNL     1      10.177  25.365   4.341  1.00  0.00     0.163 C 
HETATM   11  N3  UNL     1       9.963  26.725   4.752  1.00  0.00    -0.347 N 
ATOM     12  H3  UNL     1      10.497  27.409   4.216  1.00  0.00     0.163 HD
HETATM   13  C18 UNL     1       9.169  27.277   5.736  1.00  0.00     0.248 C 
HETATM   14  O3  UNL     1       9.580  28.419   6.184  1.00  0.00    -0.271 OA
HETATM   15  C19 UNL     1       7.941  26.810   6.369  1.00  0.00     0.251 C 
HETATM   16  C24 UNL     1       6.877  27.889   6.226  1.00  0.00     0.181 C 
HETATM   17  O5  UNL     1       7.285  29.028   6.300  1.00  0.00    -0.293 OA
HETATM   18  C25 UNL     1       5.429  27.527   6.010  1.00  0.00     0.157 C 
HETATM   19  N8  UNL     1       5.048  27.592   4.620  1.00  0.00    -0.348 N 
ATOM     20  H8  UNL     1       5.194  28.497   4.173  1.00  0.00     0.163 HD
HETATM   21  C30 UNL     1       4.508  26.601   3.793  1.00  0.00     0.241 C 
HETATM   22  O6  UNL     1       3.333  26.837   3.329  1.00  0.00    -0.271 OA
ENDROOT
BRANCH  18  23
HETATM   23  C26 UNL     1       4.626  28.676   6.650  1.00  0.00     0.034 C 
BRANCH  23  24
HETATM   24  C27 UNL     1       3.855  28.253   7.852  1.00  0.00     0.022 C 
BRANCH  24  25
HETATM   25  C28 UNL     1       2.420  27.936   7.405  1.00  0.00     0.122 C 
BRANCH  25  26
HETATM   26  N5  UNL     1       1.509  28.085   8.507  1.00  0.00    -0.367 N 
HETATM   27  C29 UNL     1       0.894  29.173   8.794  1.00  0.00     0.196 C 
HETATM   28  N6  UNL     1       0.018  29.190   9.914  1.00  0.00    -0.067 NA
HETATM   29  N7  UNL     1       1.051  30.368   8.041  1.00  0.00    -0.067 NA
ATOM     30  H5  UNL     1       1.341  27.272   9.099  1.00  0.00     0.161 HD
ENDBRANCH  25  26
ENDBRANCH  24  25
ENDBRANCH  23  24
ENDBRANCH  18  23
BRANCH  15  31
HETATM   31  N4  UNL     1       7.999  26.469   7.751  1.00  0.00    -0.333 N 
HETATM   32  C22 UNL     1       8.602  25.285   8.222  1.00  0.00     0.216 C 
HETATM   33  C23 UNL     1       8.691  24.883   9.635  1.00  0.00     0.117 C 
HETATM   34  O4  UNL     1       9.109  24.503   7.379  1.00  0.00    -0.274 OA
BRANCH  31  35
HETATM   35  C20 UNL     1       7.414  27.357   8.714  1.00  0.00     0.122 C 
HETATM   36  C21 UNL     1       8.423  28.209   9.445  1.00  0.00     0.026 C 
ENDBRANCH  31  35
ENDBRANCH  15  31
BRANCH   1  37
HETATM   37  C3  UNL     1       4.072  24.234   3.725  1.00  0.00     0.013 C 
HETATM   38  C4  UNL     1       3.384  24.450   5.026  1.00  0.00     0.012 C 
BRANCH  37  39
HETATM   39  C2  UNL     1       4.676  22.850   3.720  1.00  0.00     0.002 C 
HETATM   40  C1  UNL     1       3.697  21.800   4.115  1.00  0.00     0.005 C 
ENDBRANCH  37  39
ENDBRANCH   1  37
BRANCH  10  41
HETATM   41  C14 UNL     1      11.466  25.194   3.555  1.00  0.00     0.012 C 
HETATM   42  C15 UNL     1      12.686  25.361   4.391  1.00  0.00     0.012 C 
BRANCH  41  43
HETATM   43  C16 UNL     1      11.555  23.838   2.897  1.00  0.00     0.002 C 
HETATM   44  C17 UNL     1      12.379  22.868   3.703  1.00  0.00     0.005 C 
ENDBRANCH  41  43
ENDBRANCH  10  41
BRANCH   9  45
HETATM   45  O2  UNL     1       8.583  23.730   4.597  1.00  0.00    -0.348 OA
ATOM     46  H2  UNL     1       9.068  22.916   4.538  1.00  0.00     0.219 HD
ENDBRANCH   9  45
BRANCH   6  47
HETATM   47  C8  UNL     1       8.637  26.944   1.432  1.00  0.00     0.033 C 
HETATM   48  C9  UNL     1       8.486  27.501  -0.002  1.00  0.00     0.016 C 
HETATM   49  C10 UNL     1       7.903  28.076   2.212  1.00  0.00     0.016 C 
ENDBRANCH   6  47
TORSDOF 12
ENDMDL
MODEL 2
REMARK VINA RESULT: -6.868751146      1.255      1.677
REMARK  12 active torsions:
REMARK  status: ('A' for Active; 'I' for Inactive)
REMARK    1  A    between atoms: C2_2  and  C3_3 
REMARK    2  A    between atoms: C3_3  and  C5_5 
REMARK    3  A    between atoms: C7_10  and  C8_11 
REMARK    4  A    between atoms: C12_16  and  O2_17 
REMARK    5  A    between atoms: C13_19  and  C14_20 
REMARK    6  A    between atoms: C14_20  and  C16_22 
REMARK    7  A    between atoms: C19_28  and  N4_29 
REMARK    8  A    between atoms: N4_29  and  C20_30 
REMARK       I    between atoms: N4_29  and  C22_32 
REMARK    9  A    between atoms: C25_37  and  C26_38 
REMARK   10  A    between atoms: C26_38  and  C27_39 
REMARK   11  A    between atoms: C27_39  and  C28_40 
REMARK   12  A    between atoms: C28_40  and  N5_41 
ROOT
HETATM    1  C5  UNL     1       5.120  25.321   3.356  1.00  0.00     0.180 C 
HETATM    2  N1  UNL     1       5.507  25.232   1.977  1.00  0.00    -0.342 N 
ATOM      3  H1  UNL     1       4.857  24.700   1.397  1.00  0.00     0.163 HD
HETATM    4  C6  UNL     1       6.601  25.734   1.285  1.00  0.00     0.265 C 
HETATM    5  O1  UNL     1       6.359  26.341   0.206  1.00  0.00    -0.266 OA
HETATM    6  C7  UNL     1       8.055  25.654   1.642  1.00  0.00     0.084 C 
HETATM    7  N2  UNL     1       8.376  24.680   2.603  1.00  0.00    -0.333 N 
HETATM    8  C11 UNL     1       7.819  23.326   2.206  1.00  0.00     0.158 C 
HETATM    9  C12 UNL     1       9.068  24.634   3.812  1.00  0.00     0.141 C 
HETATM   10  C13 UNL     1      10.193  25.354   4.391  1.00  0.00     0.163 C 
HETATM   11  N3  UNL     1       9.976  26.713   4.806  1.00  0.00    -0.347 N 
ATOM     12  H3  UNL     1      10.518  27.399   4.281  1.00  0.00     0.163 HD
HETATM   13  C18 UNL     1       9.171  27.262   5.783  1.00  0.00     0.248 C 
HETATM   14  O3  UNL     1       9.578  28.401   6.242  1.00  0.00    -0.271 OA
HETATM   15  C19 UNL     1       7.934  26.794   6.398  1.00  0.00     0.251 C 
HETATM   16  C24 UNL     1       6.874  27.876   6.248  1.00  0.00     0.181 C 
HETATM   17  O5  UNL     1       7.283  29.013   6.332  1.00  0.00    -0.293 OA
HETATM   18  C25 UNL     1       5.429  27.517   6.011  1.00  0.00     0.157 C 
HETATM   19  N8  UNL     1       5.065  27.590   4.617  1.00  0.00    -0.348 N 
ATOM     20  H8  UNL     1       5.218  28.497   4.176  1.00  0.00     0.163 HD
HETATM   21  C30 UNL     1       4.533  26.604   3.778  1.00  0.00     0.241 C 
HETATM   22  O6  UNL     1       3.365  26.844   3.301  1.00  0.00    -0.271 OA
ENDROOT
BRANCH  18  23
HETATM   23  C26 UNL     1       4.619  28.664   6.647  1.00  0.00     0.034 C 
BRANCH  23  24
HETATM   24  C27 UNL     1       3.174  28.343   6.809  1.00  0.00     0.022 C 
BRANCH  24  25
HETATM   25  C28 UNL     1       2.363  29.526   6.259  1.00  0.00     0.122 C 
BRANCH  25  26
HETATM   26  N5  UNL     1       1.994  29.285   4.891  1.00  0.00    -0.367 N 
HETATM   27  C29 UNL     1       2.263  30.078   3.919  1.00  0.00     0.196 C 
HETATM   28  N6  UNL     1       1.840  29.723   2.609  1.00  0.00    -0.067 NA
HETATM   29  N7  UNL     1       2.967  31.300   4.095  1.00  0.00    -0.067 NA
ATOM     30  H5  UNL     1       1.484  28.427   4.679  1.00  0.00     0.161 HD
ENDBRANCH  25  26
ENDBRANCH  24  25
ENDBRANCH  23  24
ENDBRANCH  18  23
BRANCH  15  31
HETATM   31  N4  UNL     1       7.974  26.445   7.779  1.00  0.00    -0.333 N 
HETATM   32  C22 UNL     1       8.556  25.251   8.250  1.00  0.00     0.216 C 
HETATM   33  C23 UNL     1       8.626  24.840   9.662  1.00  0.00     0.117 C 
HETATM   34  O4  UNL     1       9.059  24.465   7.408  1.00  0.00    -0.274 OA
BRANCH  31  35
HETATM   35  C20 UNL     1       7.394  27.338   8.741  1.00  0.00     0.122 C 
HETATM   36  C21 UNL     1       8.402  28.215   9.441  1.00  0.00     0.026 C 
ENDBRANCH  31  35
ENDBRANCH  15  31
BRANCH   1  37
HETATM   37  C3  UNL     1       4.094  24.238   3.693  1.00  0.00     0.013 C 
HETATM   38  C4  UNL     1       3.368  24.466   4.971  1.00  0.00     0.012 C 
BRANCH  37  39
HETATM   39  C2  UNL     1       4.703  22.856   3.720  1.00  0.00     0.002 C 
HETATM   40  C1  UNL     1       3.715  21.806   4.095  1.00  0.00     0.005 C 
ENDBRANCH  37  39
ENDBRANCH   1  37
BRANCH  10  41
HETATM   41  C14 UNL     1      11.492  25.186   3.620  1.00  0.00     0.012 C 
HETATM   42  C15 UNL     1      12.701  25.355   4.470  1.00  0.00     0.012 C 
BRANCH  41  43
HETATM   43  C16 UNL     1      11.590  23.830   2.964  1.00  0.00     0.002 C 
HETATM   44  C17 UNL     1      12.369  22.849   3.801  1.00  0.00     0.005 C 
ENDBRANCH  41  43
ENDBRANCH  10  41
BRANCH   9  45
HETATM   45  O2  UNL     1       8.593  23.722   4.618  1.00  0.00    -0.348 OA
ATOM     46  H2  UNL     1       9.168  23.562   5.357  1.00  0.00     0.219 HD
ENDBRANCH   9  45
BRANCH   6  47
HETATM   47  C8  UNL     1       8.692  26.951   1.471  1.00  0.00     0.033 C 
HETATM   48  C9  UNL     1       8.589  27.501   0.030  1.00  0.00     0.016 C 
HETATM   49  C10 UNL     1       7.931  28.086   2.219  1.00  0.00     0.016 C 
ENDBRANCH   6  47
TORSDOF 12
ENDMDL
MODEL 3
REMARK VINA RESULT: -6.087725556      2.585      7.130
REMARK  12 active torsions:
REMARK  status: ('A' for Active; 'I' for Inactive)
REMARK    1  A    between atoms: C2_2  and  C3_3 
REMARK    2  A    between atoms: C3_3  and  C5_5 
REMARK    3  A    between atoms: C7_10  and  C8_11 
REMARK    4  A    between atoms: C12_16  and  O2_17 
REMARK    5  A    between atoms: C13_19  and  C14_20 
REMARK    6  A    between atoms: C14_20  and  C16_22 
REMARK    7  A    between atoms: C19_28  and  N4_29 
REMARK    8  A    between atoms: N4_29  and  C20_30 
REMARK       I    between atoms: N4_29  and  C22_32 
REMARK    9  A    between atoms: C25_37  and  C26_38 
REMARK   10  A    between atoms: C26_38  and  C27_39 
REMARK   11  A    between atoms: C27_39  and  C28_40 
REMARK   12  A    between atoms: C28_40  and  N5_41 
ROOT
HETATM    1  C5  UNL     1       6.990  26.145   3.497  1.00  0.00     0.180 C 
HETATM    2  N1  UNL     1       6.702  24.839   2.978  1.00  0.00    -0.342 N 
ATOM      3  H1  UNL     1       7.441  24.453   2.390  1.00  0.00     0.163 HD
HETATM    4  C6  UNL     1       5.603  24.002   3.126  1.00  0.00     0.265 C 
HETATM    5  O1  UNL     1       5.843  22.802   3.432  1.00  0.00    -0.266 OA
HETATM    6  C7  UNL     1       4.148  24.327   2.970  1.00  0.00     0.084 C 
HETATM    7  N2  UNL     1       3.879  25.518   2.272  1.00  0.00    -0.333 N 
HETATM    8  C11 UNL     1       4.606  25.540   0.942  1.00  0.00     0.158 C 
HETATM    9  C12 UNL     1       3.123  26.669   2.482  1.00  0.00     0.141 C 
HETATM   10  C13 UNL     1       1.891  26.987   3.190  1.00  0.00     0.163 C 
HETATM   11  N3  UNL     1       1.929  27.002   4.626  1.00  0.00    -0.347 N 
ATOM     12  H3  UNL     1       1.348  26.288   5.065  1.00  0.00     0.163 HD
HETATM   13  C18 UNL     1       2.607  27.804   5.522  1.00  0.00     0.248 C 
HETATM   14  O3  UNL     1       2.048  27.907   6.685  1.00  0.00    -0.271 OA
HETATM   15  C19 UNL     1       3.848  28.560   5.403  1.00  0.00     0.251 C 
HETATM   16  C24 UNL     1       4.788  28.137   6.522  1.00  0.00     0.181 C 
HETATM   17  O5  UNL     1       4.251  27.882   7.577  1.00  0.00    -0.293 OA
HETATM   18  C25 UNL     1       6.276  28.053   6.293  1.00  0.00     0.157 C 
HETATM   19  N8  UNL     1       6.715  26.707   6.017  1.00  0.00    -0.348 N 
ATOM     20  H8  UNL     1       6.490  26.021   6.738  1.00  0.00     0.163 HD
HETATM   21  C30 UNL     1       7.404  26.200   4.909  1.00  0.00     0.241 C 
HETATM   22  O6  UNL     1       8.566  25.706   5.149  1.00  0.00    -0.271 OA
ENDROOT
BRANCH  18  23
HETATM   23  C26 UNL     1       6.913  28.357   7.664  1.00  0.00     0.034 C 
BRANCH  23  24
HETATM   24  C27 UNL     1       8.387  28.558   7.595  1.00  0.00     0.022 C 
BRANCH  24  25
HETATM   25  C28 UNL     1       9.001  27.994   8.884  1.00  0.00     0.122 C 
BRANCH  25  26
HETATM   26  N5  UNL     1       9.932  26.944   8.575  1.00  0.00    -0.367 N 
HETATM   27  C29 UNL     1       9.621  25.701   8.497  1.00  0.00     0.196 C 
HETATM   28  N6  UNL     1      10.639  24.759   8.183  1.00  0.00    -0.067 NA
HETATM   29  N7  UNL     1       8.300  25.224   8.711  1.00  0.00    -0.067 NA
ATOM     30  H5  UNL     1      10.905  27.203   8.407  1.00  0.00     0.161 HD
ENDBRANCH  25  26
ENDBRANCH  24  25
ENDBRANCH  23  24
ENDBRANCH  18  23
BRANCH  15  31
HETATM   31  N4  UNL     1       3.761  29.982   5.453  1.00  0.00    -0.333 N 
HETATM   32  C22 UNL     1       3.195  30.751   4.417  1.00  0.00     0.216 C 
HETATM   33  C23 UNL     1       3.079  32.219   4.416  1.00  0.00     0.117 C 
HETATM   34  O4  UNL     1       2.748  30.149   3.409  1.00  0.00    -0.274 OA
BRANCH  31  35
HETATM   35  C20 UNL     1       4.277  30.672   6.601  1.00  0.00     0.122 C 
HETATM   36  C21 UNL     1       3.209  31.148   7.554  1.00  0.00     0.026 C 
ENDBRANCH  31  35
ENDBRANCH  15  31
BRANCH   1  37
HETATM   37  C3  UNL     1       8.107  26.806   2.688  1.00  0.00     0.013 C 
HETATM   38  C4  UNL     1       7.799  28.192   2.244  1.00  0.00     0.012 C 
BRANCH  37  39
HETATM   39  C2  UNL     1       8.506  25.988   1.483  1.00  0.00     0.002 C 
HETATM   40  C1  UNL     1       8.108  26.633   0.200  1.00  0.00     0.005 C 
ENDBRANCH  37  39
ENDBRANCH   1  37
BRANCH  10  41
HETATM   41  C14 UNL     1       0.669  26.261   2.652  1.00  0.00     0.012 C 
HETATM   42  C15 UNL     1      -0.607  26.758   3.232  1.00  0.00     0.012 C 
BRANCH  41  43
HETATM   43  C16 UNL     1       0.555  26.376   1.151  1.00  0.00     0.002 C 
HETATM   44  C17 UNL     1       0.554  25.029   0.477  1.00  0.00     0.005 C 
ENDBRANCH  41  43
ENDBRANCH  10  41
BRANCH   9  45
HETATM   45  O2  UNL     1       3.645  27.715   1.898  1.00  0.00    -0.348 OA
ATOM     46  H2  UNL     1       3.023  28.428   1.817  1.00  0.00     0.219 HD
ENDBRANCH   9  45
BRANCH   6  47
HETATM   47  C8  UNL     1       3.382  23.775   4.077  1.00  0.00     0.033 C 
HETATM   48  C9  UNL     1       1.908  23.481   3.720  1.00  0.00     0.016 C 
HETATM   49  C10 UNL     1       3.837  22.331   4.446  1.00  0.00     0.016 C 
ENDBRANCH   6  47
TORSDOF 12
ENDMDL
MODEL 4
REMARK VINA RESULT: -5.893332629      3.165      7.874
REMARK  12 active torsions:
REMARK  status: ('A' for Active; 'I' for Inactive)
REMARK    1  A    between atoms: C2_2  and  C3_3 
REMARK    2  A    between atoms: C3_3  and  C5_5 
REMARK    3  A    between atoms: C7_10  and  C8_11 
REMARK    4  A    between atoms: C12_16  and  O2_17 
REMARK    5  A    between atoms: C13_19  and  C14_20 
REMARK    6  A    between atoms: C14_20  and  C16_22 
REMARK    7  A    between atoms: C19_28  and  N4_29 
REMARK    8  A    between atoms: N4_29  and  C20_30 
REMARK       I    between atoms: N4_29  and  C22_32 
REMARK    9  A    between atoms: C25_37  and  C26_38 
REMARK   10  A    between atoms: C26_38  and  C27_39 
REMARK   11  A    between atoms: C27_39  and  C28_40 
REMARK   12  A    between atoms: C28_40  and  N5_41 
ROOT
HETATM    1  C5  UNL     1       5.427  26.197   2.388  1.00  0.00     0.180 C 
HETATM    2  N1  UNL     1       4.765  25.078   1.782  1.00  0.00    -0.342 N 
ATOM      3  H1  UNL     1       5.318  24.607   1.065  1.00  0.00     0.163 HD
HETATM    4  C6  UNL     1       3.512  24.517   1.989  1.00  0.00     0.265 C 
HETATM    5  O1  UNL     1       3.469  23.264   2.136  1.00  0.00    -0.266 OA
HETATM    6  C7  UNL     1       2.178  25.199   2.061  1.00  0.00     0.084 C 
HETATM    7  N2  UNL     1       2.149  26.500   1.530  1.00  0.00    -0.333 N 
HETATM    8  C11 UNL     1       2.717  26.521   0.123  1.00  0.00     0.158 C 
HETATM    9  C12 UNL     1       1.736  27.761   1.953  1.00  0.00     0.141 C 
HETATM   10  C13 UNL     1       0.705  28.269   2.847  1.00  0.00     0.163 C 
HETATM   11  N3  UNL     1       0.894  28.086   4.260  1.00  0.00    -0.347 N 
ATOM     12  H3  UNL     1       0.199  27.480   4.697  1.00  0.00     0.163 HD
HETATM   13  C18 UNL     1       1.841  28.577   5.135  1.00  0.00     0.248 C 
HETATM   14  O3  UNL     1       1.450  28.657   6.366  1.00  0.00    -0.271 OA
HETATM   15  C19 UNL     1       3.214  29.023   4.929  1.00  0.00     0.251 C 
HETATM   16  C24 UNL     1       4.127  28.243   5.865  1.00  0.00     0.181 C 
HETATM   17  O5  UNL     1       3.655  27.988   6.951  1.00  0.00    -0.293 OA
HETATM   18  C25 UNL     1       5.514  27.836   5.434  1.00  0.00     0.157 C 
HETATM   19  N8  UNL     1       5.566  26.472   4.966  1.00  0.00    -0.348 N 
ATOM     20  H8  UNL     1       5.250  25.772   5.637  1.00  0.00     0.163 HD
HETATM   21  C30 UNL     1       5.985  25.965   3.731  1.00  0.00     0.241 C 
HETATM   22  O6  UNL     1       7.002  25.181   3.764  1.00  0.00    -0.271 OA
ENDROOT
BRANCH  18  23
HETATM   23  C26 UNL     1       6.344  27.796   6.731  1.00  0.00     0.034 C 
BRANCH  23  24
HETATM   24  C27 UNL     1       7.813  27.773   6.487  1.00  0.00     0.022 C 
BRANCH  24  25
HETATM   25  C28 UNL     1       8.401  26.581   7.259  1.00  0.00     0.122 C 
BRANCH  25  26
HETATM   26  N5  UNL     1       8.704  25.504   6.358  1.00  0.00    -0.367 N 
HETATM   27  C29 UNL     1       9.877  25.247   5.907  1.00  0.00     0.196 C 
HETATM   28  N6  UNL     1      10.044  24.150   5.019  1.00  0.00    -0.067 NA
HETATM   29  N7  UNL     1      11.021  26.015   6.256  1.00  0.00    -0.067 NA
ATOM     30  H5  UNL     1       7.936  24.903   6.058  1.00  0.00     0.161 HD
ENDBRANCH  25  26
ENDBRANCH  24  25
ENDBRANCH  23  24
ENDBRANCH  18  23
BRANCH  15  31
HETATM   31  N4  UNL     1       3.497  30.405   5.135  1.00  0.00    -0.333 N 
HETATM   32  C22 UNL     1       3.125  31.407   4.216  1.00  0.00     0.216 C 
HETATM   33  C23 UNL     1       3.390  32.846   4.377  1.00  0.00     0.117 C 
HETATM   34  O4  UNL     1       2.517  31.057   3.173  1.00  0.00    -0.274 OA
BRANCH  31  35
HETATM   35  C20 UNL     1       4.197  30.804   6.322  1.00  0.00     0.122 C 
HETATM   36  C21 UNL     1       3.304  31.402   7.381  1.00  0.00     0.026 C 
ENDBRANCH  31  35
ENDBRANCH  15  31
BRANCH   1  37
HETATM   37  C3  UNL     1       6.586  26.671   1.509  1.00  0.00     0.013 C 
HETATM   38  C4  UNL     1       7.399  25.569   0.929  1.00  0.00     0.012 C 
BRANCH  37  39
HETATM   39  C2  UNL     1       7.506  27.623   2.234  1.00  0.00     0.002 C 
HETATM   40  C1  UNL     1       8.531  28.222   1.333  1.00  0.00     0.005 C 
ENDBRANCH  37  39
ENDBRANCH   1  37
BRANCH  10  41
HETATM   41  C14 UNL     1      -0.710  27.934   2.405  1.00  0.00     0.012 C 
HETATM   42  C15 UNL     1      -1.392  26.972   3.311  1.00  0.00     0.012 C 
BRANCH  41  43
HETATM   43  C16 UNL     1      -1.582  29.163   2.316  1.00  0.00     0.002 C 
HETATM   44  C17 UNL     1      -0.793  30.395   1.957  1.00  0.00     0.005 C 
ENDBRANCH  41  43
ENDBRANCH  10  41
BRANCH   9  45
HETATM   45  O2  UNL     1       2.444  28.719   1.415  1.00  0.00    -0.348 OA
ATOM     46  H2  UNL     1       2.141  29.580   1.679  1.00  0.00     0.219 HD
ENDBRANCH   9  45
BRANCH   6  47
HETATM   47  C8  UNL     1       1.416  24.705   3.198  1.00  0.00     0.033 C 
HETATM   48  C9  UNL     1       1.113  23.192   3.124  1.00  0.00     0.016 C 
HETATM   49  C10 UNL     1       2.246  24.723   4.516  1.00  0.00     0.016 C 
ENDBRANCH   6  47
TORSDOF 12
ENDMDL
MODEL 5
REMARK VINA RESULT: -5.747385494      2.426      8.380
REMARK  12 active torsions:
REMARK  status: ('A' for Active; 'I' for Inactive)
REMARK    1  A    between atoms: C2_2  and  C3_3 
REMARK    2  A    between atoms: C3_3  and  C5_5 
REMARK    3  A    between atoms: C7_10  and  C8_11 
REMARK    4  A    between atoms: C12_16  and  O2_17 
REMARK    5  A    between atoms: C13_19  and  C14_20 
REMARK    6  A    between atoms: C14_20  and  C16_22 
REMARK    7  A    between atoms: C19_28  and  N4_29 
REMARK    8  A    between atoms: N4_29  and  C20_30 
REMARK       I    between atoms: N4_29  and  C22_32 
REMARK    9  A    between atoms: C25_37  and  C26_38 
REMARK   10  A    between atoms: C26_38  and  C27_39 
REMARK   11  A    between atoms: C27_39  and  C28_40 
REMARK   12  A    between atoms: C28_40  and  N5_41 
ROOT
HETATM    1  C5  UNL     1       6.091  27.826   6.336  1.00  0.00     0.180 C 
HETATM    2  N1  UNL     1       5.611  29.055   6.898  1.00  0.00    -0.342 N 
ATOM      3  H1  UNL     1       6.095  29.340   7.750  1.00  0.00     0.163 HD
HETATM    4  C6  UNL     1       4.610  29.931   6.498  1.00  0.00     0.265 C 
HETATM    5  O1  UNL     1       4.910  31.156   6.459  1.00  0.00    -0.266 OA
HETATM    6  C7  UNL     1       3.197  29.622   6.101  1.00  0.00     0.084 C 
HETATM    7  N2  UNL     1       2.735  28.355   6.495  1.00  0.00    -0.333 N 
HETATM    8  C11 UNL     1       2.963  28.134   7.978  1.00  0.00     0.158 C 
HETATM    9  C12 UNL     1       2.124  27.261   5.885  1.00  0.00     0.141 C 
HETATM   10  C13 UNL     1       1.217  27.072   4.762  1.00  0.00     0.163 C 
HETATM   11  N3  UNL     1       1.745  27.252   3.438  1.00  0.00    -0.347 N 
ATOM     12  H3  UNL     1       1.331  28.033   2.928  1.00  0.00     0.163 HD
HETATM   13  C18 UNL     1       2.707  26.564   2.727  1.00  0.00     0.248 C 
HETATM   14  O3  UNL     1       2.583  26.634   1.441  1.00  0.00    -0.271 OA
HETATM   15  C19 UNL     1       3.850  25.768   3.160  1.00  0.00     0.251 C 
HETATM   16  C24 UNL     1       5.106  26.318   2.499  1.00  0.00     0.181 C 
HETATM   17  O5  UNL     1       4.957  26.727   1.368  1.00  0.00    -0.293 OA
HETATM   18  C25 UNL     1       6.424  26.334   3.232  1.00  0.00     0.157 C 
HETATM   19  N8  UNL     1       6.709  27.619   3.822  1.00  0.00    -0.348 N 
ATOM     20  H8  UNL     1       6.727  28.402   3.168  1.00  0.00     0.163 HD
HETATM   21  C30 UNL     1       6.964  27.954   5.157  1.00  0.00     0.241 C 
HETATM   22  O6  UNL     1       8.126  28.448   5.398  1.00  0.00    -0.271 OA
ENDROOT
BRANCH  18  23
HETATM   23  C26 UNL     1       7.498  26.205   2.134  1.00  0.00     0.034 C 
BRANCH  23  24
HETATM   24  C27 UNL     1       8.024  24.819   1.988  1.00  0.00     0.022 C 
BRANCH  24  25
HETATM   25  C28 UNL     1       9.551  24.906   1.842  1.00  0.00     0.122 C 
BRANCH  25  26
HETATM   26  N5  UNL     1      10.119  25.616   2.955  1.00  0.00    -0.367 N 
HETATM   27  C29 UNL     1      10.673  25.051   3.965  1.00  0.00     0.196 C 
HETATM   28  N6  UNL     1      11.197  25.868   5.004  1.00  0.00    -0.067 NA
HETATM   29  N7  UNL     1      10.784  23.640   4.093  1.00  0.00    -0.067 NA
ATOM     30  H5  UNL     1      10.079  26.635   2.941  1.00  0.00     0.161 HD
ENDBRANCH  25  26
ENDBRANCH  24  25
ENDBRANCH  23  24
ENDBRANCH  18  23
BRANCH  15  31
HETATM   31  N4  UNL     1       3.821  24.369   2.890  1.00  0.00    -0.333 N 
HETATM   32  C22 UNL     1       3.597  23.402   3.890  1.00  0.00     0.216 C 
HETATM   33  C23 UNL     1       3.555  21.947   3.669  1.00  0.00     0.117 C 
HETATM   34  O4  UNL     1       3.414  23.800   5.068  1.00  0.00    -0.274 OA
BRANCH  31  35
HETATM   35  C20 UNL     1       4.036  23.914   1.547  1.00  0.00     0.122 C 
HETATM   36  C21 UNL     1       2.777  23.456   0.852  1.00  0.00     0.026 C 
ENDBRANCH  31  35
ENDBRANCH  15  31
BRANCH   1  37
HETATM   37  C3  UNL     1       6.880  27.035   7.380  1.00  0.00     0.013 C 
HETATM   38  C4  UNL     1       7.377  27.856   8.517  1.00  0.00     0.012 C 
BRANCH  37  39
HETATM   39  C2  UNL     1       8.044  26.286   6.777  1.00  0.00     0.002 C 
HETATM   40  C1  UNL     1       8.893  25.626   7.809  1.00  0.00     0.005 C 
ENDBRANCH  37  39
ENDBRANCH   1  37
BRANCH  10  41
HETATM   41  C14 UNL     1      -0.133  27.747   4.943  1.00  0.00     0.012 C 
HETATM   42  C15 UNL     1      -0.935  27.791   3.691  1.00  0.00     0.012 C 
BRANCH  41  43
HETATM   43  C16 UNL     1      -0.974  27.061   5.993  1.00  0.00     0.002 C 
HETATM   44  C17 UNL     1      -1.174  25.598   5.693  1.00  0.00     0.005 C 
ENDBRANCH  41  43
ENDBRANCH  10  41
BRANCH   9  45
HETATM   45  O2  UNL     1       2.441  26.133   6.464  1.00  0.00    -0.348 OA
ATOM     46  H2  UNL     1       2.744  25.483   5.841  1.00  0.00     0.219 HD
ENDBRANCH   9  45
BRANCH   6  47
HETATM   47  C8  UNL     1       2.843  30.339   4.884  1.00  0.00     0.033 C 
HETATM   48  C9  UNL     1       1.360  30.768   4.833  1.00  0.00     0.016 C 
HETATM   49  C10 UNL     1       3.507  31.746   4.815  1.00  0.00     0.016 C 
ENDBRANCH   6  47
TORSDOF 12
ENDMDL
