MODEL 1
REMARK VINA RESULT: -8.548635299      0.000      0.000
REMARK  15 active torsions:
REMARK  status: ('A' for Active; 'I' for Inactive)
REMARK    1  A    between atoms: C2_2  and  C3_3 
REMARK    2  A    between atoms: C3_3  and  C4_4 
REMARK    3  A    between atoms: C4_4  and  C5_5 
REMARK    4  A    between atoms: C5_5  and  C6_6 
REMARK    5  A    between atoms: C6_6  and  C7_7 
REMARK    6  A    between atoms: C12_18  and  O3_19 
REMARK    7  A    between atoms: C13_21  and  C14_22 
REMARK    8  A    between atoms: C14_22  and  C15_23 
REMARK    9  A    between atoms: C15_23  and  C16_24 
REMARK   10  A    between atoms: C17_29  and  O6_30 
REMARK   11  A    between atoms: C18_32  and  C19_33 
REMARK   12  A    between atoms: C19_33  and  C20_34 
REMARK   13  A    between atoms: C21_35  and  C22_36 
REMARK   14  A    between atoms: C22_36  and  C23_37 
REMARK   15  A    between atoms: C25_41  and  N5_42 
ROOT
HETATM    1  C7  UNL     1      16.115  22.910   7.402  1.00  0.00     0.087 C 
HETATM    2  N1  UNL     1      16.546  22.082   6.344  1.00  0.00    -0.281 N 
ATOM      3  H1  UNL     1      17.311  22.398   5.749  1.00  0.00     0.178 HD
HETATM    4  S1  UNL     1      15.844  20.606   6.037  1.00  0.00     0.252 S 
HETATM    5  O1  UNL     1      14.563  20.304   6.811  1.00  0.00    -0.203 OA
HETATM    6  O2  UNL     1      16.797  19.588   6.734  1.00  0.00    -0.203 OA
HETATM    7  C8  UNL     1      15.811  20.073   4.419  1.00  0.00     0.230 C 
HETATM    8  C9  UNL     1      15.081  18.712   4.336  1.00  0.00     0.045 C 
HETATM    9  C10 UNL     1      15.249  18.425   2.866  1.00  0.00     0.023 C 
HETATM   10  C11 UNL     1      15.643  19.755   2.272  1.00  0.00     0.127 C 
HETATM   11  N2  UNL     1      15.239  20.759   3.318  1.00  0.00    -0.341 N 
HETATM   12  C12 UNL     1      14.566  21.938   3.092  1.00  0.00     0.162 C 
HETATM   13  C13 UNL     1      13.537  22.737   3.772  1.00  0.00     0.062 C 
HETATM   14  N3  UNL     1      14.095  23.889   4.463  1.00  0.00    -0.339 N 
ATOM     15  H3  UNL     1      15.007  24.166   4.101  1.00  0.00     0.167 HD
HETATM   16  C17 UNL     1      13.664  24.684   5.492  1.00  0.00     0.139 C 
HETATM   17  C18 UNL     1      13.335  24.425   6.902  1.00  0.00     0.163 C 
HETATM   18  N7  UNL     1      13.615  23.144   7.435  1.00  0.00    -0.344 N 
ATOM     19  H7  UNL     1      12.839  22.483   7.402  1.00  0.00     0.163 HD
HETATM   20  C26 UNL     1      14.806  22.644   8.004  1.00  0.00     0.265 C 
HETATM   21  O7  UNL     1      14.679  21.943   9.081  1.00  0.00    -0.266 OA
ENDROOT
BRANCH  17  22
HETATM   22  C19 UNL     1      11.890  24.809   7.277  1.00  0.00     0.060 C 
BRANCH  22  23
HETATM   23  C20 UNL     1      11.779  26.076   7.982  1.00  0.00    -0.028 C 
HETATM   24  C21 UNL     1      10.634  26.673   8.221  1.00  0.00    -0.025 C 
BRANCH  24  25
HETATM   25  C22 UNL     1       9.306  26.186   7.835  1.00  0.00     0.086 C 
BRANCH  25  26
HETATM   26  C23 UNL     1       8.869  26.838   6.570  1.00  0.00     0.046 A 
HETATM   27  C24 UNL     1       7.702  27.503   6.350  1.00  0.00     0.132 A 
HETATM   28  N4  UNL     1       7.709  27.939   5.061  1.00  0.00    -0.200 N 
HETATM   29  C25 UNL     1       8.862  27.540   4.521  1.00  0.00     0.675 A 
ATOM     30  H4  UNL     1       6.973  28.470   4.595  1.00  0.00     0.183 HD
HETATM   31  N6  UNL     1       9.591  26.865   5.424  1.00  0.00    -0.194 N 
ATOM     32  H6  UNL     1      10.511  26.452   5.275  1.00  0.00     0.184 HD
BRANCH  29  33
HETATM   33  N5  UNL     1       9.208  27.780   3.304  1.00  0.00    -0.234 N 
ATOM     34  H52 UNL     1       8.597  28.145   2.573  1.00  0.00     0.174 HD
ATOM     35  H51 UNL     1      10.147  27.627   2.938  1.00  0.00     0.174 HD
ENDBRANCH  29  33
ENDBRANCH  25  26
ENDBRANCH  24  25
ENDBRANCH  22  23
ENDBRANCH  17  22
BRANCH  16  36
HETATM   36  O6  UNL     1      13.502  25.953   5.203  1.00  0.00    -0.348 OA
ATOM     37  H6  UNL     1      13.168  26.497   5.905  1.00  0.00     0.219 HD
ENDBRANCH  16  36
BRANCH  13  38
HETATM   38  C14 UNL     1      12.336  22.129   4.337  1.00  0.00     0.072 C 
BRANCH  38  39
HETATM   39  C15 UNL     1      10.998  22.475   3.762  1.00  0.00     0.119 C 
BRANCH  39  40
HETATM   40  C16 UNL     1      10.456  23.791   3.939  1.00  0.00     0.172 C 
HETATM   41  O4  UNL     1       9.368  23.949   4.547  1.00  0.00    -0.648 OA
HETATM   42  O5  UNL     1      11.100  24.916   3.449  1.00  0.00    -0.648 OA
ENDBRANCH  39  40
ENDBRANCH  38  39
ENDBRANCH  13  38
BRANCH   1  43
HETATM   43  C6  UNL     1      17.181  23.212   8.430  1.00  0.00     0.063 C 
BRANCH  43  44
HETATM   44  C5  UNL     1      18.217  22.184   8.615  1.00  0.00     0.006 C 
BRANCH  44  45
HETATM   45  C4  UNL     1      17.789  21.241   9.725  1.00  0.00     0.000 C 
BRANCH  45  46
HETATM   46  C3  UNL     1      18.579  19.957   9.705  1.00  0.00    -0.000 C 
BRANCH  46  47
HETATM   47  C2  UNL     1      17.833  18.981  10.618  1.00  0.00    -0.005 C 
HETATM   48  C1  UNL     1      16.354  19.171  10.307  1.00  0.00     0.005 C 
ENDBRANCH  46  47
ENDBRANCH  45  46
ENDBRANCH  44  45
ENDBRANCH  43  44
ENDBRANCH   1  43
BRANCH  12  49
HETATM   49  O3  UNL     1      14.921  22.543   1.969  1.00  0.00    -0.345 OA
ATOM     50  H3  UNL     1      15.822  22.843   1.967  1.00  0.00     0.219 HD
ENDBRANCH  12  49
TORSDOF 15
ENDMDL
MODEL 2
REMARK VINA RESULT: -8.341668837      1.024      1.162
REMARK  15 active torsions:
REMARK  status: ('A' for Active; 'I' for Inactive)
REMARK    1  A    between atoms: C2_2  and  C3_3 
REMARK    2  A    between atoms: C3_3  and  C4_4 
REMARK    3  A    between atoms: C4_4  and  C5_5 
REMARK    4  A    between atoms: C5_5  and  C6_6 
REMARK    5  A    between atoms: C6_6  and  C7_7 
REMARK    6  A    between atoms: C12_18  and  O3_19 
REMARK    7  A    between atoms: C13_21  and  C14_22 
REMARK    8  A    between atoms: C14_22  and  C15_23 
REMARK    9  A    between atoms: C15_23  and  C16_24 
REMARK   10  A    between atoms: C17_29  and  O6_30 
REMARK   11  A    between atoms: C18_32  and  C19_33 
REMARK   12  A    between atoms: C19_33  and  C20_34 
REMARK   13  A    between atoms: C21_35  and  C22_36 
REMARK   14  A    between atoms: C22_36  and  C23_37 
REMARK   15  A    between atoms: C25_41  and  N5_42 
ROOT
HETATM    1  C7  UNL     1      16.169  22.928   7.398  1.00  0.00     0.087 C 
HETATM    2  N1  UNL     1      16.578  22.095   6.336  1.00  0.00    -0.281 N 
ATOM      3  H1  UNL     1      17.334  22.407   5.726  1.00  0.00     0.178 HD
HETATM    4  S1  UNL     1      15.867  20.620   6.046  1.00  0.00     0.252 S 
HETATM    5  O1  UNL     1      14.600  20.324   6.844  1.00  0.00    -0.203 OA
HETATM    6  O2  UNL     1      16.830  19.602   6.730  1.00  0.00    -0.203 OA
HETATM    7  C8  UNL     1      15.805  20.082   4.431  1.00  0.00     0.230 C 
HETATM    8  C9  UNL     1      15.070  18.722   4.365  1.00  0.00     0.045 C 
HETATM    9  C10 UNL     1      15.211  18.430   2.893  1.00  0.00     0.023 C 
HETATM   10  C11 UNL     1      15.598  19.757   2.287  1.00  0.00     0.127 C 
HETATM   11  N2  UNL     1      15.215  20.765   3.337  1.00  0.00    -0.341 N 
HETATM   12  C12 UNL     1      14.542  21.945   3.119  1.00  0.00     0.162 C 
HETATM   13  C13 UNL     1      13.527  22.750   3.814  1.00  0.00     0.062 C 
HETATM   14  N3  UNL     1      14.100  23.903   4.491  1.00  0.00    -0.339 N 
ATOM     15  H3  UNL     1      15.007  24.176   4.112  1.00  0.00     0.167 HD
HETATM   16  C17 UNL     1      13.690  24.702   5.525  1.00  0.00     0.139 C 
HETATM   17  C18 UNL     1      13.385  24.448   6.942  1.00  0.00     0.163 C 
HETATM   18  N7  UNL     1      13.670  23.169   7.473  1.00  0.00    -0.344 N 
ATOM     19  H7  UNL     1      12.892  22.510   7.457  1.00  0.00     0.163 HD
HETATM   20  C26 UNL     1      14.869  22.667   8.023  1.00  0.00     0.265 C 
HETATM   21  O7  UNL     1      14.760  21.970   9.105  1.00  0.00    -0.266 OA
ENDROOT
BRANCH  17  22
HETATM   22  C19 UNL     1      11.948  24.838   7.340  1.00  0.00     0.060 C 
BRANCH  22  23
HETATM   23  C20 UNL     1      11.873  25.953   8.272  1.00  0.00    -0.028 C 
HETATM   24  C21 UNL     1      10.745  26.413   8.762  1.00  0.00    -0.025 C 
BRANCH  24  25
HETATM   25  C22 UNL     1       9.402  25.903   8.469  1.00  0.00     0.086 C 
BRANCH  25  26
HETATM   26  C23 UNL     1       8.527  27.008   7.990  1.00  0.00     0.046 A 
HETATM   27  C24 UNL     1       8.448  28.268   8.495  1.00  0.00     0.132 A 
HETATM   28  N4  UNL     1       7.527  28.952   7.763  1.00  0.00    -0.200 N 
HETATM   29  C25 UNL     1       7.065  28.112   6.836  1.00  0.00     0.675 A 
ATOM     30  H4  UNL     1       7.243  29.923   7.897  1.00  0.00     0.183 HD
HETATM   31  N6  UNL     1       7.661  26.915   6.952  1.00  0.00    -0.194 N 
ATOM     32  H6  UNL     1       7.494  26.094   6.371  1.00  0.00     0.184 HD
BRANCH  29  33
HETATM   33  N5  UNL     1       6.173  28.425   5.961  1.00  0.00    -0.234 N 
ATOM     34  H52 UNL     1       5.273  28.864   6.159  1.00  0.00     0.174 HD
ATOM     35  H51 UNL     1       6.275  28.262   4.959  1.00  0.00     0.174 HD
ENDBRANCH  29  33
ENDBRANCH  25  26
ENDBRANCH  24  25
ENDBRANCH  22  23
ENDBRANCH  17  22
BRANCH  16  36
HETATM   36  O6  UNL     1      13.526  25.970   5.234  1.00  0.00    -0.348 OA
ATOM     37  H6  UNL     1      13.197  26.516   5.938  1.00  0.00     0.219 HD
ENDBRANCH  16  36
BRANCH  13  38
HETATM   38  C14 UNL     1      12.334  22.147   4.402  1.00  0.00     0.072 C 
BRANCH  38  39
HETATM   39  C15 UNL     1      10.983  22.569   3.917  1.00  0.00     0.119 C 
BRANCH  39  40
HETATM   40  C16 UNL     1      10.797  23.871   3.344  1.00  0.00     0.172 C 
HETATM   41  O4  UNL     1      10.683  24.877   4.087  1.00  0.00    -0.648 OA
HETATM   42  O5  UNL     1      10.733  24.060   1.973  1.00  0.00    -0.648 OA
ENDBRANCH  39  40
ENDBRANCH  38  39
ENDBRANCH  13  38
BRANCH   1  43
HETATM   43  C6  UNL     1      17.253  23.230   8.407  1.00  0.00     0.063 C 
BRANCH  43  44
HETATM   44  C5  UNL     1      18.282  22.194   8.586  1.00  0.00     0.006 C 
BRANCH  44  45
HETATM   45  C4  UNL     1      17.887  21.296   9.743  1.00  0.00     0.000 C 
BRANCH  45  46
HETATM   46  C3  UNL     1      18.480  19.916   9.609  1.00  0.00    -0.000 C 
BRANCH  46  47
HETATM   47  C2  UNL     1      17.818  19.059  10.691  1.00  0.00    -0.005 C 
HETATM   48  C1  UNL     1      16.333  19.038  10.351  1.00  0.00     0.005 C 
ENDBRANCH  46  47
ENDBRANCH  45  46
ENDBRANCH  44  45
ENDBRANCH  43  44
ENDBRANCH   1  43
BRANCH  12  49
HETATM   49  O3  UNL     1      14.878  22.546   1.988  1.00  0.00    -0.345 OA
ATOM     50  H3  UNL     1      14.559  23.438   1.922  1.00  0.00     0.219 HD
ENDBRANCH  12  49
TORSDOF 15
ENDMDL
MODEL 3
REMARK VINA RESULT: -8.091498275      2.806      9.514
REMARK  15 active torsions:
REMARK  status: ('A' for Active; 'I' for Inactive)
REMARK    1  A    between atoms: C2_2  and  C3_3 
REMARK    2  A    between atoms: C3_3  and  C4_4 
REMARK    3  A    between atoms: C4_4  and  C5_5 
REMARK    4  A    between atoms: C5_5  and  C6_6 
REMARK    5  A    between atoms: C6_6  and  C7_7 
REMARK    6  A    between atoms: C12_18  and  O3_19 
REMARK    7  A    between atoms: C13_21  and  C14_22 
REMARK    8  A    between atoms: C14_22  and  C15_23 
REMARK    9  A    between atoms: C15_23  and  C16_24 
REMARK   10  A    between atoms: C17_29  and  O6_30 
REMARK   11  A    between atoms: C18_32  and  C19_33 
REMARK   12  A    between atoms: C19_33  and  C20_34 
REMARK   13  A    between atoms: C21_35  and  C22_36 
REMARK   14  A    between atoms: C22_36  and  C23_37 
REMARK   15  A    between atoms: C25_41  and  N5_42 
ROOT
HETATM    1  C7  UNL     1      11.545  24.356   3.167  1.00  0.00     0.087 C 
HETATM    2  N1  UNL     1      11.206  25.276   4.180  1.00  0.00    -0.281 N 
ATOM      3  H1  UNL     1      11.515  26.244   4.092  1.00  0.00     0.178 HD
HETATM    4  S1  UNL     1      10.319  24.833   5.516  1.00  0.00     0.252 S 
HETATM    5  O1  UNL     1      10.094  23.334   5.697  1.00  0.00    -0.203 OA
HETATM    6  O2  UNL     1       8.864  25.257   5.153  1.00  0.00    -0.203 OA
HETATM    7  C8  UNL     1      10.623  25.663   6.972  1.00  0.00     0.230 C 
HETATM    8  C9  UNL     1       9.738  25.078   8.097  1.00  0.00     0.045 C 
HETATM    9  C10 UNL     1      10.120  26.001   9.225  1.00  0.00     0.023 C 
HETATM   10  C11 UNL     1      11.389  26.665   8.747  1.00  0.00     0.127 C 
HETATM   11  N2  UNL     1      11.872  25.774   7.634  1.00  0.00    -0.341 N 
HETATM   12  C12 UNL     1      13.163  25.337   7.449  1.00  0.00     0.162 C 
HETATM   13  C13 UNL     1      13.829  24.111   6.985  1.00  0.00     0.062 C 
HETATM   14  N3  UNL     1      14.312  24.225   5.618  1.00  0.00    -0.339 N 
ATOM     15  H3  UNL     1      14.437  25.193   5.320  1.00  0.00     0.167 HD
HETATM   16  C17 UNL     1      14.635  23.320   4.642  1.00  0.00     0.139 C 
HETATM   17  C18 UNL     1      13.871  22.287   3.926  1.00  0.00     0.163 C 
HETATM   18  N7  UNL     1      12.471  22.226   4.123  1.00  0.00    -0.344 N 
ATOM     19  H7  UNL     1      12.163  21.581   4.851  1.00  0.00     0.163 HD
HETATM   20  C26 UNL     1      11.437  22.925   3.464  1.00  0.00     0.265 C 
HETATM   21  O7  UNL     1      10.394  22.236   3.137  1.00  0.00    -0.266 OA
ENDROOT
BRANCH  17  22
HETATM   22  C19 UNL     1      14.452  20.868   4.090  1.00  0.00     0.060 C 
BRANCH  22  23
HETATM   23  C20 UNL     1      14.797  20.222   2.833  1.00  0.00    -0.028 C 
HETATM   24  C21 UNL     1      15.236  18.987   2.751  1.00  0.00    -0.025 C 
BRANCH  24  25
HETATM   25  C22 UNL     1      15.449  18.067   3.874  1.00  0.00     0.086 C 
BRANCH  25  26
HETATM   26  C23 UNL     1      16.874  17.639   3.921  1.00  0.00     0.046 A 
HETATM   27  C24 UNL     1      17.664  17.298   2.866  1.00  0.00     0.132 A 
HETATM   28  N4  UNL     1      18.892  16.972   3.355  1.00  0.00    -0.200 N 
HETATM   29  C25 UNL     1      18.834  17.116   4.680  1.00  0.00     0.675 A 
ATOM     30  H4  UNL     1      19.702  16.674   2.812  1.00  0.00     0.183 HD
HETATM   31  N6  UNL     1      17.611  17.523   5.052  1.00  0.00    -0.194 N 
ATOM     32  H6  UNL     1      17.296  17.711   6.004  1.00  0.00     0.184 HD
BRANCH  29  33
HETATM   33  N5  UNL     1      19.825  16.890   5.472  1.00  0.00    -0.234 N 
ATOM     34  H52 UNL     1      20.812  16.957   5.224  1.00  0.00     0.174 HD
ATOM     35  H51 UNL     1      19.722  16.616   6.449  1.00  0.00     0.174 HD
ENDBRANCH  29  33
ENDBRANCH  25  26
ENDBRANCH  24  25
ENDBRANCH  22  23
ENDBRANCH  17  22
BRANCH  16  36
HETATM   36  O6  UNL     1      15.878  23.349   4.227  1.00  0.00    -0.348 OA
ATOM     37  H6  UNL     1      16.231  22.523   3.921  1.00  0.00     0.219 HD
ENDBRANCH  16  36
BRANCH  13  38
HETATM   38  C14 UNL     1      13.419  22.788   7.446  1.00  0.00     0.072 C 
BRANCH  38  39
HETATM   39  C15 UNL     1      14.424  21.898   8.108  1.00  0.00     0.119 C 
BRANCH  39  40
HETATM   40  C16 UNL     1      15.826  22.159   7.960  1.00  0.00     0.172 C 
HETATM   41  O4  UNL     1      16.408  21.892   6.880  1.00  0.00    -0.648 OA
HETATM   42  O5  UNL     1      16.577  22.702   8.990  1.00  0.00    -0.648 OA
ENDBRANCH  39  40
ENDBRANCH  38  39
ENDBRANCH  13  38
BRANCH   1  43
HETATM   43  C6  UNL     1      11.009  24.711   1.798  1.00  0.00     0.063 C 
BRANCH  43  44
HETATM   44  C5  UNL     1       9.846  25.611   1.769  1.00  0.00     0.006 C 
BRANCH  44  45
HETATM   45  C4  UNL     1       8.576  24.782   1.765  1.00  0.00     0.000 C 
BRANCH  45  46
HETATM   46  C3  UNL     1       7.378  25.592   1.335  1.00  0.00    -0.000 C 
BRANCH  46  47
HETATM   47  C2  UNL     1       6.154  24.702   1.565  1.00  0.00    -0.005 C 
HETATM   48  C1  UNL     1       6.373  24.041   2.920  1.00  0.00     0.005 C 
ENDBRANCH  46  47
ENDBRANCH  45  46
ENDBRANCH  44  45
ENDBRANCH  43  44
ENDBRANCH   1  43
BRANCH  12  49
HETATM   49  O3  UNL     1      14.078  26.242   7.760  1.00  0.00    -0.345 OA
ATOM     50  H3  UNL     1      14.962  25.896   7.782  1.00  0.00     0.219 HD
ENDBRANCH  12  49
TORSDOF 15
ENDMDL
MODEL 4
REMARK VINA RESULT: -7.650168172      4.984     11.304
REMARK  15 active torsions:
REMARK  status: ('A' for Active; 'I' for Inactive)
REMARK    1  A    between atoms: C2_2  and  C3_3 
REMARK    2  A    between atoms: C3_3  and  C4_4 
REMARK    3  A    between atoms: C4_4  and  C5_5 
REMARK    4  A    between atoms: C5_5  and  C6_6 
REMARK    5  A    between atoms: C6_6  and  C7_7 
REMARK    6  A    between atoms: C12_18  and  O3_19 
REMARK    7  A    between atoms: C13_21  and  C14_22 
REMARK    8  A    between atoms: C14_22  and  C15_23 
REMARK    9  A    between atoms: C15_23  and  C16_24 
REMARK   10  A    between atoms: C17_29  and  O6_30 
REMARK   11  A    between atoms: C18_32  and  C19_33 
REMARK   12  A    between atoms: C19_33  and  C20_34 
REMARK   13  A    between atoms: C21_35  and  C22_36 
REMARK   14  A    between atoms: C22_36  and  C23_37 
REMARK   15  A    between atoms: C25_41  and  N5_42 
ROOT
HETATM    1  C7  UNL     1       5.505  26.122   2.763  1.00  0.00     0.087 C 
HETATM    2  N1  UNL     1       4.466  26.838   3.394  1.00  0.00    -0.281 N 
ATOM      3  H1  UNL     1       4.194  27.746   3.020  1.00  0.00     0.178 HD
HETATM    4  S1  UNL     1       3.670  26.246   4.730  1.00  0.00     0.252 S 
HETATM    5  O1  UNL     1       4.280  25.001   5.370  1.00  0.00    -0.203 OA
HETATM    6  O2  UNL     1       2.376  25.608   4.139  1.00  0.00    -0.203 OA
HETATM    7  C8  UNL     1       3.075  27.377   5.855  1.00  0.00     0.230 C 
HETATM    8  C9  UNL     1       2.414  26.633   7.039  1.00  0.00     0.045 C 
HETATM    9  C10 UNL     1       1.913  27.813   7.831  1.00  0.00     0.023 C 
HETATM   10  C11 UNL     1       2.669  28.989   7.261  1.00  0.00     0.127 C 
HETATM   11  N2  UNL     1       3.831  28.363   6.539  1.00  0.00    -0.341 N 
HETATM   12  C12 UNL     1       5.142  28.774   6.605  1.00  0.00     0.162 C 
HETATM   13  C13 UNL     1       6.470  28.142   6.616  1.00  0.00     0.062 C 
HETATM   14  N3  UNL     1       7.138  28.230   5.327  1.00  0.00    -0.339 N 
ATOM     15  H3  UNL     1       6.774  28.982   4.741  1.00  0.00     0.167 HD
HETATM   16  C17 UNL     1       8.147  27.525   4.727  1.00  0.00     0.139 C 
HETATM   17  C18 UNL     1       8.301  26.117   4.329  1.00  0.00     0.163 C 
HETATM   18  N7  UNL     1       7.178  25.262   4.428  1.00  0.00    -0.344 N 
ATOM     19  H7  UNL     1       7.108  24.738   5.300  1.00  0.00     0.163 HD
HETATM   20  C26 UNL     1       6.140  25.026   3.500  1.00  0.00     0.265 C 
HETATM   21  O7  UNL     1       5.784  23.796   3.336  1.00  0.00    -0.266 OA
ENDROOT
BRANCH  17  22
HETATM   22  C19 UNL     1       9.509  25.421   4.988  1.00  0.00     0.060 C 
BRANCH  22  23
HETATM   23  C20 UNL     1      10.012  24.277   4.244  1.00  0.00    -0.028 C 
HETATM   24  C21 UNL     1      10.822  23.380   4.756  1.00  0.00    -0.025 C 
BRANCH  24  25
HETATM   25  C22 UNL     1      11.348  23.368   6.125  1.00  0.00     0.086 C 
BRANCH  25  26
HETATM   26  C23 UNL     1      12.826  23.541   6.108  1.00  0.00     0.046 A 
HETATM   27  C24 UNL     1      13.656  23.610   7.184  1.00  0.00     0.132 A 
HETATM   28  N4  UNL     1      14.926  23.770   6.719  1.00  0.00    -0.200 N 
HETATM   29  C25 UNL     1      14.852  23.796   5.388  1.00  0.00     0.675 A 
ATOM     30  H4  UNL     1      15.772  23.854   7.282  1.00  0.00     0.183 HD
HETATM   31  N6  UNL     1      13.579  23.657   4.987  1.00  0.00    -0.194 N 
ATOM     32  H6  UNL     1      13.243  23.641   4.025  1.00  0.00     0.184 HD
BRANCH  29  33
HETATM   33  N5  UNL     1      15.873  23.934   4.613  1.00  0.00    -0.234 N 
ATOM     34  H52 UNL     1      16.339  24.815   4.394  1.00  0.00     0.174 HD
ATOM     35  H51 UNL     1      16.329  23.161   4.129  1.00  0.00     0.174 HD
ENDBRANCH  29  33
ENDBRANCH  25  26
ENDBRANCH  24  25
ENDBRANCH  22  23
ENDBRANCH  17  22
BRANCH  16  36
HETATM   36  O6  UNL     1       9.220  28.214   4.421  1.00  0.00    -0.348 OA
ATOM     37  H6  UNL     1      10.020  27.950   4.859  1.00  0.00     0.219 HD
ENDBRANCH  16  36
BRANCH  13  38
HETATM   38  C14 UNL     1       6.765  26.981   7.450  1.00  0.00     0.072 C 
BRANCH  38  39
HETATM   39  C15 UNL     1       8.069  26.914   8.181  1.00  0.00     0.119 C 
BRANCH  39  40
HETATM   40  C16 UNL     1       8.766  28.119   8.523  1.00  0.00     0.172 C 
HETATM   41  O4  UNL     1       9.417  28.743   7.648  1.00  0.00    -0.648 OA
HETATM   42  O5  UNL     1       8.750  28.628   9.812  1.00  0.00    -0.648 OA
ENDBRANCH  39  40
ENDBRANCH  38  39
ENDBRANCH  13  38
BRANCH   1  43
HETATM   43  C6  UNL     1       5.234  25.775   1.317  1.00  0.00     0.063 C 
BRANCH  43  44
HETATM   44  C5  UNL     1       3.825  25.561   0.952  1.00  0.00     0.006 C 
BRANCH  44  45
HETATM   45  C4  UNL     1       3.611  24.093   0.637  1.00  0.00     0.000 C 
BRANCH  45  46
HETATM   46  C3  UNL     1       2.306  23.584   1.194  1.00  0.00    -0.000 C 
BRANCH  46  47
HETATM   47  C2  UNL     1       2.575  22.160   1.687  1.00  0.00    -0.005 C 
HETATM   48  C1  UNL     1       2.658  22.257   3.205  1.00  0.00     0.005 C 
ENDBRANCH  46  47
ENDBRANCH  45  46
ENDBRANCH  44  45
ENDBRANCH  43  44
ENDBRANCH   1  43
BRANCH  12  49
HETATM   49  O3  UNL     1       5.283  30.089   6.674  1.00  0.00    -0.345 OA
ATOM     50  H3  UNL     1       6.033  30.417   6.193  1.00  0.00     0.219 HD
ENDBRANCH  12  49
TORSDOF 15
ENDMDL
MODEL 5
REMARK VINA RESULT: -7.460536065      4.667     10.652
REMARK  15 active torsions:
REMARK  status: ('A' for Active; 'I' for Inactive)
REMARK    1  A    between atoms: C2_2  and  C3_3 
REMARK    2  A    between atoms: C3_3  and  C4_4 
REMARK    3  A    between atoms: C4_4  and  C5_5 
REMARK    4  A    between atoms: C5_5  and  C6_6 
REMARK    5  A    between atoms: C6_6  and  C7_7 
REMARK    6  A    between atoms: C12_18  and  O3_19 
REMARK    7  A    between atoms: C13_21  and  C14_22 
REMARK    8  A    between atoms: C14_22  and  C15_23 
REMARK    9  A    between atoms: C15_23  and  C16_24 
REMARK   10  A    between atoms: C17_29  and  O6_30 
REMARK   11  A    between atoms: C18_32  and  C19_33 
REMARK   12  A    between atoms: C19_33  and  C20_34 
REMARK   13  A    between atoms: C21_35  and  C22_36 
REMARK   14  A    between atoms: C22_36  and  C23_37 
REMARK   15  A    between atoms: C25_41  and  N5_42 
ROOT
HETATM    1  C7  UNL     1       5.699  26.082   2.945  1.00  0.00     0.087 C 
HETATM    2  N1  UNL     1       4.620  26.816   3.481  1.00  0.00    -0.281 N 
ATOM      3  H1  UNL     1       4.360  27.701   3.045  1.00  0.00     0.178 HD
HETATM    4  S1  UNL     1       3.758  26.285   4.801  1.00  0.00     0.252 S 
HETATM    5  O1  UNL     1       4.345  25.084   5.538  1.00  0.00    -0.203 OA
HETATM    6  O2  UNL     1       2.505  25.601   4.176  1.00  0.00    -0.203 OA
HETATM    7  C8  UNL     1       3.093  27.466   5.831  1.00  0.00     0.230 C 
HETATM    8  C9  UNL     1       2.375  26.777   7.016  1.00  0.00     0.045 C 
HETATM    9  C10 UNL     1       1.820  27.990   7.716  1.00  0.00     0.023 C 
HETATM   10  C11 UNL     1       2.595  29.144   7.127  1.00  0.00     0.127 C 
HETATM   11  N2  UNL     1       3.801  28.496   6.502  1.00  0.00    -0.341 N 
HETATM   12  C12 UNL     1       5.102  28.926   6.617  1.00  0.00     0.162 C 
HETATM   13  C13 UNL     1       6.433  28.312   6.733  1.00  0.00     0.062 C 
HETATM   14  N3  UNL     1       7.169  28.341   5.478  1.00  0.00    -0.339 N 
ATOM     15  H3  UNL     1       6.831  29.057   4.835  1.00  0.00     0.167 HD
HETATM   16  C17 UNL     1       8.217  27.618   4.971  1.00  0.00     0.139 C 
HETATM   17  C18 UNL     1       8.406  26.193   4.658  1.00  0.00     0.163 C 
HETATM   18  N7  UNL     1       7.287  25.331   4.741  1.00  0.00    -0.344 N 
ATOM     19  H7  UNL     1       7.175  24.852   5.634  1.00  0.00     0.163 HD
HETATM   20  C26 UNL     1       6.304  25.034   3.772  1.00  0.00     0.265 C 
HETATM   21  O7  UNL     1       5.968  23.792   3.655  1.00  0.00    -0.266 OA
ENDROOT
BRANCH  17  22
HETATM   22  C19 UNL     1       9.582  25.548   5.417  1.00  0.00     0.060 C 
BRANCH  22  23
HETATM   23  C20 UNL     1       9.957  24.233   4.921  1.00  0.00    -0.028 C 
HETATM   24  C21 UNL     1      10.831  23.456   5.517  1.00  0.00    -0.025 C 
BRANCH  24  25
HETATM   25  C22 UNL     1      11.562  23.763   6.751  1.00  0.00     0.086 C 
BRANCH  25  26
HETATM   26  C23 UNL     1      13.029  23.725   6.500  1.00  0.00     0.046 A 
HETATM   27  C24 UNL     1      14.011  23.491   7.412  1.00  0.00     0.132 A 
HETATM   28  N4  UNL     1      15.205  23.546   6.760  1.00  0.00    -0.200 N 
HETATM   29  C25 UNL     1      14.938  23.808   5.480  1.00  0.00     0.675 A 
ATOM     30  H4  UNL     1      16.129  23.411   7.172  1.00  0.00     0.183 HD
HETATM   31  N6  UNL     1      13.614  23.922   5.294  1.00  0.00    -0.194 N 
ATOM     32  H6  UNL     1      13.139  24.119   4.413  1.00  0.00     0.184 HD
BRANCH  29  33
HETATM   33  N5  UNL     1      15.839  23.931   4.568  1.00  0.00    -0.234 N 
ATOM     34  H52 UNL     1      16.382  23.169   4.162  1.00  0.00     0.174 HD
ATOM     35  H51 UNL     1      16.107  24.821   4.148  1.00  0.00     0.174 HD
ENDBRANCH  29  33
ENDBRANCH  25  26
ENDBRANCH  24  25
ENDBRANCH  22  23
ENDBRANCH  17  22
BRANCH  16  36
HETATM   36  O6  UNL     1       9.298  28.304   4.687  1.00  0.00    -0.348 OA
ATOM     37  H6  UNL     1       9.366  29.157   5.100  1.00  0.00     0.219 HD
ENDBRANCH  16  36
BRANCH  13  38
HETATM   38  C14 UNL     1       6.693  27.200   7.641  1.00  0.00     0.072 C 
BRANCH  38  39
HETATM   39  C15 UNL     1       7.699  27.366   8.737  1.00  0.00     0.119 C 
BRANCH  39  40
HETATM   40  C16 UNL     1       9.071  27.638   8.421  1.00  0.00     0.172 C 
HETATM   41  O4  UNL     1       9.960  26.791   8.689  1.00  0.00    -0.648 OA
HETATM   42  O5  UNL     1       9.459  28.826   7.824  1.00  0.00    -0.648 OA
ENDBRANCH  39  40
ENDBRANCH  38  39
ENDBRANCH  13  38
BRANCH   1  43
HETATM   43  C6  UNL     1       5.511  25.656   1.507  1.00  0.00     0.063 C 
BRANCH  43  44
HETATM   44  C5  UNL     1       6.726  25.254   0.783  1.00  0.00     0.006 C 
BRANCH  44  45
HETATM   45  C4  UNL     1       7.637  26.458   0.635  1.00  0.00     0.000 C 
BRANCH  45  46
HETATM   46  C3  UNL     1       8.962  26.247   1.324  1.00  0.00    -0.000 C 
BRANCH  46  47
HETATM   47  C2  UNL     1       9.140  24.733   1.457  1.00  0.00    -0.005 C 
HETATM   48  C1  UNL     1      10.634  24.508   1.652  1.00  0.00     0.005 C 
ENDBRANCH  46  47
ENDBRANCH  45  46
ENDBRANCH  44  45
ENDBRANCH  43  44
ENDBRANCH   1  43
BRANCH  12  49
HETATM   49  O3  UNL     1       5.226  30.245   6.623  1.00  0.00    -0.345 OA
ATOM     50  H3  UNL     1       5.384  30.607   7.487  1.00  0.00     0.219 HD
ENDBRANCH  12  49
TORSDOF 15
ENDMDL
