MODEL 1
REMARK VINA RESULT: -5.317015017      0.000      0.000
REMARK  13 active torsions:
REMARK  status: ('A' for Active; 'I' for Inactive)
REMARK    1  A    between atoms: N5_15  and  C6_16 
REMARK    2  A    between atoms: C9_20  and  C10_21 
REMARK    3  A    between atoms: C10_21  and  O2_22 
REMARK    4  A    between atoms: C10_21  and  C11_24 
REMARK    5  A    between atoms: C11_24  and  O3_25 
REMARK    6  A    between atoms: C11_24  and  C12_27 
REMARK    7  A    between atoms: C12_27  and  O4_28 
REMARK    8  A    between atoms: C13_30  and  O5_31 
REMARK    9  A    between atoms: C14_33  and  O6_34 
REMARK   10  A    between atoms: C15_36  and  O7_37 
REMARK   11  A    between atoms: C16_39  and  O8_40 
REMARK   12  A    between atoms: C16_39  and  C17_42 
REMARK   13  A    between atoms: C17_42  and  C18_44 
ROOT
HETATM    1  C6  UNL     1      13.201  -7.014  39.479  1.00  0.00     0.237 C 
HETATM    2  C7  UNL     1      13.645  -8.412  39.174  1.00  0.00     0.101 C 
HETATM    3  C8  UNL     1      14.308  -8.333  37.795  1.00  0.00     0.158 C 
HETATM    4  O1  UNL     1      13.326  -8.683  36.884  1.00  0.00    -0.360 OA
HETATM    5  C9  UNL     1      13.039 -10.015  36.744  1.00  0.00     0.185 C 
HETATM    6  C13 UNL     1      14.246 -10.860  36.438  1.00  0.00     0.181 C 
HETATM    7  C14 UNL     1      15.532 -10.076  36.536  1.00  0.00     0.181 C 
HETATM    8  C15 UNL     1      15.562  -9.100  37.686  1.00  0.00     0.190 C 
HETATM    9  C16 UNL     1      14.533  -6.846  37.656  1.00  0.00     0.273 C 
HETATM   10  O12 UNL     1      13.802  -6.171  38.600  1.00  0.00    -0.320 OA
ENDROOT
BRANCH   8  11
HETATM   11  O7  UNL     1      15.760  -9.795  38.911  1.00  0.00    -0.390 OA
ATOM     12  H7  UNL     1      16.220  -9.214  39.505  1.00  0.00     0.210 HD
ENDBRANCH   8  11
BRANCH   9  13
HETATM   13  O8  UNL     1      14.064  -6.498  36.340  1.00  0.00    -0.357 OA
ATOM     14  H8  UNL     1      13.923  -5.559  36.354  1.00  0.00     0.213 HD
ENDBRANCH   9  13
BRANCH   9  15
HETATM   15  C17 UNL     1      15.913  -6.382  37.699  1.00  0.00     0.289 C 
HETATM   16  O9  UNL     1      16.433  -6.064  38.828  1.00  0.00    -0.280 OA
BRANCH  15  17
HETATM   17  C18 UNL     1      16.764  -6.247  36.552  1.00  0.00     0.252 C 
HETATM   18  O10 UNL     1      16.600  -6.865  35.494  1.00  0.00    -0.642 OA
HETATM   19  O11 UNL     1      17.863  -5.366  36.598  1.00  0.00    -0.642 OA
ENDBRANCH  15  17
ENDBRANCH   9  15
BRANCH   1  20
HETATM   20  N5  UNL     1      11.760  -6.859  39.561  1.00  0.00    -0.300 N 
HETATM   21  C3  UNL     1      10.933  -6.593  38.531  1.00  0.00     0.142 A 
HETATM   22  N3  UNL     1      11.101  -6.380  37.204  1.00  0.00    -0.336 N 
HETATM   23  C4  UNL     1       9.635  -6.535  39.018  1.00  0.00     0.122 A 
HETATM   24  C2  UNL     1      10.069  -6.123  36.374  1.00  0.00     0.183 A 
ATOM     25  H3  UNL     1      12.045  -6.415  36.816  1.00  0.00     0.168 HD
HETATM   26  N2  UNL     1       8.809  -6.065  36.831  1.00  0.00    -0.337 N 
HETATM   27  C1  UNL     1       8.585  -6.268  38.143  1.00  0.00     0.131 A 
ATOM     28  H2  UNL     1       8.034  -5.870  36.197  1.00  0.00     0.168 HD
HETATM   29  N1  UNL     1       7.392  -6.221  38.620  1.00  0.00    -0.383 N 
ATOM     30  H12 UNL     1       6.623  -6.026  37.979  1.00  0.00     0.157 HD
ATOM     31  H11 UNL     1       7.223  -6.375  39.614  1.00  0.00     0.157 HD
HETATM   32  N4  UNL     1       9.758  -6.774  40.332  1.00  0.00    -0.346 N 
HETATM   33  C5  UNL     1      11.039  -6.974  40.681  1.00  0.00     0.188 A 
ATOM     34  H4  UNL     1       8.975  -6.801  40.985  1.00  0.00     0.167 HD
ENDBRANCH   1  20
BRANCH   5  35
HETATM   35  C10 UNL     1      11.960 -10.143  35.687  1.00  0.00     0.180 C 
BRANCH  35  36
HETATM   36  O2  UNL     1      12.399 -11.196  34.830  1.00  0.00    -0.390 OA
ATOM     37  H2  UNL     1      11.776 -11.210  34.114  1.00  0.00     0.210 HD
ENDBRANCH  35  36
BRANCH  35  38
HETATM   38  C11 UNL     1      11.952  -8.934  34.741  1.00  0.00     0.173 C 
BRANCH  38  39
HETATM   39  O3  UNL     1      10.707  -8.610  34.271  1.00  0.00    -0.391 OA
ATOM     40  H3  UNL     1      10.714  -8.224  33.404  1.00  0.00     0.210 HD
ENDBRANCH  38  39
BRANCH  38  41
HETATM   41  C12 UNL     1      12.830  -9.273  33.554  1.00  0.00     0.198 C 
BRANCH  41  42
HETATM   42  O4  UNL     1      14.114  -8.783  33.678  1.00  0.00    -0.398 OA
ATOM     43  H4  UNL     1      14.489  -8.515  32.848  1.00  0.00     0.209 HD
ENDBRANCH  41  42
ENDBRANCH  38  41
ENDBRANCH  35  38
ENDBRANCH   5  35
BRANCH   7  44
HETATM   44  O6  UNL     1      16.577 -10.973  36.660  1.00  0.00    -0.390 OA
ATOM     45  H6  UNL     1      16.759 -11.089  37.586  1.00  0.00     0.210 HD
ENDBRANCH   7  44
BRANCH   6  46
HETATM   46  O5  UNL     1      14.261 -12.009  37.212  1.00  0.00    -0.390 OA
ATOM     47  H5  UNL     1      14.996 -12.566  36.985  1.00  0.00     0.210 HD
ENDBRANCH   6  46
TORSDOF 13
ENDMDL
MODEL 2
REMARK VINA RESULT: -5.316192839      8.389     12.428
REMARK  13 active torsions:
REMARK  status: ('A' for Active; 'I' for Inactive)
REMARK    1  A    between atoms: N5_15  and  C6_16 
REMARK    2  A    between atoms: C9_20  and  C10_21 
REMARK    3  A    between atoms: C10_21  and  O2_22 
REMARK    4  A    between atoms: C10_21  and  C11_24 
REMARK    5  A    between atoms: C11_24  and  O3_25 
REMARK    6  A    between atoms: C11_24  and  C12_27 
REMARK    7  A    between atoms: C12_27  and  O4_28 
REMARK    8  A    between atoms: C13_30  and  O5_31 
REMARK    9  A    between atoms: C14_33  and  O6_34 
REMARK   10  A    between atoms: C15_36  and  O7_37 
REMARK   11  A    between atoms: C16_39  and  O8_40 
REMARK   12  A    between atoms: C16_39  and  C17_42 
REMARK   13  A    between atoms: C17_42  and  C18_44 
ROOT
HETATM    1  C6  UNL     1      22.890  -4.137  36.236  1.00  0.00     0.237 C 
HETATM    2  C7  UNL     1      22.968  -3.586  37.628  1.00  0.00     0.101 C 
HETATM    3  C8  UNL     1      21.557  -3.081  37.942  1.00  0.00     0.158 C 
HETATM    4  O1  UNL     1      21.566  -1.729  37.645  1.00  0.00    -0.360 OA
HETATM    5  C9  UNL     1      22.144  -0.885  38.556  1.00  0.00     0.185 C 
HETATM    6  C13 UNL     1      21.583  -1.028  39.946  1.00  0.00     0.181 C 
HETATM    7  C14 UNL     1      20.638  -2.198  40.062  1.00  0.00     0.181 C 
HETATM    8  C15 UNL     1      21.084  -3.419  39.297  1.00  0.00     0.190 C 
HETATM    9  C16 UNL     1      20.748  -3.767  36.866  1.00  0.00     0.273 C 
HETATM   10  O12 UNL     1      21.580  -4.264  35.898  1.00  0.00    -0.320 OA
ENDROOT
BRANCH   8  11
HETATM   11  O7  UNL     1      22.149  -4.064  39.984  1.00  0.00    -0.390 OA
ATOM     12  H7  UNL     1      22.390  -3.522  40.726  1.00  0.00     0.210 HD
ENDBRANCH   8  11
BRANCH   9  13
HETATM   13  O8  UNL     1      19.901  -2.748  36.300  1.00  0.00    -0.357 OA
ATOM     14  H8  UNL     1      20.146  -2.687  35.385  1.00  0.00     0.213 HD
ENDBRANCH   9  13
BRANCH   9  15
HETATM   15  C17 UNL     1      19.835  -4.817  37.298  1.00  0.00     0.289 C 
HETATM   16  O9  UNL     1      20.308  -5.967  37.616  1.00  0.00    -0.280 OA
BRANCH  15  17
HETATM   17  C18 UNL     1      18.411  -4.669  37.400  1.00  0.00     0.252 C 
HETATM   18  O10 UNL     1      17.855  -3.778  38.051  1.00  0.00    -0.642 OA
HETATM   19  O11 UNL     1      17.566  -5.577  36.731  1.00  0.00    -0.642 OA
ENDBRANCH  15  17
ENDBRANCH   9  15
BRANCH   1  20
HETATM   20  N5  UNL     1      23.685  -3.404  35.268  1.00  0.00    -0.300 N 
HETATM   21  C3  UNL     1      23.886  -3.754  33.982  1.00  0.00     0.142 A 
HETATM   22  N3  UNL     1      23.492  -4.791  33.204  1.00  0.00    -0.336 N 
HETATM   23  C4  UNL     1      24.690  -2.791  33.388  1.00  0.00     0.122 A 
HETATM   24  C2  UNL     1      23.852  -4.901  31.908  1.00  0.00     0.183 A 
ATOM     25  H3  UNL     1      22.901  -5.516  33.612  1.00  0.00     0.168 HD
HETATM   26  N2  UNL     1      24.628  -3.977  31.321  1.00  0.00    -0.337 N 
HETATM   27  C1  UNL     1      25.048  -2.926  32.050  1.00  0.00     0.131 A 
ATOM     28  H2  UNL     1      24.894  -4.069  30.341  1.00  0.00     0.168 HD
HETATM   29  N1  UNL     1      25.792  -2.020  31.524  1.00  0.00    -0.383 N 
ATOM     30  H12 UNL     1      26.054  -2.119  30.543  1.00  0.00     0.157 HD
ATOM     31  H11 UNL     1      26.110  -1.224  32.076  1.00  0.00     0.157 HD
HETATM   32  N4  UNL     1      24.928  -1.904  34.365  1.00  0.00    -0.346 N 
HETATM   33  C5  UNL     1      24.327  -2.257  35.513  1.00  0.00     0.188 A 
ATOM     34  H4  UNL     1      25.496  -1.064  34.251  1.00  0.00     0.167 HD
ENDBRANCH   1  20
BRANCH   5  35
HETATM   35  C10 UNL     1      22.012   0.528  38.021  1.00  0.00     0.180 C 
BRANCH  35  36
HETATM   36  O2  UNL     1      22.887   1.315  38.827  1.00  0.00    -0.390 OA
ATOM     37  H2  UNL     1      22.908   2.169  38.411  1.00  0.00     0.210 HD
ENDBRANCH  35  36
BRANCH  35  38
HETATM   38  C11 UNL     1      20.637   1.127  38.348  1.00  0.00     0.173 C 
BRANCH  38  39
HETATM   39  O3  UNL     1      19.833   1.291  37.251  1.00  0.00    -0.391 OA
ATOM     40  H3  UNL     1      19.594   0.475  36.827  1.00  0.00     0.210 HD
ENDBRANCH  38  39
BRANCH  38  41
HETATM   41  C12 UNL     1      20.865   2.489  38.973  1.00  0.00     0.198 C 
BRANCH  41  42
HETATM   42  O4  UNL     1      19.851   3.382  38.697  1.00  0.00    -0.398 OA
ATOM     43  H4  UNL     1      20.166   4.269  38.570  1.00  0.00     0.209 HD
ENDBRANCH  41  42
ENDBRANCH  38  41
ENDBRANCH  35  38
ENDBRANCH   5  35
BRANCH   7  44
HETATM   44  O6  UNL     1      20.505  -2.514  41.402  1.00  0.00    -0.390 OA
ATOM     45  H6  UNL     1      19.843  -1.944  41.777  1.00  0.00     0.210 HD
ENDBRANCH   7  44
BRANCH   6  46
HETATM   46  O5  UNL     1      22.596  -1.062  40.891  1.00  0.00    -0.390 OA
ATOM     47  H5  UNL     1      22.515  -0.340  41.504  1.00  0.00     0.210 HD
ENDBRANCH   6  46
TORSDOF 13
ENDMDL
MODEL 3
REMARK VINA RESULT: -5.251216511      5.147      8.688
REMARK  13 active torsions:
REMARK  status: ('A' for Active; 'I' for Inactive)
REMARK    1  A    between atoms: N5_15  and  C6_16 
REMARK    2  A    between atoms: C9_20  and  C10_21 
REMARK    3  A    between atoms: C10_21  and  O2_22 
REMARK    4  A    between atoms: C10_21  and  C11_24 
REMARK    5  A    between atoms: C11_24  and  O3_25 
REMARK    6  A    between atoms: C11_24  and  C12_27 
REMARK    7  A    between atoms: C12_27  and  O4_28 
REMARK    8  A    between atoms: C13_30  and  O5_31 
REMARK    9  A    between atoms: C14_33  and  O6_34 
REMARK   10  A    between atoms: C15_36  and  O7_37 
REMARK   11  A    between atoms: C16_39  and  O8_40 
REMARK   12  A    between atoms: C16_39  and  C17_42 
REMARK   13  A    between atoms: C17_42  and  C18_44 
ROOT
HETATM    1  C6  UNL     1      18.926  -7.040  35.862  1.00  0.00     0.237 C 
HETATM    2  C7  UNL     1      18.974  -7.701  37.206  1.00  0.00     0.101 C 
HETATM    3  C8  UNL     1      17.818  -7.084  37.999  1.00  0.00     0.158 C 
HETATM    4  O1  UNL     1      18.373  -6.051  38.734  1.00  0.00    -0.360 OA
HETATM    5  C9  UNL     1      19.064  -6.382  39.869  1.00  0.00     0.185 C 
HETATM    6  C13 UNL     1      18.272  -7.229  40.828  1.00  0.00     0.181 C 
HETATM    7  C14 UNL     1      16.956  -7.677  40.242  1.00  0.00     0.181 C 
HETATM    8  C15 UNL     1      17.040  -8.060  38.785  1.00  0.00     0.190 C 
HETATM    9  C16 UNL     1      17.000  -6.456  36.896  1.00  0.00     0.273 C 
HETATM   10  O12 UNL     1      17.736  -6.397  35.741  1.00  0.00    -0.320 OA
ENDROOT
BRANCH   8  11
HETATM   11  O7  UNL     1      17.664  -9.330  38.649  1.00  0.00    -0.390 OA
ATOM     12  H7  UNL     1      16.999  -9.998  38.770  1.00  0.00     0.210 HD
ENDBRANCH   8  11
BRANCH   9  13
HETATM   13  O8  UNL     1      16.693  -5.122  37.344  1.00  0.00    -0.357 OA
ATOM     14  H8  UNL     1      17.426  -4.855  37.885  1.00  0.00     0.213 HD
ENDBRANCH   9  13
BRANCH   9  15
HETATM   15  C17 UNL     1      15.706  -7.063  36.608  1.00  0.00     0.289 C 
HETATM   16  O9  UNL     1      15.655  -8.102  35.857  1.00  0.00    -0.280 OA
BRANCH  15  17
HETATM   17  C18 UNL     1      14.451  -6.582  37.108  1.00  0.00     0.252 C 
HETATM   18  O10 UNL     1      13.403  -6.577  36.453  1.00  0.00    -0.642 OA
HETATM   19  O11 UNL     1      14.370  -6.078  38.422  1.00  0.00    -0.642 OA
ENDBRANCH  15  17
ENDBRANCH   9  15
BRANCH   1  20
HETATM   20  N5  UNL     1      20.082  -6.212  35.572  1.00  0.00    -0.300 N 
HETATM   21  C3  UNL     1      20.354  -5.013  36.123  1.00  0.00     0.142 A 
HETATM   22  N3  UNL     1      19.733  -4.216  37.026  1.00  0.00    -0.336 N 
HETATM   23  C4  UNL     1      21.552  -4.552  35.596  1.00  0.00     0.122 A 
HETATM   24  C2  UNL     1      20.239  -3.025  37.411  1.00  0.00     0.183 A 
ATOM     25  H3  UNL     1      18.850  -4.527  37.432  1.00  0.00     0.168 HD
HETATM   26  N2  UNL     1      21.397  -2.568  36.909  1.00  0.00    -0.337 N 
HETATM   27  C1  UNL     1      22.055  -3.320  36.007  1.00  0.00     0.131 A 
ATOM     28  H2  UNL     1      21.772  -1.667  37.206  1.00  0.00     0.168 HD
HETATM   29  N1  UNL     1      23.167  -2.918  35.504  1.00  0.00    -0.383 N 
ATOM     30  H12 UNL     1      23.535  -2.015  35.806  1.00  0.00     0.157 HD
ATOM     31  H11 UNL     1      23.665  -3.488  34.821  1.00  0.00     0.157 HD
HETATM   32  N4  UNL     1      21.937  -5.515  34.746  1.00  0.00    -0.346 N 
HETATM   33  C5  UNL     1      21.060  -6.531  34.717  1.00  0.00     0.188 A 
ATOM     34  H4  UNL     1      22.792  -5.480  34.189  1.00  0.00     0.167 HD
ENDBRANCH   1  20
BRANCH   5  35
HETATM   35  C10 UNL     1      19.552  -5.093  40.501  1.00  0.00     0.180 C 
BRANCH  35  36
HETATM   36  O2  UNL     1      19.948  -5.452  41.824  1.00  0.00    -0.390 OA
ATOM     37  H2  UNL     1      20.529  -4.756  42.107  1.00  0.00     0.210 HD
ENDBRANCH  35  36
BRANCH  35  38
HETATM   38  C11 UNL     1      18.393  -4.120  40.760  1.00  0.00     0.173 C 
BRANCH  38  39
HETATM   39  O3  UNL     1      17.921  -3.512  39.627  1.00  0.00    -0.391 OA
ATOM     40  H3  UNL     1      18.597  -3.097  39.106  1.00  0.00     0.210 HD
ENDBRANCH  38  39
BRANCH  38  41
HETATM   41  C12 UNL     1      18.898  -3.041  41.697  1.00  0.00     0.198 C 
BRANCH  41  42
HETATM   42  O4  UNL     1      17.891  -2.221  42.164  1.00  0.00    -0.398 OA
ATOM     43  H4  UNL     1      17.493  -1.699  41.478  1.00  0.00     0.209 HD
ENDBRANCH  41  42
ENDBRANCH  38  41
ENDBRANCH  35  38
ENDBRANCH   5  35
BRANCH   7  44
HETATM   44  O6  UNL     1      16.500  -8.755  40.979  1.00  0.00    -0.390 OA
ATOM     45  H6  UNL     1      15.574  -8.868  40.797  1.00  0.00     0.210 HD
ENDBRANCH   7  44
BRANCH   6  46
HETATM   46  O5  UNL     1      19.032  -8.284  41.307  1.00  0.00    -0.390 OA
ATOM     47  H5  UNL     1      19.908  -7.998  41.538  1.00  0.00     0.210 HD
ENDBRANCH   6  46
TORSDOF 13
ENDMDL
MODEL 4
REMARK VINA RESULT: -5.188669912      2.150      2.897
REMARK  13 active torsions:
REMARK  status: ('A' for Active; 'I' for Inactive)
REMARK    1  A    between atoms: N5_15  and  C6_16 
REMARK    2  A    between atoms: C9_20  and  C10_21 
REMARK    3  A    between atoms: C10_21  and  O2_22 
REMARK    4  A    between atoms: C10_21  and  C11_24 
REMARK    5  A    between atoms: C11_24  and  O3_25 
REMARK    6  A    between atoms: C11_24  and  C12_27 
REMARK    7  A    between atoms: C12_27  and  O4_28 
REMARK    8  A    between atoms: C13_30  and  O5_31 
REMARK    9  A    between atoms: C14_33  and  O6_34 
REMARK   10  A    between atoms: C15_36  and  O7_37 
REMARK   11  A    between atoms: C16_39  and  O8_40 
REMARK   12  A    between atoms: C16_39  and  C17_42 
REMARK   13  A    between atoms: C17_42  and  C18_44 
ROOT
HETATM    1  C6  UNL     1      11.883  -7.683  37.587  1.00  0.00     0.237 C 
HETATM    2  C7  UNL     1      12.608  -8.921  38.021  1.00  0.00     0.101 C 
HETATM    3  C8  UNL     1      13.939  -8.895  37.263  1.00  0.00     0.158 C 
HETATM    4  O1  UNL     1      13.745  -9.672  36.134  1.00  0.00    -0.360 OA
HETATM    5  C9  UNL     1      13.782 -11.033  36.288  1.00  0.00     0.185 C 
HETATM    6  C13 UNL     1      15.038 -11.527  36.954  1.00  0.00     0.181 C 
HETATM    7  C14 UNL     1      15.895 -10.397  37.468  1.00  0.00     0.181 C 
HETATM    8  C15 UNL     1      15.106  -9.269  38.085  1.00  0.00     0.190 C 
HETATM    9  C16 UNL     1      13.996  -7.456  36.809  1.00  0.00     0.273 C 
HETATM   10  O12 UNL     1      12.765  -6.870  36.951  1.00  0.00    -0.320 OA
ENDROOT
BRANCH   8  11
HETATM   11  O7  UNL     1      14.633  -9.648  39.371  1.00  0.00    -0.390 OA
ATOM     12  H7  UNL     1      15.388  -9.842  39.915  1.00  0.00     0.210 HD
ENDBRANCH   8  11
BRANCH   9  13
HETATM   13  O8  UNL     1      14.354  -7.498  35.415  1.00  0.00    -0.357 OA
ATOM     14  H8  UNL     1      13.629  -7.922  34.973  1.00  0.00     0.213 HD
ENDBRANCH   9  13
BRANCH   9  15
HETATM   15  C17 UNL     1      15.005  -6.609  37.431  1.00  0.00     0.289 C 
HETATM   16  O9  UNL     1      14.791  -6.140  38.607  1.00  0.00    -0.280 OA
BRANCH  15  17
HETATM   17  C18 UNL     1      16.252  -6.245  36.824  1.00  0.00     0.252 C 
HETATM   18  O10 UNL     1      16.773  -5.129  36.929  1.00  0.00    -0.642 OA
HETATM   19  O11 UNL     1      16.955  -7.193  36.052  1.00  0.00    -0.642 OA
ENDBRANCH  15  17
ENDBRANCH   9  15
BRANCH   1  20
HETATM   20  N5  UNL     1      10.668  -7.945  36.838  1.00  0.00    -0.300 N 
HETATM   21  C3  UNL     1      10.598  -8.247  35.527  1.00  0.00     0.142 A 
HETATM   22  N3  UNL     1      11.505  -8.390  34.531  1.00  0.00    -0.336 N 
HETATM   23  C4  UNL     1       9.264  -8.437  35.194  1.00  0.00     0.122 A 
HETATM   24  C2  UNL     1      11.151  -8.703  33.267  1.00  0.00     0.183 A 
ATOM     25  H3  UNL     1      12.494  -8.256  34.744  1.00  0.00     0.168 HD
HETATM   26  N2  UNL     1       9.866  -8.890  32.932  1.00  0.00    -0.337 N 
HETATM   27  C1  UNL     1       8.922  -8.760  33.883  1.00  0.00     0.131 A 
ATOM     28  H2  UNL     1       9.607  -9.126  31.974  1.00  0.00     0.168 HD
HETATM   29  N1  UNL     1       7.680  -8.931  33.603  1.00  0.00    -0.383 N 
ATOM     30  H12 UNL     1       7.430  -9.167  32.642  1.00  0.00     0.157 HD
ATOM     31  H11 UNL     1       6.965  -8.832  34.323  1.00  0.00     0.157 HD
HETATM   32  N4  UNL     1       8.600  -8.236  36.342  1.00  0.00    -0.346 N 
HETATM   33  C5  UNL     1       9.434  -7.937  37.351  1.00  0.00     0.188 A 
ATOM     34  H4  UNL     1       7.586  -8.302  36.436  1.00  0.00     0.167 HD
ENDBRANCH   1  20
BRANCH   5  35
HETATM   35  C10 UNL     1      13.567 -11.655  34.922  1.00  0.00     0.180 C 
BRANCH  35  36
HETATM   36  O2  UNL     1      14.011 -13.004  35.052  1.00  0.00    -0.390 OA
ATOM     37  H2  UNL     1      13.314 -13.533  34.683  1.00  0.00     0.210 HD
ENDBRANCH  35  36
BRANCH  35  38
HETATM   38  C11 UNL     1      14.545 -11.086  33.885  1.00  0.00     0.173 C 
BRANCH  38  39
HETATM   39  O3  UNL     1      14.243  -9.812  33.483  1.00  0.00    -0.391 OA
ATOM     40  H3  UNL     1      14.933  -9.183  33.656  1.00  0.00     0.210 HD
ENDBRANCH  38  39
BRANCH  38  41
HETATM   41  C12 UNL     1      14.499 -11.987  32.667  1.00  0.00     0.198 C 
BRANCH  41  42
HETATM   42  O4  UNL     1      15.729 -12.527  32.353  1.00  0.00    -0.398 OA
ATOM     43  H4  UNL     1      15.750 -12.917  31.487  1.00  0.00     0.209 HD
ENDBRANCH  41  42
ENDBRANCH  38  41
ENDBRANCH  35  38
ENDBRANCH   5  35
BRANCH   7  44
HETATM   44  O6  UNL     1      16.774 -10.913  38.403  1.00  0.00    -0.390 OA
ATOM     45  H6  UNL     1      17.489 -10.297  38.509  1.00  0.00     0.210 HD
ENDBRANCH   7  44
BRANCH   6  46
HETATM   46  O5  UNL     1      14.749 -12.467  37.930  1.00  0.00    -0.390 OA
ATOM     47  H5  UNL     1      14.572 -13.318  37.545  1.00  0.00     0.210 HD
ENDBRANCH   6  46
TORSDOF 13
ENDMDL
MODEL 5
REMARK VINA RESULT: -5.171887052      4.868      8.526
REMARK  13 active torsions:
REMARK  status: ('A' for Active; 'I' for Inactive)
REMARK    1  A    between atoms: N5_15  and  C6_16 
REMARK    2  A    between atoms: C9_20  and  C10_21 
REMARK    3  A    between atoms: C10_21  and  O2_22 
REMARK    4  A    between atoms: C10_21  and  C11_24 
REMARK    5  A    between atoms: C11_24  and  O3_25 
REMARK    6  A    between atoms: C11_24  and  C12_27 
REMARK    7  A    between atoms: C12_27  and  O4_28 
REMARK    8  A    between atoms: C13_30  and  O5_31 
REMARK    9  A    between atoms: C14_33  and  O6_34 
REMARK   10  A    between atoms: C15_36  and  O7_37 
REMARK   11  A    between atoms: C16_39  and  O8_40 
REMARK   12  A    between atoms: C16_39  and  C17_42 
REMARK   13  A    between atoms: C17_42  and  C18_44 
ROOT
HETATM    1  C6  UNL     1      18.387  -7.978  36.821  1.00  0.00     0.237 C 
HETATM    2  C7  UNL     1      18.333  -7.815  38.310  1.00  0.00     0.101 C 
HETATM    3  C8  UNL     1      17.152  -6.874  38.570  1.00  0.00     0.158 C 
HETATM    4  O1  UNL     1      17.697  -5.606  38.674  1.00  0.00    -0.360 OA
HETATM    5  C9  UNL     1      18.309  -5.275  39.854  1.00  0.00     0.185 C 
HETATM    6  C13 UNL     1      17.433  -5.479  41.061  1.00  0.00     0.181 C 
HETATM    7  C14 UNL     1      16.141  -6.177  40.717  1.00  0.00     0.181 C 
HETATM    8  C15 UNL     1      16.298  -7.280  39.701  1.00  0.00     0.190 C 
HETATM    9  C16 UNL     1      16.423  -6.938  37.250  1.00  0.00     0.273 C 
HETATM   10  O12 UNL     1      17.228  -7.504  36.295  1.00  0.00    -0.320 OA
ENDROOT
BRANCH   8  11
HETATM   11  O7  UNL     1      16.886  -8.424  40.308  1.00  0.00    -0.390 OA
ATOM     12  H7  UNL     1      16.268  -9.142  40.240  1.00  0.00     0.210 HD
ENDBRANCH   8  11
BRANCH   9  13
HETATM   13  O8  UNL     1      16.134  -5.573  36.893  1.00  0.00    -0.357 OA
ATOM     14  H8  UNL     1      15.234  -5.568  36.593  1.00  0.00     0.213 HD
ENDBRANCH   9  13
BRANCH   9  15
HETATM   15  C17 UNL     1      15.129  -7.609  37.243  1.00  0.00     0.289 C 
HETATM   16  O9  UNL     1      15.089  -8.892  37.237  1.00  0.00    -0.280 OA
BRANCH  15  17
HETATM   17  C18 UNL     1      13.862  -6.938  37.245  1.00  0.00     0.252 C 
HETATM   18  O10 UNL     1      12.960  -7.163  36.432  1.00  0.00    -0.642 OA
HETATM   19  O11 UNL     1      13.594  -5.955  38.220  1.00  0.00    -0.642 OA
ENDBRANCH  15  17
ENDBRANCH   9  15
BRANCH   1  20
HETATM   20  N5  UNL     1      19.584  -7.429  36.212  1.00  0.00    -0.300 N 
HETATM   21  C3  UNL     1      19.802  -6.131  35.924  1.00  0.00     0.142 A 
HETATM   22  N3  UNL     1      19.081  -4.991  36.057  1.00  0.00    -0.336 N 
HETATM   23  C4  UNL     1      21.066  -6.014  35.365  1.00  0.00     0.122 A 
HETATM   24  C2  UNL     1      19.552  -3.787  35.671  1.00  0.00     0.183 A 
ATOM     25  H3  UNL     1      18.147  -5.045  36.464  1.00  0.00     0.168 HD
HETATM   26  N2  UNL     1      20.773  -3.660  35.129  1.00  0.00    -0.337 N 
HETATM   27  C1  UNL     1      21.531  -4.761  34.974  1.00  0.00     0.131 A 
ATOM     28  H2  UNL     1      21.120  -2.745  34.841  1.00  0.00     0.168 HD
HETATM   29  N1  UNL     1      22.706  -4.680  34.460  1.00  0.00    -0.383 N 
ATOM     30  H12 UNL     1      23.046  -3.762  34.174  1.00  0.00     0.157 HD
ATOM     31  H11 UNL     1      23.281  -5.515  34.342  1.00  0.00     0.157 HD
HETATM   32  N4  UNL     1      21.544  -7.267  35.350  1.00  0.00    -0.346 N 
HETATM   33  C5  UNL     1      20.661  -8.140  35.860  1.00  0.00     0.188 A 
ATOM     34  H4  UNL     1      22.465  -7.525  34.995  1.00  0.00     0.167 HD
ENDBRANCH   1  20
BRANCH   5  35
HETATM   35  C10 UNL     1      18.800  -3.845  39.731  1.00  0.00     0.180 C 
BRANCH  35  36
HETATM   36  O2  UNL     1      18.092  -3.301  38.618  1.00  0.00    -0.390 OA
ATOM     37  H2  UNL     1      18.538  -3.638  37.850  1.00  0.00     0.210 HD
ENDBRANCH  35  36
BRANCH  35  38
HETATM   38  C11 UNL     1      20.257  -3.791  39.249  1.00  0.00     0.173 C 
BRANCH  38  39
HETATM   39  O3  UNL     1      21.133  -4.452  40.069  1.00  0.00    -0.391 OA
ATOM     40  H3  UNL     1      21.863  -3.917  40.357  1.00  0.00     0.210 HD
ENDBRANCH  38  39
BRANCH  38  41
HETATM   41  C12 UNL     1      20.670  -2.335  39.194  1.00  0.00     0.198 C 
BRANCH  41  42
HETATM   42  O4  UNL     1      20.540  -1.787  37.934  1.00  0.00    -0.398 OA
ATOM     43  H4  UNL     1      20.642  -0.843  37.930  1.00  0.00     0.209 HD
ENDBRANCH  41  42
ENDBRANCH  38  41
ENDBRANCH  35  38
ENDBRANCH   5  35
BRANCH   7  44
HETATM   44  O6  UNL     1      15.606  -6.693  41.884  1.00  0.00    -0.390 OA
ATOM     45  H6  UNL     1      15.227  -5.976  42.379  1.00  0.00     0.210 HD
ENDBRANCH   7  44
BRANCH   6  46
HETATM   46  O5  UNL     1      18.128  -6.110  42.080  1.00  0.00    -0.390 OA
ATOM     47  H5  UNL     1      17.957  -5.697  42.919  1.00  0.00     0.210 HD
ENDBRANCH   6  46
TORSDOF 13
ENDMDL
