MODEL 1
REMARK VINA RESULT: -10.013277567      0.000      0.000
REMARK  8 active torsions:
REMARK  status: ('A' for Active; 'I' for Inactive)
REMARK       I    between atoms: C1_4  and  N3_6 
REMARK       I    between atoms: N3_6  and  C2_8 
REMARK    1  A    between atoms: C2_8  and  C3_10 
REMARK    2  A    between atoms: C3_10  and  N4_11 
REMARK       I    between atoms: N4_11  and  C4_13 
REMARK    3  A    between atoms: C4_13  and  C5_15 
REMARK    4  A    between atoms: C6_21  and  N7_22 
REMARK    5  A    between atoms: C8_24  and  C9_25 
REMARK    6  A    between atoms: C12_28  and  N8_29 
REMARK       I    between atoms: N8_29  and  C13_31 
REMARK    7  A    between atoms: C13_31  and  C14_33 
REMARK    8  A    between atoms: C15_36  and  C16_37 
ROOT
HETATM    1  N7  UNL     1       3.783  -7.299  11.046  1.00  0.00    -0.231 N 
HETATM    2  C7  UNL     1       2.927  -6.407  10.492  1.00  0.00     0.151 A 
HETATM    3  C8  UNL     1       3.551  -5.683   9.517  1.00  0.00     0.079 A 
HETATM    4  N12 UNL     1       4.829  -6.185   9.512  1.00  0.00    -0.284 N 
ATOM      5  H12 UNL     1       5.582  -5.873   8.900  1.00  0.00     0.188 HD
HETATM    6  N13 UNL     1       4.928  -7.119  10.410  1.00  0.00    -0.234 N 
ATOM      7  H13 UNL     1       5.780  -7.647  10.599  1.00  0.00     0.209 HD
ENDROOT
BRANCH   1   8
HETATM    8  C6  UNL     1       3.536  -8.237  12.084  1.00  0.00     0.184 A 
HETATM    9  C5  UNL     1       3.913  -9.582  12.105  1.00  0.00     0.171 A 
HETATM   10  N5  UNL     1       3.476 -10.107  13.283  1.00  0.00    -0.232 N 
HETATM   11  O3  UNL     1       2.886  -9.165  13.920  1.00  0.00    -0.154 OA
ATOM     12  H5  UNL     1       3.595 -11.070  13.599  1.00  0.00     0.197 HD
HETATM   13  N6  UNL     1       2.899  -8.053  13.254  1.00  0.00    -0.221 N 
ATOM     14  H6  UNL     1       2.489  -7.174  13.569  1.00  0.00     0.198 HD
BRANCH   9  15
HETATM   15  C4  UNL     1       4.631 -10.234  11.043  1.00  0.00     0.274 C 
HETATM   16  N4  UNL     1       3.888 -10.923  10.030  1.00  0.00    -0.347 N 
ATOM     17  H4  UNL     1       2.869 -10.947  10.065  1.00  0.00     0.163 HD
HETATM   18  O2  UNL     1       5.862 -10.214  10.987  1.00  0.00    -0.266 OA
BRANCH  16  19
HETATM   19  C3  UNL     1       4.590 -11.578   8.964  1.00  0.00     0.226 C 
BRANCH  19  20
HETATM   20  C2  UNL     1       4.547 -10.938   7.647  1.00  0.00     0.241 C 
HETATM   21  N3  UNL     1       3.347 -10.768   6.932  1.00  0.00    -0.300 N 
HETATM   22  C1  UNL     1       3.411 -10.130   5.648  1.00  0.00     0.188 C 
ATOM     23  H3  UNL     1       2.458 -11.090   7.314  1.00  0.00     0.171 HD
HETATM   24  N1  UNL     1       2.318  -9.978   5.003  1.00  0.00    -0.373 N 
HETATM   25  N2  UNL     1       4.598  -9.665   5.068  1.00  0.00    -0.064 NA
ATOM     26  H12 UNL     1       2.364  -9.525   4.091  1.00  0.00     0.158 HD
ATOM     27  H11 UNL     1       1.454 -10.316   5.426  1.00  0.00     0.158 HD
HETATM   28  O1  UNL     1       5.652 -10.513   7.123  1.00  0.00    -0.271 OA
ENDBRANCH  19  20
ENDBRANCH  16  19
ENDBRANCH   9  15
ENDBRANCH   1   8
BRANCH   3  29
HETATM   29  C9  UNL     1       3.061  -4.623   8.649  1.00  0.00     0.018 A 
HETATM   30  C10 UNL     1       2.491  -3.485   9.240  1.00  0.00     0.018 A 
HETATM   31  C11 UNL     1       2.010  -2.451   8.499  1.00  0.00     0.030 A 
HETATM   32  C12 UNL     1       2.047  -2.442   7.088  1.00  0.00     0.036 A 
HETATM   33  C18 UNL     1       2.606  -3.555   6.521  1.00  0.00     0.057 A 
HETATM   34  C19 UNL     1       3.101  -4.621   7.292  1.00  0.00     0.061 A 
HETATM   35  N11 UNL     1       3.656  -5.723   6.594  1.00  0.00    -0.101 NA
BRANCH  32  36
HETATM   36  N8  UNL     1       1.545  -1.320   6.412  1.00  0.00    -0.320 N 
HETATM   37  C13 UNL     1       0.257  -1.202   5.900  1.00  0.00     0.290 C 
HETATM   38  O4  UNL     1      -0.591  -2.130   6.016  1.00  0.00    -0.264 OA
ATOM     39  H8  UNL     1       2.175  -0.528   6.286  1.00  0.00     0.169 HD
BRANCH  37  40
HETATM   40  C14 UNL     1      -0.159   0.039   5.191  1.00  0.00     0.175 A 
HETATM   41  N9  UNL     1      -1.386   0.507   4.981  1.00  0.00    -0.334 N 
HETATM   42  C15 UNL     1      -1.339   1.658   4.301  1.00  0.00     0.087 A 
ATOM     43  H9  UNL     1      -2.242   0.051   5.294  1.00  0.00     0.168 HD
HETATM   44  C17 UNL     1       0.004   1.901   4.086  1.00  0.00     0.122 A 
HETATM   45  N10 UNL     1       0.716   0.890   4.643  1.00  0.00    -0.345 N 
ATOM     46  H10 UNL     1       1.732   0.796   4.645  1.00  0.00     0.167 HD
BRANCH  42  47
HETATM   47  C16 UNL     1      -2.429   2.515   3.854  1.00  0.00     0.289 C 
HETATM   48  O5  UNL     1      -3.273   2.168   3.008  1.00  0.00    -0.300 OA
ENDBRANCH  42  47
ENDBRANCH  37  40
ENDBRANCH  32  36
ENDBRANCH   3  29
TORSDOF 8
ENDMDL
MODEL 2
REMARK VINA RESULT: -9.958360775      2.644      5.331
REMARK  8 active torsions:
REMARK  status: ('A' for Active; 'I' for Inactive)
REMARK       I    between atoms: C1_4  and  N3_6 
REMARK       I    between atoms: N3_6  and  C2_8 
REMARK    1  A    between atoms: C2_8  and  C3_10 
REMARK    2  A    between atoms: C3_10  and  N4_11 
REMARK       I    between atoms: N4_11  and  C4_13 
REMARK    3  A    between atoms: C4_13  and  C5_15 
REMARK    4  A    between atoms: C6_21  and  N7_22 
REMARK    5  A    between atoms: C8_24  and  C9_25 
REMARK    6  A    between atoms: C12_28  and  N8_29 
REMARK       I    between atoms: N8_29  and  C13_31 
REMARK    7  A    between atoms: C13_31  and  C14_33 
REMARK    8  A    between atoms: C15_36  and  C16_37 
ROOT
HETATM    1  N7  UNL     1       3.430  -7.984  11.033  1.00  0.00    -0.231 N 
HETATM    2  C7  UNL     1       2.645  -7.075  10.407  1.00  0.00     0.151 A 
HETATM    3  C8  UNL     1       3.407  -6.126   9.788  1.00  0.00     0.079 A 
HETATM    4  N12 UNL     1       4.694  -6.511  10.073  1.00  0.00    -0.284 N 
ATOM      5  H12 UNL     1       5.537  -6.025   9.766  1.00  0.00     0.188 HD
HETATM    6  N13 UNL     1       4.670  -7.591  10.796  1.00  0.00    -0.234 N 
ATOM      7  H13 UNL     1       5.501  -8.073  11.136  1.00  0.00     0.209 HD
ENDROOT
BRANCH   1   8
HETATM    8  C6  UNL     1       3.039  -9.122  11.786  1.00  0.00     0.184 A 
HETATM    9  C5  UNL     1       3.203  -9.315  13.160  1.00  0.00     0.171 A 
HETATM   10  N5  UNL     1       2.688 -10.539  13.462  1.00  0.00    -0.232 N 
HETATM   11  O3  UNL     1       2.250 -11.044  12.370  1.00  0.00    -0.154 OA
ATOM     12  H5  UNL     1       2.657 -10.973  14.385  1.00  0.00     0.197 HD
HETATM   13  N6  UNL     1       2.435 -10.247  11.364  1.00  0.00    -0.221 N 
ATOM     14  H6  UNL     1       2.163 -10.443  10.400  1.00  0.00     0.198 HD
BRANCH   9  15
HETATM   15  C4  UNL     1       3.814  -8.357  14.041  1.00  0.00     0.274 C 
HETATM   16  N4  UNL     1       3.074  -7.892  15.177  1.00  0.00    -0.347 N 
ATOM     17  H4  UNL     1       2.131  -8.240  15.353  1.00  0.00     0.163 HD
HETATM   18  O2  UNL     1       4.952  -7.928  13.840  1.00  0.00    -0.266 OA
BRANCH  16  19
HETATM   19  C3  UNL     1       3.670  -6.936  16.063  1.00  0.00     0.226 C 
BRANCH  19  20
HETATM   20  C2  UNL     1       3.274  -5.535  15.895  1.00  0.00     0.241 C 
HETATM   21  N3  UNL     1       3.410  -4.586  16.925  1.00  0.00    -0.300 N 
HETATM   22  C1  UNL     1       2.992  -3.239  16.660  1.00  0.00     0.188 C 
ATOM     23  H3  UNL     1       3.794  -4.847  17.832  1.00  0.00     0.171 HD
HETATM   24  N1  UNL     1       3.118  -2.381  17.599  1.00  0.00    -0.373 N 
HETATM   25  N2  UNL     1       2.458  -2.816  15.437  1.00  0.00    -0.064 NA
ATOM     26  H12 UNL     1       2.820  -1.424  17.411  1.00  0.00     0.158 HD
ATOM     27  H11 UNL     1       3.507  -2.689  18.490  1.00  0.00     0.158 HD
HETATM   28  O1  UNL     1       2.782  -5.158  14.758  1.00  0.00    -0.271 OA
ENDBRANCH  19  20
ENDBRANCH  16  19
ENDBRANCH   9  15
ENDBRANCH   1   8
BRANCH   3  29
HETATM   29  C9  UNL     1       3.034  -4.961   8.999  1.00  0.00     0.018 A 
HETATM   30  C10 UNL     1       2.480  -3.856   9.662  1.00  0.00     0.018 A 
HETATM   31  C11 UNL     1       2.105  -2.729   8.998  1.00  0.00     0.030 A 
HETATM   32  C12 UNL     1       2.243  -2.586   7.601  1.00  0.00     0.036 A 
HETATM   33  C18 UNL     1       2.787  -3.669   6.964  1.00  0.00     0.057 A 
HETATM   34  C19 UNL     1       3.171  -4.830   7.655  1.00  0.00     0.061 A 
HETATM   35  N11 UNL     1       3.720  -5.889   6.889  1.00  0.00    -0.101 NA
BRANCH  32  36
HETATM   36  N8  UNL     1       1.848  -1.377   7.010  1.00  0.00    -0.320 N 
HETATM   37  C13 UNL     1       0.643  -1.165   6.349  1.00  0.00     0.290 C 
HETATM   38  O4  UNL     1      -0.222  -2.079   6.234  1.00  0.00    -0.264 OA
ATOM     39  H8  UNL     1       2.495  -0.591   7.068  1.00  0.00     0.169 HD
BRANCH  37  40
HETATM   40  C14 UNL     1       0.337   0.164   5.751  1.00  0.00     0.175 A 
HETATM   41  N9  UNL     1      -0.614   0.485   4.879  1.00  0.00    -0.334 N 
HETATM   42  C15 UNL     1      -0.560   1.790   4.586  1.00  0.00     0.087 A 
ATOM     43  H9  UNL     1      -1.290  -0.170   4.488  1.00  0.00     0.168 HD
HETATM   44  C17 UNL     1       0.493   2.288   5.329  1.00  0.00     0.122 A 
HETATM   45  N10 UNL     1       1.034   1.268   6.041  1.00  0.00    -0.345 N 
ATOM     46  H10 UNL     1       1.826   1.332   6.681  1.00  0.00     0.167 HD
BRANCH  42  47
HETATM   47  C16 UNL     1      -1.398   2.573   3.688  1.00  0.00     0.289 C 
HETATM   48  O5  UNL     1      -1.041   3.653   3.183  1.00  0.00    -0.300 OA
ENDBRANCH  42  47
ENDBRANCH  37  40
ENDBRANCH  32  36
ENDBRANCH   3  29
TORSDOF 8
ENDMDL
MODEL 3
REMARK VINA RESULT: -9.887049531      3.308      5.911
REMARK  8 active torsions:
REMARK  status: ('A' for Active; 'I' for Inactive)
REMARK       I    between atoms: C1_4  and  N3_6 
REMARK       I    between atoms: N3_6  and  C2_8 
REMARK    1  A    between atoms: C2_8  and  C3_10 
REMARK    2  A    between atoms: C3_10  and  N4_11 
REMARK       I    between atoms: N4_11  and  C4_13 
REMARK    3  A    between atoms: C4_13  and  C5_15 
REMARK    4  A    between atoms: C6_21  and  N7_22 
REMARK    5  A    between atoms: C8_24  and  C9_25 
REMARK    6  A    between atoms: C12_28  and  N8_29 
REMARK       I    between atoms: N8_29  and  C13_31 
REMARK    7  A    between atoms: C13_31  and  C14_33 
REMARK    8  A    between atoms: C15_36  and  C16_37 
ROOT
HETATM    1  N7  UNL     1       3.009  -8.118  12.628  1.00  0.00    -0.231 N 
HETATM    2  C7  UNL     1       2.959  -7.382  11.492  1.00  0.00     0.151 A 
HETATM    3  C8  UNL     1       1.881  -6.544  11.508  1.00  0.00     0.079 A 
HETATM    4  N12 UNL     1       1.282  -6.814  12.713  1.00  0.00    -0.284 N 
ATOM      5  H12 UNL     1       0.436  -6.366  13.066  1.00  0.00     0.188 HD
HETATM    6  N13 UNL     1       1.962  -7.730  13.336  1.00  0.00    -0.234 N 
ATOM      7  H13 UNL     1       1.720  -8.102  14.254  1.00  0.00     0.209 HD
ENDROOT
BRANCH   1   8
HETATM    8  C6  UNL     1       3.964  -9.098  13.006  1.00  0.00     0.184 A 
HETATM    9  C5  UNL     1       4.838  -9.040  14.095  1.00  0.00     0.171 A 
HETATM   10  N5  UNL     1       5.576 -10.185  14.084  1.00  0.00    -0.232 N 
HETATM   11  O3  UNL     1       5.184 -10.876  13.079  1.00  0.00    -0.154 OA
ATOM     12  H5  UNL     1       6.303 -10.445  14.751  1.00  0.00     0.197 HD
HETATM   13  N6  UNL     1       4.242 -10.276  12.421  1.00  0.00    -0.221 N 
ATOM     14  H6  UNL     1       3.782 -10.643  11.587  1.00  0.00     0.198 HD
BRANCH   9  15
HETATM   15  C4  UNL     1       4.899  -7.943  15.022  1.00  0.00     0.274 C 
HETATM   16  N4  UNL     1       3.780  -7.708  15.888  1.00  0.00    -0.347 N 
ATOM     17  H4  UNL     1       2.960  -8.312  15.843  1.00  0.00     0.163 HD
HETATM   18  O2  UNL     1       5.883  -7.205  15.087  1.00  0.00    -0.266 OA
BRANCH  16  19
HETATM   19  C3  UNL     1       3.827  -6.617  16.817  1.00  0.00     0.226 C 
BRANCH  19  20
HETATM   20  C2  UNL     1       3.357  -5.314  16.337  1.00  0.00     0.241 C 
HETATM   21  N3  UNL     1       3.450  -4.146  17.117  1.00  0.00    -0.300 N 
HETATM   22  C1  UNL     1       2.960  -2.920  16.557  1.00  0.00     0.188 C 
ATOM     23  H3  UNL     1       3.853  -4.172  18.054  1.00  0.00     0.171 HD
HETATM   24  N1  UNL     1       3.047  -1.863  17.270  1.00  0.00    -0.373 N 
HETATM   25  N2  UNL     1       2.397  -2.818  15.279  1.00  0.00    -0.064 NA
ATOM     26  H12 UNL     1       2.699  -0.990  16.872  1.00  0.00     0.158 HD
ATOM     27  H11 UNL     1       3.458  -1.937  18.201  1.00  0.00     0.158 HD
HETATM   28  O1  UNL     1       2.839  -5.234  15.153  1.00  0.00    -0.271 OA
ENDBRANCH  19  20
ENDBRANCH  16  19
ENDBRANCH   9  15
ENDBRANCH   1   8
BRANCH   3  29
HETATM   29  C9  UNL     1       1.406  -5.574  10.533  1.00  0.00     0.018 A 
HETATM   30  C10 UNL     1       2.223  -4.473  10.233  1.00  0.00     0.018 A 
HETATM   31  C11 UNL     1       1.852  -3.522   9.333  1.00  0.00     0.030 A 
HETATM   32  C12 UNL     1       0.626  -3.569   8.637  1.00  0.00     0.036 A 
HETATM   33  C18 UNL     1      -0.163  -4.647   8.935  1.00  0.00     0.057 A 
HETATM   34  C19 UNL     1       0.225  -5.626   9.865  1.00  0.00     0.061 A 
HETATM   35  N11 UNL     1      -0.676  -6.697  10.094  1.00  0.00    -0.101 NA
BRANCH  32  36
HETATM   36  N8  UNL     1       0.342  -2.552   7.713  1.00  0.00    -0.320 N 
HETATM   37  C13 UNL     1       0.706  -2.564   6.371  1.00  0.00     0.290 C 
HETATM   38  O4  UNL     1       1.339  -3.532   5.863  1.00  0.00    -0.264 OA
ATOM     39  H8  UNL     1      -0.173  -1.740   8.053  1.00  0.00     0.169 HD
BRANCH  37  40
HETATM   40  C14 UNL     1       0.355  -1.419   5.487  1.00  0.00     0.175 A 
HETATM   41  N9  UNL     1       0.669  -0.135   5.624  1.00  0.00    -0.334 N 
HETATM   42  C15 UNL     1       0.164   0.582   4.613  1.00  0.00     0.087 A 
ATOM     43  H9  UNL     1       1.219   0.250   6.392  1.00  0.00     0.168 HD
HETATM   44  C17 UNL     1      -0.499  -0.329   3.815  1.00  0.00     0.122 A 
HETATM   45  N10 UNL     1      -0.370  -1.560   4.371  1.00  0.00    -0.345 N 
ATOM     46  H10 UNL     1      -0.754  -2.432   4.006  1.00  0.00     0.167 HD
BRANCH  42  47
HETATM   47  C16 UNL     1       0.257   2.013   4.355  1.00  0.00     0.289 C 
HETATM   48  O5  UNL     1      -0.529   2.629   3.612  1.00  0.00    -0.300 OA
ENDBRANCH  42  47
ENDBRANCH  37  40
ENDBRANCH  32  36
ENDBRANCH   3  29
TORSDOF 8
ENDMDL
MODEL 4
REMARK VINA RESULT: -9.873777131      3.245      5.908
REMARK  8 active torsions:
REMARK  status: ('A' for Active; 'I' for Inactive)
REMARK       I    between atoms: C1_4  and  N3_6 
REMARK       I    between atoms: N3_6  and  C2_8 
REMARK    1  A    between atoms: C2_8  and  C3_10 
REMARK    2  A    between atoms: C3_10  and  N4_11 
REMARK       I    between atoms: N4_11  and  C4_13 
REMARK    3  A    between atoms: C4_13  and  C5_15 
REMARK    4  A    between atoms: C6_21  and  N7_22 
REMARK    5  A    between atoms: C8_24  and  C9_25 
REMARK    6  A    between atoms: C12_28  and  N8_29 
REMARK       I    between atoms: N8_29  and  C13_31 
REMARK    7  A    between atoms: C13_31  and  C14_33 
REMARK    8  A    between atoms: C15_36  and  C16_37 
ROOT
HETATM    1  N7  UNL     1       3.039  -8.070  12.384  1.00  0.00    -0.231 N 
HETATM    2  C7  UNL     1       3.114  -7.113  11.428  1.00  0.00     0.151 A 
HETATM    3  C8  UNL     1       2.010  -6.310  11.465  1.00  0.00     0.079 A 
HETATM    4  N12 UNL     1       1.266  -6.832  12.493  1.00  0.00    -0.284 N 
ATOM      5  H12 UNL     1       0.363  -6.477  12.808  1.00  0.00     0.188 HD
HETATM    6  N13 UNL     1       1.892  -7.850  13.003  1.00  0.00    -0.234 N 
ATOM      7  H13 UNL     1       1.543  -8.409  13.782  1.00  0.00     0.209 HD
ENDROOT
BRANCH   1   8
HETATM    8  C6  UNL     1       3.973  -9.097  12.682  1.00  0.00     0.184 A 
HETATM    9  C5  UNL     1       4.846  -9.145  13.773  1.00  0.00     0.171 A 
HETATM   10  N5  UNL     1       5.560 -10.300  13.670  1.00  0.00    -0.232 N 
HETATM   11  O3  UNL     1       5.157 -10.900  12.613  1.00  0.00    -0.154 OA
ATOM     12  H5  UNL     1       6.280 -10.627  14.314  1.00  0.00     0.197 HD
HETATM   13  N6  UNL     1       4.228 -10.230  12.005  1.00  0.00    -0.221 N 
ATOM     14  H6  UNL     1       3.762 -10.518  11.144  1.00  0.00     0.198 HD
BRANCH   9  15
HETATM   15  C4  UNL     1       4.927  -8.127  14.785  1.00  0.00     0.274 C 
HETATM   16  N4  UNL     1       3.782  -7.881  15.611  1.00  0.00    -0.347 N 
ATOM     17  H4  UNL     1       2.927  -8.422  15.479  1.00  0.00     0.163 HD
HETATM   18  O2  UNL     1       5.953  -7.465  14.956  1.00  0.00    -0.266 OA
BRANCH  16  19
HETATM   19  C3  UNL     1       3.848  -6.868  16.624  1.00  0.00     0.226 C 
BRANCH  19  20
HETATM   20  C2  UNL     1       3.381  -5.529  16.257  1.00  0.00     0.241 C 
HETATM   21  N3  UNL     1       3.488  -4.429  17.129  1.00  0.00    -0.300 N 
HETATM   22  C1  UNL     1       2.999  -3.159  16.677  1.00  0.00     0.188 C 
ATOM     23  H3  UNL     1       3.900  -4.533  18.056  1.00  0.00     0.171 HD
HETATM   24  N1  UNL     1       3.099  -2.164  17.472  1.00  0.00    -0.373 N 
HETATM   25  N2  UNL     1       2.424  -2.950  15.417  1.00  0.00    -0.064 NA
ATOM     26  H12 UNL     1       2.751  -1.260  17.150  1.00  0.00     0.158 HD
ATOM     27  H11 UNL     1       3.518  -2.316  18.389  1.00  0.00     0.158 HD
HETATM   28  O1  UNL     1       2.851  -5.350  15.089  1.00  0.00    -0.271 OA
ENDBRANCH  19  20
ENDBRANCH  16  19
ENDBRANCH   9  15
ENDBRANCH   1   8
BRANCH   3  29
HETATM   29  C9  UNL     1       1.633  -5.162  10.653  1.00  0.00     0.018 A 
HETATM   30  C10 UNL     1       2.249  -4.995   9.404  1.00  0.00     0.018 A 
HETATM   31  C11 UNL     1       1.952  -3.950   8.586  1.00  0.00     0.030 A 
HETATM   32  C12 UNL     1       1.007  -2.959   8.928  1.00  0.00     0.036 A 
HETATM   33  C18 UNL     1       0.410  -3.131  10.148  1.00  0.00     0.057 A 
HETATM   34  C19 UNL     1       0.721  -4.213  10.988  1.00  0.00     0.061 A 
HETATM   35  N11 UNL     1       0.040  -4.287  12.229  1.00  0.00    -0.101 NA
BRANCH  32  36
HETATM   36  N8  UNL     1       0.753  -1.930   8.009  1.00  0.00    -0.320 N 
HETATM   37  C13 UNL     1       1.402  -0.701   7.982  1.00  0.00     0.290 C 
HETATM   38  O4  UNL     1       2.309  -0.410   8.812  1.00  0.00    -0.264 OA
ATOM     39  H8  UNL     1       0.035  -2.097   7.304  1.00  0.00     0.169 HD
BRANCH  37  40
HETATM   40  C14 UNL     1       1.038   0.320   6.960  1.00  0.00     0.175 A 
HETATM   41  N9  UNL     1       0.207   0.206   5.929  1.00  0.00    -0.334 N 
HETATM   42  C15 UNL     1       0.150   1.353   5.244  1.00  0.00     0.087 A 
ATOM     43  H9  UNL     1      -0.315  -0.639   5.694  1.00  0.00     0.168 HD
HETATM   44  C17 UNL     1       1.003   2.216   5.904  1.00  0.00     0.122 A 
HETATM   45  N10 UNL     1       1.542   1.559   6.961  1.00  0.00    -0.345 N 
ATOM     46  H10 UNL     1       2.208   1.940   7.633  1.00  0.00     0.167 HD
BRANCH  42  47
HETATM   47  C16 UNL     1      -0.623   1.684   4.053  1.00  0.00     0.289 C 
HETATM   48  O5  UNL     1      -1.695   1.128   3.754  1.00  0.00    -0.300 OA
ENDBRANCH  42  47
ENDBRANCH  37  40
ENDBRANCH  32  36
ENDBRANCH   3  29
TORSDOF 8
ENDMDL
MODEL 5
REMARK VINA RESULT: -9.707055230      4.855      8.398
REMARK  8 active torsions:
REMARK  status: ('A' for Active; 'I' for Inactive)
REMARK       I    between atoms: C1_4  and  N3_6 
REMARK       I    between atoms: N3_6  and  C2_8 
REMARK    1  A    between atoms: C2_8  and  C3_10 
REMARK    2  A    between atoms: C3_10  and  N4_11 
REMARK       I    between atoms: N4_11  and  C4_13 
REMARK    3  A    between atoms: C4_13  and  C5_15 
REMARK    4  A    between atoms: C6_21  and  N7_22 
REMARK    5  A    between atoms: C8_24  and  C9_25 
REMARK    6  A    between atoms: C12_28  and  N8_29 
REMARK       I    between atoms: N8_29  and  C13_31 
REMARK    7  A    between atoms: C13_31  and  C14_33 
REMARK    8  A    between atoms: C15_36  and  C16_37 
ROOT
HETATM    1  N7  UNL     1       4.326  -8.450  14.282  1.00  0.00    -0.231 N 
HETATM    2  C7  UNL     1       3.913  -8.489  12.993  1.00  0.00     0.151 A 
HETATM    3  C8  UNL     1       4.261  -9.674  12.411  1.00  0.00     0.079 A 
HETATM    4  N12 UNL     1       4.907 -10.348  13.418  1.00  0.00    -0.284 N 
ATOM      5  H12 UNL     1       5.308 -11.283  13.339  1.00  0.00     0.188 HD
HETATM    6  N13 UNL     1       4.925  -9.610  14.487  1.00  0.00    -0.234 N 
ATOM      7  H13 UNL     1       5.349  -9.890  15.372  1.00  0.00     0.209 HD
ENDROOT
BRANCH   1   8
HETATM    8  C6  UNL     1       4.165  -7.407  15.232  1.00  0.00     0.184 A 
HETATM    9  C5  UNL     1       3.213  -6.383  15.199  1.00  0.00     0.171 A 
HETATM   10  N5  UNL     1       3.416  -5.606  16.299  1.00  0.00    -0.232 N 
HETATM   11  O3  UNL     1       4.401  -6.113  16.943  1.00  0.00    -0.154 OA
ATOM     12  H5  UNL     1       2.884  -4.777  16.562  1.00  0.00     0.197 HD
HETATM   13  N6  UNL     1       4.869  -7.169  16.353  1.00  0.00    -0.221 N 
ATOM     14  H6  UNL     1       5.651  -7.732  16.688  1.00  0.00     0.198 HD
BRANCH   9  15
HETATM   15  C4  UNL     1       2.228  -6.233  14.164  1.00  0.00     0.274 C 
HETATM   16  N4  UNL     1       2.469  -5.288  13.113  1.00  0.00    -0.347 N 
ATOM     17  H4  UNL     1       3.326  -4.735  13.105  1.00  0.00     0.163 HD
HETATM   18  O2  UNL     1       1.187  -6.893  14.160  1.00  0.00    -0.266 OA
BRANCH  16  19
HETATM   19  C3  UNL     1       1.494  -5.127  12.073  1.00  0.00     0.226 C 
BRANCH  19  20
HETATM   20  C2  UNL     1       1.877  -5.569  10.729  1.00  0.00     0.241 C 
HETATM   21  N3  UNL     1       3.032  -5.094  10.081  1.00  0.00    -0.300 N 
HETATM   22  C1  UNL     1       3.319  -5.587   8.765  1.00  0.00     0.188 C 
ATOM     23  H3  UNL     1       3.647  -4.418  10.534  1.00  0.00     0.171 HD
HETATM   24  N1  UNL     1       4.369  -5.153   8.182  1.00  0.00    -0.373 N 
HETATM   25  N2  UNL     1       2.516  -6.515   8.090  1.00  0.00    -0.064 NA
ATOM     26  H12 UNL     1       4.573  -5.503   7.246  1.00  0.00     0.158 HD
ATOM     27  H11 UNL     1       4.954  -4.477   8.674  1.00  0.00     0.158 HD
HETATM   28  O1  UNL     1       1.126  -6.428  10.117  1.00  0.00    -0.271 OA
ENDBRANCH  19  20
ENDBRANCH  16  19
ENDBRANCH   9  15
ENDBRANCH   1   8
BRANCH   3  29
HETATM   29  C9  UNL     1       4.044 -10.181  11.064  1.00  0.00     0.018 A 
HETATM   30  C10 UNL     1       3.122  -9.518  10.241  1.00  0.00     0.018 A 
HETATM   31  C11 UNL     1       2.862  -9.929   8.970  1.00  0.00     0.030 A 
HETATM   32  C12 UNL     1       3.496 -11.046   8.386  1.00  0.00     0.036 A 
HETATM   33  C18 UNL     1       4.396 -11.685   9.196  1.00  0.00     0.057 A 
HETATM   34  C19 UNL     1       4.660 -11.256  10.508  1.00  0.00     0.061 A 
HETATM   35  N11 UNL     1       5.610 -11.998  11.254  1.00  0.00    -0.101 NA
BRANCH  32  36
HETATM   36  N8  UNL     1       3.178 -11.380   7.061  1.00  0.00    -0.320 N 
HETATM   37  C13 UNL     1       3.850 -10.919   5.935  1.00  0.00     0.290 C 
HETATM   38  O4  UNL     1       4.841 -10.140   6.025  1.00  0.00    -0.264 OA
ATOM     39  H8  UNL     1       2.390 -12.010   6.912  1.00  0.00     0.169 HD
BRANCH  37  40
HETATM   40  C14 UNL     1       3.413 -11.336   4.574  1.00  0.00     0.175 A 
HETATM   41  N9  UNL     1       2.733 -10.640   3.668  1.00  0.00    -0.334 N 
HETATM   42  C15 UNL     1       2.536 -11.372   2.566  1.00  0.00     0.087 A 
ATOM     43  H9  UNL     1       2.407  -9.682   3.796  1.00  0.00     0.168 HD
HETATM   44  C17 UNL     1       3.135 -12.589   2.823  1.00  0.00     0.122 A 
HETATM   45  N10 UNL     1       3.671 -12.547   4.069  1.00  0.00    -0.345 N 
ATOM     46  H10 UNL     1       4.178 -13.301   4.534  1.00  0.00     0.167 HD
BRANCH  42  47
HETATM   47  C16 UNL     1       1.847 -11.020   1.331  1.00  0.00     0.289 C 
HETATM   48  O5  UNL     1       0.656 -11.301   1.105  1.00  0.00    -0.300 OA
ENDBRANCH  42  47
ENDBRANCH  37  40
ENDBRANCH  32  36
ENDBRANCH   3  29
TORSDOF 8
ENDMDL
