MODEL 1
REMARK VINA RESULT: -9.027791735      0.000      0.000
REMARK  13 active torsions:
REMARK  status: ('A' for Active; 'I' for Inactive)
REMARK    1  A    between atoms: C5_5  and  N1_6 
REMARK       I    between atoms: N1_6  and  C6_8 
REMARK    2  A    between atoms: C6_8  and  C7_10 
REMARK    3  A    between atoms: N2_13  and  S1_14 
REMARK    4  A    between atoms: N3_18  and  C11_19 
REMARK    5  A    between atoms: C11_19  and  O4_20 
REMARK    6  A    between atoms: C11_19  and  C12_22 
REMARK    7  A    between atoms: C12_22  and  C13_23 
REMARK    8  A    between atoms: C12_22  and  N5_38 
REMARK    9  A    between atoms: C13_23  and  C14_24 
REMARK   10  A    between atoms: C14_24  and  C15_26 
REMARK   11  A    between atoms: C22_33  and  O6_34 
REMARK   12  A    between atoms: N5_38  and  S2_40 
REMARK   13  A    between atoms: S2_40  and  C24_43 
ROOT
HETATM    1  C24 UNL     1       6.646   3.640 -14.178  1.00  0.00     0.079 A 
HETATM    2  C25 UNL     1       7.373   3.052 -15.190  1.00  0.00     0.027 A 
HETATM    3  C26 UNL     1       8.750   3.115 -15.246  1.00  0.00     0.024 A 
HETATM    4  C27 UNL     1       9.459   3.781 -14.273  1.00  0.00     0.044 A 
HETATM    5  C28 UNL     1      10.904   3.865 -14.303  1.00  0.00     0.099 C 
HETATM    6  N6  UNL     1      12.053   3.951 -14.338  1.00  0.00    -0.191 NA
HETATM    7  C29 UNL     1       8.735   4.378 -13.252  1.00  0.00     0.024 A 
HETATM    8  C30 UNL     1       7.359   4.313 -13.199  1.00  0.00     0.027 A 
ENDROOT
BRANCH   1   9
HETATM    9  S2  UNL     1       4.908   3.569 -14.076  1.00  0.00     0.259 S 
HETATM   10  O7  UNL     1       4.409   3.363 -15.488  1.00  0.00    -0.201 OA
HETATM   11  O8  UNL     1       4.408   4.911 -13.641  1.00  0.00    -0.201 OA
BRANCH   9  12
HETATM   12  N5  UNL     1       4.360   2.313 -13.050  1.00  0.00    -0.302 N 
ATOM     13  H5  UNL     1       4.017   2.450 -12.099  1.00  0.00     0.173 HD
BRANCH  12  14
HETATM   14  C12 UNL     1       4.450   0.993 -13.735  1.00  0.00     0.176 C 
BRANCH  14  15
HETATM   15  C11 UNL     1       3.180   0.312 -13.696  1.00  0.00     0.154 C 
BRANCH  15  16
HETATM   16  N3  UNL     1       2.624  -0.906 -14.093  1.00  0.00    -0.265 N 
HETATM   17  C7  UNL     1       3.152  -2.176 -13.497  1.00  0.00     0.199 C 
HETATM   18  C8  UNL     1       1.946  -3.104 -13.641  1.00  0.00     0.054 C 
HETATM   19  C9  UNL     1       0.867  -2.262 -14.223  1.00  0.00     0.135 C 
HETATM   20  N2  UNL     1       1.667  -1.295 -14.985  1.00  0.00    -0.116 NA
BRANCH  17  21
HETATM   21  C6  UNL     1       3.365  -1.989 -12.013  1.00  0.00     0.247 C 
HETATM   22  N1  UNL     1       4.335  -2.548 -11.242  1.00  0.00    -0.311 N 
ATOM     23  H1  UNL     1       3.933  -3.047 -10.448  1.00  0.00     0.170 HD
HETATM   24  O1  UNL     1       2.518  -1.214 -11.441  1.00  0.00    -0.271 OA
BRANCH  22  25
HETATM   25  C5  UNL     1       5.589  -2.621 -11.235  1.00  0.00     0.107 A 
HETATM   26  C4  UNL     1       6.266  -2.192 -10.074  1.00  0.00     0.049 A 
HETATM   27  C3  UNL     1       7.628  -2.234  -9.976  1.00  0.00     0.012 A 
HETATM   28  C2  UNL     1       8.413  -2.701 -11.011  1.00  0.00    -0.046 A 
HETATM   29  C1  UNL     1       9.894  -2.761 -10.938  1.00  0.00     0.049 C 
HETATM   30  C31 UNL     1       7.723  -3.114 -12.132  1.00  0.00     0.096 A 
HETATM   31  N7  UNL     1       6.382  -3.070 -12.224  1.00  0.00    -0.352 N 
ATOM     32  H7  UNL     1       5.944  -3.392 -13.088  1.00  0.00     0.166 HD
ENDBRANCH  22  25
ENDBRANCH  17  21
BRANCH  20  33
HETATM   33  S1  UNL     1       2.071  -1.881 -16.505  1.00  0.00     0.225 S 
HETATM   34  C10 UNL     1       1.157  -3.256 -17.127  1.00  0.00     0.181 C 
HETATM   35  O2  UNL     1       1.865  -0.778 -17.560  1.00  0.00    -0.210 OA
HETATM   36  O3  UNL     1       3.528  -2.309 -16.635  1.00  0.00    -0.210 OA
ENDBRANCH  20  33
ENDBRANCH  15  16
BRANCH  15  37
HETATM   37  O4  UNL     1       2.276   1.142 -13.111  1.00  0.00    -0.347 OA
ATOM     38  H4  UNL     1       2.307   1.112 -12.162  1.00  0.00     0.219 HD
ENDBRANCH  15  37
ENDBRANCH  14  15
BRANCH  14  39
HETATM   39  C13 UNL     1       5.705   0.362 -13.283  1.00  0.00     0.118 C 
BRANCH  39  40
HETATM   40  C14 UNL     1       6.243   0.751 -11.994  1.00  0.00     0.162 C 
HETATM   41  O5  UNL     1       5.500   0.944 -10.969  1.00  0.00    -0.292 OA
BRANCH  40  42
HETATM   42  C15 UNL     1       7.677   0.945 -11.784  1.00  0.00     0.011 A 
HETATM   43  C16 UNL     1       8.119   1.597 -10.669  1.00  0.00     0.017 A 
HETATM   44  C17 UNL     1       9.455   1.804 -10.426  1.00  0.00     0.031 A 
HETATM   45  C18 UNL     1      10.358   1.328 -11.354  1.00  0.00     0.046 A 
HETATM   46  C19 UNL     1       9.951   0.665 -12.492  1.00  0.00    -0.004 A 
HETATM   47  N4  UNL     1      11.686   1.403 -11.348  1.00  0.00    -0.332 N 
HETATM   48  C20 UNL     1       8.592   0.481 -12.691  1.00  0.00     0.029 A 
HETATM   49  C21 UNL     1      11.081   0.339 -13.177  1.00  0.00     0.069 A 
HETATM   50  C22 UNL     1      12.158   0.804 -12.455  1.00  0.00     0.143 A 
HETATM   51  C23 UNL     1      12.510   2.029 -10.314  1.00  0.00     0.158 C 
BRANCH  50  52
HETATM   52  O6  UNL     1      13.474   0.655 -12.843  1.00  0.00    -0.346 OA
ATOM     53  H6  UNL     1      13.993   1.341 -13.246  1.00  0.00     0.219 HD
ENDBRANCH  50  52
ENDBRANCH  40  42
ENDBRANCH  39  40
ENDBRANCH  14  39
ENDBRANCH  12  14
ENDBRANCH   9  12
ENDBRANCH   1   9
TORSDOF 13
ENDMDL
MODEL 2
REMARK VINA RESULT: -8.780484012      0.780      1.427
REMARK  13 active torsions:
REMARK  status: ('A' for Active; 'I' for Inactive)
REMARK    1  A    between atoms: C5_5  and  N1_6 
REMARK       I    between atoms: N1_6  and  C6_8 
REMARK    2  A    between atoms: C6_8  and  C7_10 
REMARK    3  A    between atoms: N2_13  and  S1_14 
REMARK    4  A    between atoms: N3_18  and  C11_19 
REMARK    5  A    between atoms: C11_19  and  O4_20 
REMARK    6  A    between atoms: C11_19  and  C12_22 
REMARK    7  A    between atoms: C12_22  and  C13_23 
REMARK    8  A    between atoms: C12_22  and  N5_38 
REMARK    9  A    between atoms: C13_23  and  C14_24 
REMARK   10  A    between atoms: C14_24  and  C15_26 
REMARK   11  A    between atoms: C22_33  and  O6_34 
REMARK   12  A    between atoms: N5_38  and  S2_40 
REMARK   13  A    between atoms: S2_40  and  C24_43 
ROOT
HETATM    1  C24 UNL     1       6.997   3.685 -14.008  1.00  0.00     0.079 A 
HETATM    2  C25 UNL     1       7.728   4.186 -12.953  1.00  0.00     0.027 A 
HETATM    3  C26 UNL     1       9.108   4.169 -12.934  1.00  0.00     0.024 A 
HETATM    4  C27 UNL     1       9.814   3.640 -13.990  1.00  0.00     0.044 A 
HETATM    5  C28 UNL     1      11.261   3.607 -14.001  1.00  0.00     0.099 C 
HETATM    6  N6  UNL     1      12.413   3.562 -14.001  1.00  0.00    -0.191 NA
HETATM    7  C29 UNL     1       9.085   3.132 -15.055  1.00  0.00     0.024 A 
HETATM    8  C30 UNL     1       7.707   3.151 -15.070  1.00  0.00     0.027 A 
ENDROOT
BRANCH   1   9
HETATM    9  S2  UNL     1       5.255   3.702 -14.063  1.00  0.00     0.259 S 
HETATM   10  O7  UNL     1       4.876   3.549 -15.517  1.00  0.00    -0.201 OA
HETATM   11  O8  UNL     1       4.785   5.060 -13.643  1.00  0.00    -0.201 OA
BRANCH   9  12
HETATM   12  N5  UNL     1       4.555   2.457 -13.119  1.00  0.00    -0.302 N 
ATOM     13  H5  UNL     1       4.163   2.588 -12.186  1.00  0.00     0.173 HD
BRANCH  12  14
HETATM   14  C12 UNL     1       4.594   1.157 -13.846  1.00  0.00     0.176 C 
BRANCH  14  15
HETATM   15  C11 UNL     1       3.296   0.530 -13.837  1.00  0.00     0.154 C 
BRANCH  15  16
HETATM   16  N3  UNL     1       2.694  -0.654 -14.266  1.00  0.00    -0.265 N 
HETATM   17  C7  UNL     1       3.121  -1.952 -13.650  1.00  0.00     0.199 C 
HETATM   18  C8  UNL     1       1.874  -2.812 -13.859  1.00  0.00     0.054 C 
HETATM   19  C9  UNL     1       0.874  -1.912 -14.490  1.00  0.00     0.135 C 
HETATM   20  N2  UNL     1       1.763  -0.988 -15.207  1.00  0.00    -0.116 NA
BRANCH  17  21
HETATM   21  C6  UNL     1       3.269  -1.781 -12.157  1.00  0.00     0.247 C 
HETATM   22  N1  UNL     1       4.161  -2.400 -11.339  1.00  0.00    -0.311 N 
ATOM     23  H1  UNL     1       3.689  -2.872 -10.569  1.00  0.00     0.170 HD
HETATM   24  O1  UNL     1       2.444  -0.953 -11.625  1.00  0.00    -0.271 OA
BRANCH  22  25
HETATM   25  C5  UNL     1       5.406  -2.552 -11.268  1.00  0.00     0.107 A 
HETATM   26  C4  UNL     1       6.052  -2.145 -10.082  1.00  0.00     0.049 A 
HETATM   27  C3  UNL     1       7.402  -2.272  -9.916  1.00  0.00     0.012 A 
HETATM   28  C2  UNL     1       8.205  -2.806 -10.903  1.00  0.00    -0.046 A 
HETATM   29  C1  UNL     1       9.673  -2.958 -10.756  1.00  0.00     0.049 C 
HETATM   30  C31 UNL     1       7.546  -3.194 -12.051  1.00  0.00     0.096 A 
HETATM   31  N7  UNL     1       6.216  -3.067 -12.211  1.00  0.00    -0.352 N 
ATOM     32  H7  UNL     1       5.801  -3.377 -13.090  1.00  0.00     0.166 HD
ENDBRANCH  22  25
ENDBRANCH  17  21
BRANCH  20  33
HETATM   33  S1  UNL     1       2.209  -1.594 -16.707  1.00  0.00     0.225 S 
HETATM   34  C10 UNL     1       1.110  -2.723 -17.500  1.00  0.00     0.181 C 
HETATM   35  O2  UNL     1       2.358  -0.437 -17.712  1.00  0.00    -0.210 OA
HETATM   36  O3  UNL     1       3.553  -2.314 -16.708  1.00  0.00    -0.210 OA
ENDBRANCH  20  33
ENDBRANCH  15  16
BRANCH  15  37
HETATM   37  O4  UNL     1       2.420   1.385 -13.245  1.00  0.00    -0.347 OA
ATOM     38  H4  UNL     1       2.632   1.561 -12.336  1.00  0.00     0.219 HD
ENDBRANCH  15  37
ENDBRANCH  14  15
BRANCH  14  39
HETATM   39  C13 UNL     1       5.817   0.459 -13.407  1.00  0.00     0.118 C 
BRANCH  39  40
HETATM   40  C14 UNL     1       6.369   0.791 -12.108  1.00  0.00     0.162 C 
HETATM   41  O5  UNL     1       5.634   1.137 -11.117  1.00  0.00    -0.292 OA
BRANCH  40  42
HETATM   42  C15 UNL     1       7.806   0.749 -11.846  1.00  0.00     0.011 A 
HETATM   43  C16 UNL     1       8.659   0.289 -12.808  1.00  0.00     0.017 A 
HETATM   44  C17 UNL     1      10.018   0.230 -12.611  1.00  0.00     0.031 A 
HETATM   45  C18 UNL     1      10.509   0.654 -11.393  1.00  0.00     0.046 A 
HETATM   46  C19 UNL     1       9.680   1.123 -10.397  1.00  0.00    -0.004 A 
HETATM   47  N4  UNL     1      11.767   0.693 -10.964  1.00  0.00    -0.332 N 
HETATM   48  C20 UNL     1       8.317   1.164 -10.646  1.00  0.00     0.029 A 
HETATM   49  C21 UNL     1      10.481   1.450  -9.346  1.00  0.00     0.069 A 
HETATM   50  C22 UNL     1      11.781   1.178  -9.710  1.00  0.00     0.143 A 
HETATM   51  C23 UNL     1      12.951   0.281 -11.720  1.00  0.00     0.158 C 
BRANCH  50  52
HETATM   52  O6  UNL     1      12.874   1.385  -8.893  1.00  0.00    -0.346 OA
ATOM     53  H6  UNL     1      13.025   0.924  -8.076  1.00  0.00     0.219 HD
ENDBRANCH  50  52
ENDBRANCH  40  42
ENDBRANCH  39  40
ENDBRANCH  14  39
ENDBRANCH  12  14
ENDBRANCH   9  12
ENDBRANCH   1   9
TORSDOF 13
ENDMDL
MODEL 3
REMARK VINA RESULT: -8.708787536      1.489      1.885
REMARK  13 active torsions:
REMARK  status: ('A' for Active; 'I' for Inactive)
REMARK    1  A    between atoms: C5_5  and  N1_6 
REMARK       I    between atoms: N1_6  and  C6_8 
REMARK    2  A    between atoms: C6_8  and  C7_10 
REMARK    3  A    between atoms: N2_13  and  S1_14 
REMARK    4  A    between atoms: N3_18  and  C11_19 
REMARK    5  A    between atoms: C11_19  and  O4_20 
REMARK    6  A    between atoms: C11_19  and  C12_22 
REMARK    7  A    between atoms: C12_22  and  C13_23 
REMARK    8  A    between atoms: C12_22  and  N5_38 
REMARK    9  A    between atoms: C13_23  and  C14_24 
REMARK   10  A    between atoms: C14_24  and  C15_26 
REMARK   11  A    between atoms: C22_33  and  O6_34 
REMARK   12  A    between atoms: N5_38  and  S2_40 
REMARK   13  A    between atoms: S2_40  and  C24_43 
ROOT
HETATM    1  C24 UNL     1       5.318   3.603 -15.644  1.00  0.00     0.079 A 
HETATM    2  C25 UNL     1       6.694   3.579 -15.572  1.00  0.00     0.027 A 
HETATM    3  C26 UNL     1       7.494   3.521 -16.695  1.00  0.00     0.024 A 
HETATM    4  C27 UNL     1       6.933   3.485 -17.951  1.00  0.00     0.044 A 
HETATM    5  C28 UNL     1       7.744   3.425 -19.148  1.00  0.00     0.099 C 
HETATM    6  N6  UNL     1       8.388   3.355 -20.102  1.00  0.00    -0.191 NA
HETATM    7  C29 UNL     1       5.548   3.508 -18.033  1.00  0.00     0.024 A 
HETATM    8  C30 UNL     1       4.753   3.565 -16.908  1.00  0.00     0.027 A 
ENDROOT
BRANCH   1   9
HETATM    9  S2  UNL     1       4.284   3.684 -14.244  1.00  0.00     0.259 S 
HETATM   10  O7  UNL     1       2.866   3.589 -14.759  1.00  0.00    -0.201 OA
HETATM   11  O8  UNL     1       4.423   5.045 -13.637  1.00  0.00    -0.201 OA
BRANCH   9  12
HETATM   12  N5  UNL     1       4.605   2.439 -13.115  1.00  0.00    -0.302 N 
ATOM     13  H5  UNL     1       4.739   2.584 -12.114  1.00  0.00     0.173 HD
BRANCH  12  14
HETATM   14  C12 UNL     1       4.662   1.113 -13.792  1.00  0.00     0.176 C 
BRANCH  14  15
HETATM   15  C11 UNL     1       3.379   0.458 -13.738  1.00  0.00     0.154 C 
BRANCH  15  16
HETATM   16  N3  UNL     1       2.774  -0.715 -14.191  1.00  0.00    -0.265 N 
HETATM   17  C7  UNL     1       3.213  -2.029 -13.618  1.00  0.00     0.199 C 
HETATM   18  C8  UNL     1       1.966  -2.886 -13.832  1.00  0.00     0.054 C 
HETATM   19  C9  UNL     1       0.953  -1.972 -14.421  1.00  0.00     0.135 C 
HETATM   20  N2  UNL     1       1.829  -1.025 -15.126  1.00  0.00    -0.116 NA
BRANCH  17  21
HETATM   21  C6  UNL     1       3.384  -1.899 -12.124  1.00  0.00     0.247 C 
HETATM   22  N1  UNL     1       4.320  -2.503 -11.344  1.00  0.00    -0.311 N 
ATOM     23  H1  UNL     1       3.885  -3.021 -10.581  1.00  0.00     0.170 HD
HETATM   24  O1  UNL     1       2.535  -1.127 -11.549  1.00  0.00    -0.271 OA
BRANCH  22  25
HETATM   25  C5  UNL     1       5.571  -2.601 -11.302  1.00  0.00     0.107 A 
HETATM   26  C4  UNL     1       6.224  -2.199 -10.118  1.00  0.00     0.049 A 
HETATM   27  C3  UNL     1       7.581  -2.270  -9.982  1.00  0.00     0.012 A 
HETATM   28  C2  UNL     1       8.386  -2.739 -10.999  1.00  0.00    -0.046 A 
HETATM   29  C1  UNL     1       9.862  -2.829 -10.886  1.00  0.00     0.049 C 
HETATM   30  C31 UNL     1       7.721  -3.124 -12.145  1.00  0.00     0.096 A 
HETATM   31  N7  UNL     1       6.384  -3.053 -12.275  1.00  0.00    -0.352 N 
ATOM     32  H7  UNL     1       5.965  -3.356 -13.154  1.00  0.00     0.166 HD
ENDBRANCH  22  25
ENDBRANCH  17  21
BRANCH  20  33
HETATM   33  S1  UNL     1       2.253  -1.587 -16.650  1.00  0.00     0.225 S 
HETATM   34  C10 UNL     1       1.223  -2.813 -17.392  1.00  0.00     0.181 C 
HETATM   35  O2  UNL     1       2.244  -0.421 -17.655  1.00  0.00    -0.210 OA
HETATM   36  O3  UNL     1       3.655  -2.181 -16.721  1.00  0.00    -0.210 OA
ENDBRANCH  20  33
ENDBRANCH  15  16
BRANCH  15  37
HETATM   37  O4  UNL     1       2.525   1.264 -13.051  1.00  0.00    -0.347 OA
ATOM     38  H4  UNL     1       2.969   1.824 -12.425  1.00  0.00     0.219 HD
ENDBRANCH  15  37
ENDBRANCH  14  15
BRANCH  14  39
HETATM   39  C13 UNL     1       5.907   0.459 -13.347  1.00  0.00     0.118 C 
BRANCH  39  40
HETATM   40  C14 UNL     1       6.398   0.750 -12.015  1.00  0.00     0.162 C 
HETATM   41  O5  UNL     1       5.614   0.926 -11.017  1.00  0.00    -0.292 OA
BRANCH  40  42
HETATM   42  C15 UNL     1       7.826   0.859 -11.725  1.00  0.00     0.011 A 
HETATM   43  C16 UNL     1       8.241   1.295 -10.500  1.00  0.00     0.017 A 
HETATM   44  C17 UNL     1       9.571   1.414 -10.178  1.00  0.00     0.031 A 
HETATM   45  C18 UNL     1      10.497   1.078 -11.144  1.00  0.00     0.046 A 
HETATM   46  C19 UNL     1      10.119   0.635 -12.394  1.00  0.00    -0.004 A 
HETATM   47  N4  UNL     1      11.825   1.109 -11.080  1.00  0.00    -0.332 N 
HETATM   48  C20 UNL     1       8.764   0.532 -12.667  1.00  0.00     0.029 A 
HETATM   49  C21 UNL     1      11.266   0.397 -13.086  1.00  0.00     0.069 A 
HETATM   50  C22 UNL     1      12.325   0.696 -12.257  1.00  0.00     0.143 A 
HETATM   51  C23 UNL     1      12.624   1.521  -9.924  1.00  0.00     0.158 C 
BRANCH  50  52
HETATM   52  O6  UNL     1      13.651   0.575 -12.621  1.00  0.00    -0.346 OA
ATOM     53  H6  UNL     1      14.087   1.142 -13.246  1.00  0.00     0.219 HD
ENDBRANCH  50  52
ENDBRANCH  40  42
ENDBRANCH  39  40
ENDBRANCH  14  39
ENDBRANCH  12  14
ENDBRANCH   9  12
ENDBRANCH   1   9
TORSDOF 13
ENDMDL
MODEL 4
REMARK VINA RESULT: -8.668130609      1.908      2.275
REMARK  13 active torsions:
REMARK  status: ('A' for Active; 'I' for Inactive)
REMARK    1  A    between atoms: C5_5  and  N1_6 
REMARK       I    between atoms: N1_6  and  C6_8 
REMARK    2  A    between atoms: C6_8  and  C7_10 
REMARK    3  A    between atoms: N2_13  and  S1_14 
REMARK    4  A    between atoms: N3_18  and  C11_19 
REMARK    5  A    between atoms: C11_19  and  O4_20 
REMARK    6  A    between atoms: C11_19  and  C12_22 
REMARK    7  A    between atoms: C12_22  and  C13_23 
REMARK    8  A    between atoms: C12_22  and  N5_38 
REMARK    9  A    between atoms: C13_23  and  C14_24 
REMARK   10  A    between atoms: C14_24  and  C15_26 
REMARK   11  A    between atoms: C22_33  and  O6_34 
REMARK   12  A    between atoms: N5_38  and  S2_40 
REMARK   13  A    between atoms: S2_40  and  C24_43 
ROOT
HETATM    1  C24 UNL     1       5.303   3.545 -15.610  1.00  0.00     0.079 A 
HETATM    2  C25 UNL     1       4.817   3.030 -16.791  1.00  0.00     0.027 A 
HETATM    3  C26 UNL     1       5.570   2.987 -17.947  1.00  0.00     0.024 A 
HETATM    4  C27 UNL     1       6.860   3.467 -17.957  1.00  0.00     0.044 A 
HETATM    5  C28 UNL     1       7.676   3.435 -19.152  1.00  0.00     0.099 C 
HETATM    6  N6  UNL     1       8.320   3.431 -20.108  1.00  0.00    -0.191 NA
HETATM    7  C29 UNL     1       7.357   3.988 -16.772  1.00  0.00     0.024 A 
HETATM    8  C30 UNL     1       6.600   4.030 -15.620  1.00  0.00     0.027 A 
ENDROOT
BRANCH   1   9
HETATM    9  S2  UNL     1       4.377   3.604 -14.134  1.00  0.00     0.259 S 
HETATM   10  O7  UNL     1       2.933   3.403 -14.531  1.00  0.00    -0.201 OA
HETATM   11  O8  UNL     1       4.474   4.989 -13.574  1.00  0.00    -0.201 OA
BRANCH   9  12
HETATM   12  N5  UNL     1       4.866   2.416 -13.003  1.00  0.00    -0.302 N 
ATOM     13  H5  UNL     1       5.103   2.606 -12.029  1.00  0.00     0.173 HD
BRANCH  12  14
HETATM   14  C12 UNL     1       4.899   1.067 -13.634  1.00  0.00     0.176 C 
BRANCH  14  15
HETATM   15  C11 UNL     1       3.581   0.484 -13.658  1.00  0.00     0.154 C 
BRANCH  15  16
HETATM   16  N3  UNL     1       2.921  -0.608 -14.225  1.00  0.00    -0.265 N 
HETATM   17  C7  UNL     1       3.245  -1.988 -13.737  1.00  0.00     0.199 C 
HETATM   18  C8  UNL     1       1.955  -2.738 -14.067  1.00  0.00     0.054 C 
HETATM   19  C9  UNL     1       1.034  -1.714 -14.626  1.00  0.00     0.135 C 
HETATM   20  N2  UNL     1       2.002  -0.781 -15.219  1.00  0.00    -0.116 NA
BRANCH  17  21
HETATM   21  C6  UNL     1       3.355  -1.981 -12.232  1.00  0.00     0.247 C 
HETATM   22  N1  UNL     1       4.280  -2.622 -11.468  1.00  0.00    -0.311 N 
ATOM     23  H1  UNL     1       3.834  -3.216 -10.770  1.00  0.00     0.170 HD
HETATM   24  O1  UNL     1       2.460  -1.287 -11.629  1.00  0.00    -0.271 OA
BRANCH  22  25
HETATM   25  C5  UNL     1       5.532  -2.686 -11.384  1.00  0.00     0.107 A 
HETATM   26  C4  UNL     1       6.153  -2.032 -10.300  1.00  0.00     0.049 A 
HETATM   27  C3  UNL     1       7.508  -2.047 -10.128  1.00  0.00     0.012 A 
HETATM   28  C2  UNL     1       8.341  -2.706 -11.008  1.00  0.00    -0.046 A 
HETATM   29  C1  UNL     1       9.816  -2.743 -10.852  1.00  0.00     0.049 C 
HETATM   30  C31 UNL     1       7.706  -3.337 -12.059  1.00  0.00     0.096 A 
HETATM   31  N7  UNL     1       6.371  -3.318 -12.225  1.00  0.00    -0.352 N 
ATOM     32  H7  UNL     1       5.975  -3.808 -13.027  1.00  0.00     0.166 HD
ENDBRANCH  22  25
ENDBRANCH  17  21
BRANCH  20  33
HETATM   33  S1  UNL     1       2.458  -1.256 -16.762  1.00  0.00     0.225 S 
HETATM   34  C10 UNL     1       1.242  -2.035 -17.777  1.00  0.00     0.181 C 
HETATM   35  O2  UNL     1       2.902  -0.027 -17.575  1.00  0.00    -0.210 OA
HETATM   36  O3  UNL     1       3.641  -2.217 -16.789  1.00  0.00    -0.210 OA
ENDBRANCH  20  33
ENDBRANCH  15  16
BRANCH  15  37
HETATM   37  O4  UNL     1       2.760   1.271 -12.913  1.00  0.00    -0.347 OA
ATOM     38  H4  UNL     1       2.518   2.076 -13.355  1.00  0.00     0.219 HD
ENDBRANCH  15  37
ENDBRANCH  14  15
BRANCH  14  39
HETATM   39  C13 UNL     1       6.070   0.363 -13.076  1.00  0.00     0.118 C 
BRANCH  39  40
HETATM   40  C14 UNL     1       7.354   1.033 -13.109  1.00  0.00     0.162 C 
HETATM   41  O5  UNL     1       7.815   1.584 -14.169  1.00  0.00    -0.292 OA
BRANCH  40  42
HETATM   42  C15 UNL     1       8.207   1.125 -11.925  1.00  0.00     0.011 A 
HETATM   43  C16 UNL     1       7.687   1.571 -10.745  1.00  0.00     0.017 A 
HETATM   44  C17 UNL     1       8.447   1.675  -9.604  1.00  0.00     0.031 A 
HETATM   45  C18 UNL     1       9.775   1.311  -9.683  1.00  0.00     0.046 A 
HETATM   46  C19 UNL     1      10.338   0.856 -10.857  1.00  0.00    -0.004 A 
HETATM   47  N4  UNL     1      10.706   1.322  -8.733  1.00  0.00    -0.332 N 
HETATM   48  C20 UNL     1       9.528   0.769 -11.978  1.00  0.00     0.029 A 
HETATM   49  C21 UNL     1      11.644   0.591 -10.584  1.00  0.00     0.069 A 
HETATM   50  C22 UNL     1      11.864   0.885  -9.257  1.00  0.00     0.143 A 
HETATM   51  C23 UNL     1      10.515   1.738  -7.343  1.00  0.00     0.158 C 
BRANCH  50  52
HETATM   52  O6  UNL     1      13.081   0.739  -8.621  1.00  0.00    -0.346 OA
ATOM     53  H6  UNL     1      13.268   1.059  -7.747  1.00  0.00     0.219 HD
ENDBRANCH  50  52
ENDBRANCH  40  42
ENDBRANCH  39  40
ENDBRANCH  14  39
ENDBRANCH  12  14
ENDBRANCH   9  12
ENDBRANCH   1   9
TORSDOF 13
ENDMDL
MODEL 5
REMARK VINA RESULT: -8.617783354      2.624      3.868
REMARK  13 active torsions:
REMARK  status: ('A' for Active; 'I' for Inactive)
REMARK    1  A    between atoms: C5_5  and  N1_6 
REMARK       I    between atoms: N1_6  and  C6_8 
REMARK    2  A    between atoms: C6_8  and  C7_10 
REMARK    3  A    between atoms: N2_13  and  S1_14 
REMARK    4  A    between atoms: N3_18  and  C11_19 
REMARK    5  A    between atoms: C11_19  and  O4_20 
REMARK    6  A    between atoms: C11_19  and  C12_22 
REMARK    7  A    between atoms: C12_22  and  C13_23 
REMARK    8  A    between atoms: C12_22  and  N5_38 
REMARK    9  A    between atoms: C13_23  and  C14_24 
REMARK   10  A    between atoms: C14_24  and  C15_26 
REMARK   11  A    between atoms: C22_33  and  O6_34 
REMARK   12  A    between atoms: N5_38  and  S2_40 
REMARK   13  A    between atoms: S2_40  and  C24_43 
ROOT
HETATM    1  C24 UNL     1       4.013   1.630 -17.989  1.00  0.00     0.079 A 
HETATM    2  C25 UNL     1       4.661   2.648 -17.325  1.00  0.00     0.027 A 
HETATM    3  C26 UNL     1       5.722   3.336 -17.878  1.00  0.00     0.024 A 
HETATM    4  C27 UNL     1       6.178   3.022 -19.138  1.00  0.00     0.044 A 
HETATM    5  C28 UNL     1       7.287   3.725 -19.746  1.00  0.00     0.099 C 
HETATM    6  N6  UNL     1       8.184   4.269 -20.223  1.00  0.00    -0.191 NA
HETATM    7  C29 UNL     1       5.531   1.997 -19.813  1.00  0.00     0.024 A 
HETATM    8  C30 UNL     1       4.472   1.312 -19.257  1.00  0.00     0.027 A 
ENDROOT
BRANCH   1   9
HETATM    9  S2  UNL     1       2.666   0.751 -17.320  1.00  0.00     0.259 S 
HETATM   10  O7  UNL     1       3.003  -0.715 -17.464  1.00  0.00    -0.201 OA
HETATM   11  O8  UNL     1       1.468   0.998 -18.183  1.00  0.00    -0.201 OA
BRANCH   9  12
HETATM   12  N5  UNL     1       2.371   1.147 -15.681  1.00  0.00    -0.302 N 
ATOM     13  H5  UNL     1       1.756   1.898 -15.368  1.00  0.00     0.173 HD
BRANCH  12  14
HETATM   14  C12 UNL     1       3.134   0.244 -14.773  1.00  0.00     0.176 C 
BRANCH  14  15
HETATM   15  C11 UNL     1       2.564  -1.080 -14.774  1.00  0.00     0.154 C 
BRANCH  15  16
HETATM   16  N3  UNL     1       1.312  -1.689 -14.677  1.00  0.00    -0.265 N 
HETATM   17  C7  UNL     1       0.923  -2.354 -13.391  1.00  0.00     0.199 C 
HETATM   18  C8  UNL     1      -0.602  -2.279 -13.459  1.00  0.00     0.054 C 
HETATM   19  C9  UNL     1      -0.906  -1.535 -14.709  1.00  0.00     0.135 C 
HETATM   20  N2  UNL     1       0.261  -1.896 -15.524  1.00  0.00    -0.116 NA
BRANCH  17  21
HETATM   21  C6  UNL     1       1.336  -1.486 -12.227  1.00  0.00     0.247 C 
HETATM   22  N1  UNL     1       2.308  -1.741 -11.310  1.00  0.00    -0.311 N 
ATOM     23  H1  UNL     1       1.940  -1.690 -10.360  1.00  0.00     0.170 HD
HETATM   24  O1  UNL     1       0.678  -0.391 -12.111  1.00  0.00    -0.271 OA
BRANCH  22  25
HETATM   25  C5  UNL     1       3.531  -2.023 -11.308  1.00  0.00     0.107 A 
HETATM   26  C4  UNL     1       4.338  -1.445 -10.305  1.00  0.00     0.049 A 
HETATM   27  C3  UNL     1       5.679  -1.693 -10.225  1.00  0.00     0.012 A 
HETATM   28  C2  UNL     1       6.314  -2.526 -11.123  1.00  0.00    -0.046 A 
HETATM   29  C1  UNL     1       7.768  -2.818 -11.065  1.00  0.00     0.049 C 
HETATM   30  C31 UNL     1       5.501  -3.077 -12.092  1.00  0.00     0.096 A 
HETATM   31  N7  UNL     1       4.181  -2.829 -12.168  1.00  0.00    -0.352 N 
ATOM     32  H7  UNL     1       3.646  -3.273 -12.914  1.00  0.00     0.166 HD
ENDBRANCH  22  25
ENDBRANCH  17  21
BRANCH  20  33
HETATM   33  S1  UNL     1       0.042  -3.363 -16.309  1.00  0.00     0.225 S 
HETATM   34  C10 UNL     1      -1.523  -4.161 -16.142  1.00  0.00     0.181 C 
HETATM   35  O2  UNL     1       0.214  -3.172 -17.827  1.00  0.00    -0.210 OA
HETATM   36  O3  UNL     1       1.053  -4.433 -15.912  1.00  0.00    -0.210 OA
ENDBRANCH  20  33
ENDBRANCH  15  16
BRANCH  15  37
HETATM   37  O4  UNL     1       3.582  -1.975 -14.884  1.00  0.00    -0.347 OA
ATOM     38  H4  UNL     1       3.759  -2.225 -15.784  1.00  0.00     0.219 HD
ENDBRANCH  15  37
ENDBRANCH  14  15
BRANCH  14  39
HETATM   39  C13 UNL     1       3.385   1.000 -13.531  1.00  0.00     0.118 C 
BRANCH  39  40
HETATM   40  C14 UNL     1       4.536   1.881 -13.484  1.00  0.00     0.162 C 
HETATM   41  O5  UNL     1       4.586   2.982 -14.136  1.00  0.00    -0.292 OA
BRANCH  40  42
HETATM   42  C15 UNL     1       5.717   1.564 -12.683  1.00  0.00     0.011 A 
HETATM   43  C16 UNL     1       6.779   0.928 -13.258  1.00  0.00     0.017 A 
HETATM   44  C17 UNL     1       7.911   0.609 -12.549  1.00  0.00     0.031 A 
HETATM   45  C18 UNL     1       7.950   0.953 -11.214  1.00  0.00     0.046 A 
HETATM   46  C19 UNL     1       6.898   1.595 -10.596  1.00  0.00    -0.004 A 
HETATM   47  N4  UNL     1       8.918   0.755 -10.324  1.00  0.00    -0.332 N 
HETATM   48  C20 UNL     1       5.779   1.895 -11.356  1.00  0.00     0.029 A 
HETATM   49  C21 UNL     1       7.263   1.781  -9.298  1.00  0.00     0.069 A 
HETATM   50  C22 UNL     1       8.526   1.253  -9.139  1.00  0.00     0.143 A 
HETATM   51  C23 UNL     1      10.205   0.105 -10.579  1.00  0.00     0.158 C 
BRANCH  50  52
HETATM   52  O6  UNL     1       9.224   1.259  -7.948  1.00  0.00    -0.346 OA
ATOM     53  H6  UNL     1       9.030   0.689  -7.212  1.00  0.00     0.219 HD
ENDBRANCH  50  52
ENDBRANCH  40  42
ENDBRANCH  39  40
ENDBRANCH  14  39
ENDBRANCH  12  14
ENDBRANCH   9  12
ENDBRANCH   1   9
TORSDOF 13
ENDMDL
