MODEL 1
REMARK VINA RESULT: -6.668271199      0.000      0.000
REMARK  11 active torsions:
REMARK  status: ('A' for Active; 'I' for Inactive)
REMARK    1  A    between atoms: O1_2  and  C2_3 
REMARK    2  A    between atoms: C2_3  and  C3_4 
REMARK    3  A    between atoms: C3_4  and  N1_5 
REMARK       I    between atoms: N1_5  and  C4_7 
REMARK    4  A    between atoms: C4_7  and  C5_9 
REMARK    5  A    between atoms: C5_9  and  C6_10 
REMARK    6  A    between atoms: C6_10  and  N2_11 
REMARK       I    between atoms: N2_11  and  C7_13 
REMARK       I    between atoms: C7_13  and  N3_15 
REMARK    7  A    between atoms: N3_15  and  N4_17 
REMARK       I    between atoms: N4_17  and  C8_19 
REMARK    8  A    between atoms: C8_19  and  C9_21 
REMARK    9  A    between atoms: C9_21  and  O5_22 
REMARK   10  A    between atoms: C9_21  and  C14_27 
REMARK   11  A    between atoms: O5_22  and  C10_23 
ROOT
HETATM    1  N2  UNL     1      11.454  39.667  32.431  1.00  0.00    -0.341 N 
ATOM      2  H2  UNL     1      12.175  39.084  32.856  1.00  0.00     0.164 HD
HETATM    3  C7  UNL     1      10.187  39.786  33.048  1.00  0.00     0.334 C 
HETATM    4  O3  UNL     1       9.249  40.482  32.592  1.00  0.00    -0.246 OA
HETATM    5  N3  UNL     1       9.939  39.072  34.273  1.00  0.00    -0.249 N 
ATOM      6  H3  UNL     1      10.688  38.508  34.674  1.00  0.00     0.192 HD
ENDROOT
BRANCH   5   7
HETATM    7  N4  UNL     1       8.715  39.123  34.931  1.00  0.00    -0.264 N 
HETATM    8  C8  UNL     1       8.514  38.601  36.234  1.00  0.00     0.266 C 
HETATM    9  O4  UNL     1       9.538  38.072  36.769  1.00  0.00    -0.269 OA
ATOM     10  H4  UNL     1       7.924  39.556  34.454  1.00  0.00     0.190 HD
BRANCH   8  11
HETATM   11  C9  UNL     1       7.209  38.651  36.962  1.00  0.00     0.226 C 
BRANCH  11  12
HETATM   12  O5  UNL     1       6.732  39.911  37.119  1.00  0.00    -0.366 OA
BRANCH  12  13
HETATM   13  C10 UNL     1       6.573  40.410  38.367  1.00  0.00     0.051 C 
HETATM   14  C11 UNL     1       6.912  41.900  38.483  1.00  0.00     0.045 C 
HETATM   15  C12 UNL     1       5.093  40.293  38.729  1.00  0.00     0.045 C 
HETATM   16  C13 UNL     1       7.356  39.753  39.470  1.00  0.00     0.045 C 
ENDBRANCH  12  13
ENDBRANCH  11  12
BRANCH  11  17
HETATM   17  C14 UNL     1       6.281  37.678  36.276  1.00  0.00     0.013 A 
HETATM   18  C15 UNL     1       5.604  38.280  35.051  1.00  0.00     0.020 C 
HETATM   19  C16 UNL     1       5.520  36.765  37.133  1.00  0.00     0.013 A 
HETATM   20  C17 UNL     1       5.812  36.498  38.574  1.00  0.00     0.012 C 
HETATM   21  C18 UNL     1       6.593  36.238  36.187  1.00  0.00     0.098 A 
HETATM   22 CL1  UNL     1       5.944  35.349  34.766  1.00  0.00    -0.124 Cl
ENDBRANCH  11  17
ENDBRANCH   8  11
ENDBRANCH   5   7
BRANCH   1  23
HETATM   23  C6  UNL     1      11.727  40.365  31.205  1.00  0.00     0.134 C 
BRANCH  23  24
HETATM   24  C5  UNL     1      11.244  39.653  29.975  1.00  0.00     0.122 C 
BRANCH  24  25
HETATM   25  C4  UNL     1      12.194  38.514  29.688  1.00  0.00     0.219 C 
HETATM   26  N1  UNL     1      12.565  38.310  28.355  1.00  0.00    -0.359 N 
ATOM     27  H1  UNL     1      12.148  38.948  27.678  1.00  0.00     0.162 HD
HETATM   28  O2  UNL     1      12.586  37.835  30.630  1.00  0.00    -0.274 OA
BRANCH  26  29
HETATM   29  C3  UNL     1      13.449  37.330  27.819  1.00  0.00     0.148 C 
BRANCH  29  30
HETATM   30  C2  UNL     1      14.879  37.588  28.112  1.00  0.00     0.186 C 
BRANCH  30  31
HETATM   31  O1  UNL     1      15.373  36.848  29.142  1.00  0.00    -0.394 OA
HETATM   32  C1  UNL     1      16.232  37.553  29.963  1.00  0.00     0.201 C 
ENDBRANCH  30  31
ENDBRANCH  29  30
ENDBRANCH  26  29
ENDBRANCH  24  25
ENDBRANCH  23  24
ENDBRANCH   1  23
TORSDOF 11
ENDMDL
MODEL 2
REMARK VINA RESULT: -6.320518065      1.939      3.116
REMARK  11 active torsions:
REMARK  status: ('A' for Active; 'I' for Inactive)
REMARK    1  A    between atoms: O1_2  and  C2_3 
REMARK    2  A    between atoms: C2_3  and  C3_4 
REMARK    3  A    between atoms: C3_4  and  N1_5 
REMARK       I    between atoms: N1_5  and  C4_7 
REMARK    4  A    between atoms: C4_7  and  C5_9 
REMARK    5  A    between atoms: C5_9  and  C6_10 
REMARK    6  A    between atoms: C6_10  and  N2_11 
REMARK       I    between atoms: N2_11  and  C7_13 
REMARK       I    between atoms: C7_13  and  N3_15 
REMARK    7  A    between atoms: N3_15  and  N4_17 
REMARK       I    between atoms: N4_17  and  C8_19 
REMARK    8  A    between atoms: C8_19  and  C9_21 
REMARK    9  A    between atoms: C9_21  and  O5_22 
REMARK   10  A    between atoms: C9_21  and  C14_27 
REMARK   11  A    between atoms: O5_22  and  C10_23 
ROOT
HETATM    1  N2  UNL     1      11.114  39.408  32.840  1.00  0.00    -0.341 N 
ATOM      2  H2  UNL     1      11.698  38.636  33.159  1.00  0.00     0.164 HD
HETATM    3  C7  UNL     1       9.872  39.659  33.465  1.00  0.00     0.334 C 
HETATM    4  O3  UNL     1       9.097  40.589  33.134  1.00  0.00    -0.246 OA
HETATM    5  N3  UNL     1       9.451  38.808  34.547  1.00  0.00    -0.249 N 
ATOM      6  H3  UNL     1      10.067  38.052  34.846  1.00  0.00     0.192 HD
ENDROOT
BRANCH   5   7
HETATM    7  N4  UNL     1       8.235  38.979  35.201  1.00  0.00    -0.264 N 
HETATM    8  C8  UNL     1       8.093  38.886  36.608  1.00  0.00     0.266 C 
HETATM    9  O4  UNL     1       9.164  38.629  37.244  1.00  0.00    -0.269 OA
ATOM     10  H4  UNL     1       7.407  39.180  34.641  1.00  0.00     0.190 HD
BRANCH   8  11
HETATM   11  C9  UNL     1       6.799  39.071  37.332  1.00  0.00     0.226 C 
BRANCH  11  12
HETATM   12  O5  UNL     1       6.555  38.103  38.250  1.00  0.00    -0.366 OA
BRANCH  12  13
HETATM   13  C10 UNL     1       5.387  37.421  38.202  1.00  0.00     0.051 C 
HETATM   14  C11 UNL     1       5.528  35.931  38.532  1.00  0.00     0.045 C 
HETATM   15  C12 UNL     1       4.468  37.999  39.277  1.00  0.00     0.045 C 
HETATM   16  C13 UNL     1       4.630  37.455  36.903  1.00  0.00     0.045 C 
ENDBRANCH  12  13
ENDBRANCH  11  12
BRANCH  11  17
HETATM   17  C14 UNL     1       6.782  40.488  37.853  1.00  0.00     0.013 A 
HETATM   18  C15 UNL     1       7.171  40.576  39.324  1.00  0.00     0.020 C 
HETATM   19  C16 UNL     1       5.734  41.375  37.341  1.00  0.00     0.013 A 
HETATM   20  C17 UNL     1       4.894  41.102  36.136  1.00  0.00     0.012 C 
HETATM   21  C18 UNL     1       7.201  41.628  37.016  1.00  0.00     0.098 A 
HETATM   22 CL1  UNL     1       7.904  43.049  37.864  1.00  0.00    -0.124 Cl
ENDBRANCH  11  17
ENDBRANCH   8  11
ENDBRANCH   5   7
BRANCH   1  23
HETATM   23  C6  UNL     1      11.556  40.240  31.754  1.00  0.00     0.134 C 
BRANCH  23  24
HETATM   24  C5  UNL     1      11.219  39.701  30.394  1.00  0.00     0.122 C 
BRANCH  24  25
HETATM   25  C4  UNL     1      12.194  38.593  30.073  1.00  0.00     0.219 C 
HETATM   26  N1  UNL     1      12.373  38.269  28.724  1.00  0.00    -0.359 N 
ATOM     27  H1  UNL     1      11.814  38.807  28.062  1.00  0.00     0.162 HD
HETATM   28  O2  UNL     1      12.770  38.041  31.003  1.00  0.00    -0.274 OA
BRANCH  26  29
HETATM   29  C3  UNL     1      13.233  37.288  28.152  1.00  0.00     0.148 C 
BRANCH  29  30
HETATM   30  C2  UNL     1      14.608  37.777  27.888  1.00  0.00     0.186 C 
BRANCH  30  31
HETATM   31  O1  UNL     1      15.582  37.029  28.476  1.00  0.00    -0.394 OA
HETATM   32  C1  UNL     1      15.905  37.451  29.751  1.00  0.00     0.201 C 
ENDBRANCH  30  31
ENDBRANCH  29  30
ENDBRANCH  26  29
ENDBRANCH  24  25
ENDBRANCH  23  24
ENDBRANCH   1  23
TORSDOF 11
ENDMDL
MODEL 3
REMARK VINA RESULT: -6.259673805      3.420      8.292
REMARK  11 active torsions:
REMARK  status: ('A' for Active; 'I' for Inactive)
REMARK    1  A    between atoms: O1_2  and  C2_3 
REMARK    2  A    between atoms: C2_3  and  C3_4 
REMARK    3  A    between atoms: C3_4  and  N1_5 
REMARK       I    between atoms: N1_5  and  C4_7 
REMARK    4  A    between atoms: C4_7  and  C5_9 
REMARK    5  A    between atoms: C5_9  and  C6_10 
REMARK    6  A    between atoms: C6_10  and  N2_11 
REMARK       I    between atoms: N2_11  and  C7_13 
REMARK       I    between atoms: C7_13  and  N3_15 
REMARK    7  A    between atoms: N3_15  and  N4_17 
REMARK       I    between atoms: N4_17  and  C8_19 
REMARK    8  A    between atoms: C8_19  and  C9_21 
REMARK    9  A    between atoms: C9_21  and  O5_22 
REMARK   10  A    between atoms: C9_21  and  C14_27 
REMARK   11  A    between atoms: O5_22  and  C10_23 
ROOT
HETATM    1  N2  UNL     1       7.813  36.493  35.660  1.00  0.00    -0.341 N 
ATOM      2  H2  UNL     1       8.690  36.097  36.000  1.00  0.00     0.164 HD
HETATM    3  C7  UNL     1       7.804  37.771  35.056  1.00  0.00     0.334 C 
HETATM    4  O3  UNL     1       6.771  38.326  34.610  1.00  0.00    -0.246 OA
HETATM    5  N3  UNL     1       9.041  38.496  34.939  1.00  0.00    -0.249 N 
ATOM      6  H3  UNL     1       9.899  38.063  35.281  1.00  0.00     0.192 HD
ENDROOT
BRANCH   5   7
HETATM    7  N4  UNL     1       9.112  39.765  34.374  1.00  0.00    -0.264 N 
HETATM    8  C8  UNL     1      10.152  40.167  33.499  1.00  0.00     0.266 C 
HETATM    9  O4  UNL     1      11.032  39.281  33.263  1.00  0.00    -0.269 OA
ATOM     10  H4  UNL     1       8.380  40.439  34.601  1.00  0.00     0.190 HD
BRANCH   8  11
HETATM   11  C9  UNL     1      10.244  41.523  32.877  1.00  0.00     0.226 C 
BRANCH  11  12
HETATM   12  O5  UNL     1      11.449  42.117  33.064  1.00  0.00    -0.366 OA
BRANCH  12  13
HETATM   13  C10 UNL     1      11.498  43.400  33.494  1.00  0.00     0.051 C 
HETATM   14  C11 UNL     1      10.408  43.750  34.513  1.00  0.00     0.045 C 
HETATM   15  C12 UNL     1      12.826  43.593  34.225  1.00  0.00     0.045 C 
HETATM   16  C13 UNL     1      11.404  44.474  32.447  1.00  0.00     0.045 C 
ENDBRANCH  12  13
ENDBRANCH  11  12
BRANCH  11  17
HETATM   17  C14 UNL     1       9.798  41.383  31.441  1.00  0.00     0.013 A 
HETATM   18  C15 UNL     1      10.965  41.187  30.481  1.00  0.00     0.020 C 
HETATM   19  C16 UNL     1       8.656  42.196  31.016  1.00  0.00     0.013 A 
HETATM   20  C17 UNL     1       7.712  42.898  31.937  1.00  0.00     0.012 C 
HETATM   21  C18 UNL     1       8.553  40.677  31.081  1.00  0.00     0.098 A 
HETATM   22 CL1  UNL     1       8.506  39.876  29.472  1.00  0.00    -0.124 Cl
ENDBRANCH  11  17
ENDBRANCH   8  11
ENDBRANCH   5   7
BRANCH   1  23
HETATM   23  C6  UNL     1       6.591  35.749  35.794  1.00  0.00     0.134 C 
BRANCH  23  24
HETATM   24  C5  UNL     1       6.072  35.674  37.200  1.00  0.00     0.122 C 
BRANCH  24  25
HETATM   25  C4  UNL     1       6.124  37.063  37.795  1.00  0.00     0.219 C 
HETATM   26  N1  UNL     1       7.216  37.368  38.612  1.00  0.00    -0.359 N 
ATOM     27  H1  UNL     1       7.889  36.615  38.751  1.00  0.00     0.162 HD
HETATM   28  O2  UNL     1       5.214  37.840  37.530  1.00  0.00    -0.274 OA
BRANCH  26  29
HETATM   29  C3  UNL     1       7.514  38.593  39.277  1.00  0.00     0.148 C 
BRANCH  29  30
HETATM   30  C2  UNL     1       8.505  39.435  38.566  1.00  0.00     0.186 C 
BRANCH  30  31
HETATM   31  O1  UNL     1       8.053  39.942  37.386  1.00  0.00    -0.394 OA
HETATM   32  C1  UNL     1       7.135  40.963  37.543  1.00  0.00     0.201 C 
ENDBRANCH  30  31
ENDBRANCH  29  30
ENDBRANCH  26  29
ENDBRANCH  24  25
ENDBRANCH  23  24
ENDBRANCH   1  23
TORSDOF 11
ENDMDL
MODEL 4
REMARK VINA RESULT: -6.209329119      3.614      8.457
REMARK  11 active torsions:
REMARK  status: ('A' for Active; 'I' for Inactive)
REMARK    1  A    between atoms: O1_2  and  C2_3 
REMARK    2  A    between atoms: C2_3  and  C3_4 
REMARK    3  A    between atoms: C3_4  and  N1_5 
REMARK       I    between atoms: N1_5  and  C4_7 
REMARK    4  A    between atoms: C4_7  and  C5_9 
REMARK    5  A    between atoms: C5_9  and  C6_10 
REMARK    6  A    between atoms: C6_10  and  N2_11 
REMARK       I    between atoms: N2_11  and  C7_13 
REMARK       I    between atoms: C7_13  and  N3_15 
REMARK    7  A    between atoms: N3_15  and  N4_17 
REMARK       I    between atoms: N4_17  and  C8_19 
REMARK    8  A    between atoms: C8_19  and  C9_21 
REMARK    9  A    between atoms: C9_21  and  O5_22 
REMARK   10  A    between atoms: C9_21  and  C14_27 
REMARK   11  A    between atoms: O5_22  and  C10_23 
ROOT
HETATM    1  N2  UNL     1       8.063  37.304  36.664  1.00  0.00    -0.341 N 
ATOM      2  H2  UNL     1       8.719  36.570  36.398  1.00  0.00     0.164 HD
HETATM    3  C7  UNL     1       8.077  38.543  35.984  1.00  0.00     0.334 C 
HETATM    4  O3  UNL     1       7.303  39.495  36.247  1.00  0.00    -0.246 OA
HETATM    5  N3  UNL     1       9.028  38.746  34.923  1.00  0.00    -0.249 N 
ATOM      6  H3  UNL     1       9.661  37.984  34.678  1.00  0.00     0.192 HD
ENDROOT
BRANCH   5   7
HETATM    7  N4  UNL     1       9.117  39.941  34.218  1.00  0.00    -0.264 N 
HETATM    8  C8  UNL     1      10.212  40.266  33.379  1.00  0.00     0.266 C 
HETATM    9  O4  UNL     1      11.124  39.383  33.313  1.00  0.00    -0.269 OA
ATOM     10  H4  UNL     1       8.358  40.617  34.309  1.00  0.00     0.190 HD
BRANCH   8  11
HETATM   11  C9  UNL     1      10.325  41.541  32.607  1.00  0.00     0.226 C 
BRANCH  11  12
HETATM   12  O5  UNL     1      11.518  42.165  32.776  1.00  0.00    -0.366 OA
BRANCH  12  13
HETATM   13  C10 UNL     1      11.553  43.379  33.375  1.00  0.00     0.051 C 
HETATM   14  C11 UNL     1      12.833  43.633  34.178  1.00  0.00     0.045 C 
HETATM   15  C12 UNL     1      11.537  44.439  32.274  1.00  0.00     0.045 C 
HETATM   16  C13 UNL     1      10.434  43.705  34.324  1.00  0.00     0.045 C 
ENDBRANCH  12  13
ENDBRANCH  11  12
BRANCH  11  17
HETATM   17  C14 UNL     1       9.943  41.231  31.179  1.00  0.00     0.013 A 
HETATM   18  C15 UNL     1      11.125  40.742  30.351  1.00  0.00     0.020 C 
HETATM   19  C16 UNL     1       8.946  42.102  30.552  1.00  0.00     0.013 A 
HETATM   20  C17 UNL     1       8.057  43.054  31.283  1.00  0.00     0.012 C 
HETATM   21  C18 UNL     1       8.637  40.637  30.837  1.00  0.00     0.098 A 
HETATM   22 CL1  UNL     1       8.571  39.604  29.368  1.00  0.00    -0.124 Cl
ENDBRANCH  11  17
ENDBRANCH   8  11
ENDBRANCH   5   7
BRANCH   1  23
HETATM   23  C6  UNL     1       7.126  37.078  37.731  1.00  0.00     0.134 C 
BRANCH  23  24
HETATM   24  C5  UNL     1       5.895  36.328  37.314  1.00  0.00     0.122 C 
BRANCH  24  25
HETATM   25  C4  UNL     1       6.330  35.090  36.565  1.00  0.00     0.219 C 
HETATM   26  N1  UNL     1       6.292  33.876  37.257  1.00  0.00    -0.359 N 
ATOM     27  H1  UNL     1       5.982  33.930  38.228  1.00  0.00     0.162 HD
HETATM   28  O2  UNL     1       6.689  35.215  35.400  1.00  0.00    -0.274 OA
BRANCH  26  29
HETATM   29  C3  UNL     1       6.629  32.574  36.788  1.00  0.00     0.148 C 
BRANCH  29  30
HETATM   30  C2  UNL     1       5.509  31.869  36.119  1.00  0.00     0.186 C 
BRANCH  30  31
HETATM   31  O1  UNL     1       5.265  32.301  34.852  1.00  0.00    -0.394 OA
HETATM   32  C1  UNL     1       3.961  32.711  34.652  1.00  0.00     0.201 C 
ENDBRANCH  30  31
ENDBRANCH  29  30
ENDBRANCH  26  29
ENDBRANCH  24  25
ENDBRANCH  23  24
ENDBRANCH   1  23
TORSDOF 11
ENDMDL
MODEL 5
REMARK VINA RESULT: -6.062323567      2.151      3.530
REMARK  11 active torsions:
REMARK  status: ('A' for Active; 'I' for Inactive)
REMARK    1  A    between atoms: O1_2  and  C2_3 
REMARK    2  A    between atoms: C2_3  and  C3_4 
REMARK    3  A    between atoms: C3_4  and  N1_5 
REMARK       I    between atoms: N1_5  and  C4_7 
REMARK    4  A    between atoms: C4_7  and  C5_9 
REMARK    5  A    between atoms: C5_9  and  C6_10 
REMARK    6  A    between atoms: C6_10  and  N2_11 
REMARK       I    between atoms: N2_11  and  C7_13 
REMARK       I    between atoms: C7_13  and  N3_15 
REMARK    7  A    between atoms: N3_15  and  N4_17 
REMARK       I    between atoms: N4_17  and  C8_19 
REMARK    8  A    between atoms: C8_19  and  C9_21 
REMARK    9  A    between atoms: C9_21  and  O5_22 
REMARK   10  A    between atoms: C9_21  and  C14_27 
REMARK   11  A    between atoms: O5_22  and  C10_23 
ROOT
HETATM    1  N2  UNL     1       9.583  40.943  32.811  1.00  0.00    -0.341 N 
ATOM      2  H2  UNL     1       8.847  41.558  32.463  1.00  0.00     0.164 HD
HETATM    3  C7  UNL     1       9.290  39.986  33.809  1.00  0.00     0.334 C 
HETATM    4  O3  UNL     1      10.135  39.192  34.287  1.00  0.00    -0.246 OA
HETATM    5  N3  UNL     1       7.947  39.902  34.321  1.00  0.00    -0.249 N 
ATOM      6  H3  UNL     1       7.236  40.526  33.941  1.00  0.00     0.192 HD
ENDROOT
BRANCH   5   7
HETATM    7  N4  UNL     1       7.584  39.000  35.315  1.00  0.00    -0.264 N 
HETATM    8  C8  UNL     1       6.341  39.056  35.995  1.00  0.00     0.266 C 
HETATM    9  O4  UNL     1       5.569  40.000  35.634  1.00  0.00    -0.269 OA
ATOM     10  H4  UNL     1       8.243  38.263  35.568  1.00  0.00     0.190 HD
BRANCH   8  11
HETATM   11  C9  UNL     1       5.926  38.093  37.061  1.00  0.00     0.226 C 
BRANCH  11  12
HETATM   12  O5  UNL     1       6.355  36.826  36.834  1.00  0.00    -0.366 OA
BRANCH  12  13
HETATM   13  C10 UNL     1       5.460  35.878  36.471  1.00  0.00     0.051 C 
HETATM   14  C11 UNL     1       5.902  35.043  35.264  1.00  0.00     0.045 C 
HETATM   15  C12 UNL     1       5.331  34.892  37.631  1.00  0.00     0.045 C 
HETATM   16  C13 UNL     1       4.073  36.345  36.126  1.00  0.00     0.045 C 
ENDBRANCH  12  13
ENDBRANCH  11  12
BRANCH  11  17
HETATM   17  C14 UNL     1       6.333  38.697  38.384  1.00  0.00     0.013 A 
HETATM   18  C15 UNL     1       7.784  38.401  38.742  1.00  0.00     0.020 C 
HETATM   19  C16 UNL     1       5.326  38.708  39.448  1.00  0.00     0.013 A 
HETATM   20  C17 UNL     1       3.864  38.472  39.249  1.00  0.00     0.012 C 
HETATM   21  C18 UNL     1       5.823  40.008  38.828  1.00  0.00     0.098 A 
HETATM   22 CL1  UNL     1       6.888  40.974  39.908  1.00  0.00    -0.124 Cl
ENDBRANCH  11  17
ENDBRANCH   8  11
ENDBRANCH   5   7
BRANCH   1  23
HETATM   23  C6  UNL     1      10.916  41.051  32.285  1.00  0.00     0.134 C 
BRANCH  23  24
HETATM   24  C5  UNL     1      11.051  40.597  30.861  1.00  0.00     0.122 C 
BRANCH  24  25
HETATM   25  C4  UNL     1      11.803  39.287  30.855  1.00  0.00     0.219 C 
HETATM   26  N1  UNL     1      12.164  38.761  29.610  1.00  0.00    -0.359 N 
ATOM     27  H1  UNL     1      11.874  39.307  28.799  1.00  0.00     0.162 HD
HETATM   28  O2  UNL     1      12.056  38.760  31.932  1.00  0.00    -0.274 OA
BRANCH  26  29
HETATM   29  C3  UNL     1      12.883  37.565  29.325  1.00  0.00     0.148 C 
BRANCH  29  30
HETATM   30  C2  UNL     1      14.232  37.515  29.939  1.00  0.00     0.186 C 
BRANCH  30  31
HETATM   31  O1  UNL     1      15.216  37.139  29.077  1.00  0.00    -0.394 OA
HETATM   32  C1  UNL     1      15.017  37.588  27.786  1.00  0.00     0.201 C 
ENDBRANCH  30  31
ENDBRANCH  29  30
ENDBRANCH  26  29
ENDBRANCH  24  25
ENDBRANCH  23  24
ENDBRANCH   1  23
TORSDOF 11
ENDMDL
