MODEL 1
REMARK VINA RESULT: -4.530644343      0.000      0.000
REMARK  1 active torsions:
REMARK  status: ('A' for Active; 'I' for Inactive)
REMARK    1  A    between atoms: C1_2  and  C2_4 
ROOT
HETATM    1  C2  UNL     1     -12.542  27.507  44.353  1.00  0.00     0.097 A 
HETATM    2  C3  UNL     1     -12.061  27.897  45.417  1.00  0.00    -0.017 A 
HETATM    3  C4  UNL     1     -12.224  27.918  46.156  1.00  0.00    -0.030 A 
HETATM    4  C5  UNL     1     -13.107  27.582  46.951  1.00  0.00     0.028 A 
HETATM    5  C6  UNL     1     -13.905  26.951  45.423  1.00  0.00     0.021 A 
ENDROOT
BRANCH   1   6
HETATM    6  C1  UNL     1     -13.319  28.334  43.405  1.00  0.00     0.238 C 
HETATM    7  N1  UNL     1     -14.212  29.374  43.758  1.00  0.00    -0.062 NA
HETATM    8  O1  UNL     1     -13.167  28.084  42.184  1.00  0.00    -0.276 OA
ENDBRANCH   1   6
TORSDOF 1
ENDMDL
MODEL 2
REMARK VINA RESULT: -4.499220713      1.499      1.842
REMARK  1 active torsions:
REMARK  status: ('A' for Active; 'I' for Inactive)
REMARK    1  A    between atoms: C1_2  and  C2_4 
ROOT
HETATM    1  C2  UNL     1     -13.602  28.557  44.313  1.00  0.00     0.097 A 
HETATM    2  C3  UNL     1     -14.328  28.244  45.256  1.00  0.00    -0.017 A 
HETATM    3  C4  UNL     1     -14.389  27.714  45.793  1.00  0.00    -0.030 A 
HETATM    4  C5  UNL     1     -13.820  26.697  46.201  1.00  0.00     0.028 A 
HETATM    5  C6  UNL     1     -12.666  27.084  44.827  1.00  0.00     0.021 A 
ENDROOT
BRANCH   1   6
HETATM    6  C1  UNL     1     -13.830  28.200  42.896  1.00  0.00     0.238 C 
HETATM    7  N1  UNL     1     -12.837  28.149  41.888  1.00  0.00    -0.062 NA
HETATM    8  O1  UNL     1     -15.009  27.919  42.568  1.00  0.00    -0.276 OA
ENDBRANCH   1   6
TORSDOF 1
ENDMDL
MODEL 3
REMARK VINA RESULT: -4.363902566      1.645      2.000
REMARK  1 active torsions:
REMARK  status: ('A' for Active; 'I' for Inactive)
REMARK    1  A    between atoms: C1_2  and  C2_4 
ROOT
HETATM    1  C2  UNL     1     -13.760  27.112  45.148  1.00  0.00     0.097 A 
HETATM    2  C3  UNL     1     -12.592  26.862  44.850  1.00  0.00    -0.017 A 
HETATM    3  C4  UNL     1     -11.892  26.946  45.124  1.00  0.00    -0.030 A 
HETATM    4  C5  UNL     1     -11.296  27.402  46.105  1.00  0.00     0.028 A 
HETATM    5  C6  UNL     1     -13.001  27.807  46.649  1.00  0.00     0.021 A 
ENDROOT
BRANCH   1   6
HETATM    6  C1  UNL     1     -14.525  28.300  44.710  1.00  0.00     0.238 C 
HETATM    7  N1  UNL     1     -14.097  29.248  43.750  1.00  0.00    -0.062 NA
HETATM    8  O1  UNL     1     -15.649  28.473  45.241  1.00  0.00    -0.276 OA
ENDBRANCH   1   6
TORSDOF 1
ENDMDL
MODEL 4
REMARK VINA RESULT: -4.360759299      1.263      1.632
REMARK  1 active torsions:
REMARK  status: ('A' for Active; 'I' for Inactive)
REMARK    1  A    between atoms: C1_2  and  C2_4 
ROOT
HETATM    1  C2  UNL     1     -13.583  28.617  44.283  1.00  0.00     0.097 A 
HETATM    2  C3  UNL     1     -14.284  28.381  45.267  1.00  0.00    -0.017 A 
HETATM    3  C4  UNL     1     -14.360  27.867  45.817  1.00  0.00    -0.030 A 
HETATM    4  C5  UNL     1     -13.855  26.815  46.220  1.00  0.00     0.028 A 
HETATM    5  C6  UNL     1     -12.744  27.081  44.784  1.00  0.00     0.021 A 
ENDROOT
BRANCH   1   6
HETATM    6  C1  UNL     1     -13.908  28.253  42.887  1.00  0.00     0.238 C 
HETATM    7  N1  UNL     1     -15.193  27.916  42.400  1.00  0.00    -0.062 NA
HETATM    8  O1  UNL     1     -12.954  28.245  42.070  1.00  0.00    -0.276 OA
ENDBRANCH   1   6
TORSDOF 1
ENDMDL
MODEL 5
REMARK VINA RESULT: -4.342470814      1.469      1.928
REMARK  1 active torsions:
REMARK  status: ('A' for Active; 'I' for Inactive)
REMARK    1  A    between atoms: C1_2  and  C2_4 
ROOT
HETATM    1  C2  UNL     1     -13.715  27.842  45.215  1.00  0.00     0.097 A 
HETATM    2  C3  UNL     1     -13.393  26.672  45.419  1.00  0.00    -0.017 A 
HETATM    3  C4  UNL     1     -12.791  26.261  45.622  1.00  0.00    -0.030 A 
HETATM    4  C5  UNL     1     -11.603  26.394  45.932  1.00  0.00     0.028 A 
HETATM    5  C6  UNL     1     -11.983  28.170  45.668  1.00  0.00     0.021 A 
ENDROOT
BRANCH   1   6
HETATM    6  C1  UNL     1     -13.736  28.512  43.897  1.00  0.00     0.238 C 
HETATM    7  N1  UNL     1     -13.114  28.036  42.719  1.00  0.00    -0.062 NA
HETATM    8  O1  UNL     1     -14.363  29.599  43.828  1.00  0.00    -0.276 OA
ENDBRANCH   1   6
TORSDOF 1
ENDMDL
