MODEL 1
REMARK VINA RESULT: -7.459055229      0.000      0.000
REMARK  6 active torsions:
REMARK  status: ('A' for Active; 'I' for Inactive)
REMARK    1  A    between atoms: C2_2  and  C4_5 
REMARK    2  A    between atoms: C5_6  and  C6_7 
REMARK    3  A    between atoms: C6_7  and  C7_8 
REMARK    4  A    between atoms: C10_11  and  C11_12 
REMARK    5  A    between atoms: C11_12  and  C12_13 
REMARK    6  A    between atoms: N2_15  and  O1_17 
ROOT
HETATM    1  C1  UNL     1      25.744  49.270  -0.543  1.00  0.00     0.031 C 
HETATM    2  C2  UNL     1      25.940  49.887  -1.694  1.00  0.00     0.024 C 
HETATM    3  C3  UNL     1      25.004  49.625  -2.752  1.00  0.00     0.095 C 
HETATM    4  N1  UNL     1      24.242  49.399  -3.592  1.00  0.00    -0.192 NA
ENDROOT
BRANCH   2   5
HETATM    5  C4  UNL     1      27.102  50.792  -1.805  1.00  0.00     0.092 C 
HETATM    6  C5  UNL     1      26.772  52.248  -1.454  1.00  0.00    -0.057 C 
HETATM    7  C10 UNL     1      26.747  53.187  -2.598  1.00  0.00     0.120 C 
HETATM    8  C14 UNL     1      26.647  52.396  -3.904  1.00  0.00     0.268 C 
HETATM    9  O2  UNL     1      25.757  52.571  -4.761  1.00  0.00    -0.264 OA
HETATM   10  O3  UNL     1      27.620  51.446  -4.098  1.00  0.00    -0.309 OA
HETATM   11  C15 UNL     1      27.937  50.609  -3.023  1.00  0.00     0.075 C 
HETATM   12  C16 UNL     1      27.744  49.154  -3.469  1.00  0.00     0.047 C 
HETATM   13  C17 UNL     1      29.413  50.763  -2.745  1.00  0.00     0.047 C 
BRANCH   6  14
HETATM   14  C6  UNL     1      27.472  52.596  -0.216  1.00  0.00    -0.018 C 
BRANCH  14  15
HETATM   15  C7  UNL     1      26.936  52.500   1.126  1.00  0.00     0.000 C 
HETATM   16  C8  UNL     1      26.820  53.783   1.900  1.00  0.00     0.013 C 
HETATM   17  C9  UNL     1      27.849  51.596   1.994  1.00  0.00     0.013 C 
ENDBRANCH  14  15
ENDBRANCH   6  14
BRANCH   7  18
HETATM   18  C11 UNL     1      25.469  54.027  -2.621  1.00  0.00     0.073 C 
BRANCH  18  19
HETATM   19  C12 UNL     1      25.748  55.447  -2.786  1.00  0.00     0.007 C 
HETATM   20  C13 UNL     1      25.741  56.029  -4.183  1.00  0.00     0.065 C 
HETATM   21  N2  UNL     1      25.970  56.302  -1.854  1.00  0.00    -0.278 N 
ATOM     22  H2  UNL     1      25.954  55.966  -0.891  1.00  0.00     0.193 HD
BRANCH  21  23
HETATM   23  O1  UNL     1      26.229  57.632  -2.060  1.00  0.00    -0.290 OA
ATOM     24  H1  UNL     1      27.041  57.977  -2.411  1.00  0.00     0.244 HD
ENDBRANCH  21  23
ENDBRANCH  18  19
ENDBRANCH   7  18
ENDBRANCH   2   5
TORSDOF 6
ENDMDL
MODEL 2
REMARK VINA RESULT: -7.449426944      1.109      1.330
REMARK  6 active torsions:
REMARK  status: ('A' for Active; 'I' for Inactive)
REMARK    1  A    between atoms: C2_2  and  C4_5 
REMARK    2  A    between atoms: C5_6  and  C6_7 
REMARK    3  A    between atoms: C6_7  and  C7_8 
REMARK    4  A    between atoms: C10_11  and  C11_12 
REMARK    5  A    between atoms: C11_12  and  C12_13 
REMARK    6  A    between atoms: N2_15  and  O1_17 
ROOT
HETATM    1  C1  UNL     1      24.542  50.524  -2.749  1.00  0.00     0.031 C 
HETATM    2  C2  UNL     1      25.613  50.307  -2.006  1.00  0.00     0.024 C 
HETATM    3  C3  UNL     1      25.500  49.336  -0.954  1.00  0.00     0.095 C 
HETATM    4  N1  UNL     1      25.389  48.552  -0.111  1.00  0.00    -0.192 NA
ENDROOT
BRANCH   2   5
HETATM    5  C4  UNL     1      26.834  51.078  -2.311  1.00  0.00     0.092 C 
HETATM    6  C5  UNL     1      26.626  52.596  -2.241  1.00  0.00    -0.057 C 
HETATM    7  C10 UNL     1      26.634  53.298  -3.544  1.00  0.00     0.120 C 
HETATM    8  C14 UNL     1      26.431  52.283  -4.671  1.00  0.00     0.268 C 
HETATM    9  O2  UNL     1      25.528  52.362  -5.529  1.00  0.00    -0.264 OA
HETATM   10  O3  UNL     1      27.323  51.238  -4.695  1.00  0.00    -0.309 OA
HETATM   11  C15 UNL     1      27.612  50.599  -3.486  1.00  0.00     0.075 C 
HETATM   12  C16 UNL     1      27.296  49.106  -3.639  1.00  0.00     0.047 C 
HETATM   13  C17 UNL     1      29.103  50.685  -3.270  1.00  0.00     0.047 C 
BRANCH   6  14
HETATM   14  C6  UNL     1      27.392  53.117  -1.107  1.00  0.00    -0.018 C 
BRANCH  14  15
HETATM   15  C7  UNL     1      26.897  53.318   0.239  1.00  0.00     0.000 C 
HETATM   16  C8  UNL     1      27.525  54.431   1.031  1.00  0.00     0.013 C 
HETATM   17  C9  UNL     1      27.141  52.044   1.087  1.00  0.00     0.013 C 
ENDBRANCH  14  15
ENDBRANCH   6  14
BRANCH   7  18
HETATM   18  C11 UNL     1      25.422  54.218  -3.705  1.00  0.00     0.073 C 
BRANCH  18  19
HETATM   19  C12 UNL     1      25.744  55.607  -3.407  1.00  0.00     0.007 C 
HETATM   20  C13 UNL     1      25.984  56.558  -4.559  1.00  0.00     0.065 C 
HETATM   21  N2  UNL     1      25.814  56.149  -2.245  1.00  0.00    -0.278 N 
ATOM     22  H2  UNL     1      25.628  55.556  -1.435  1.00  0.00     0.193 HD
BRANCH  21  23
HETATM   23  O1  UNL     1      26.121  57.464  -2.014  1.00  0.00    -0.290 OA
ATOM     24  H1  UNL     1      25.529  58.098  -1.628  1.00  0.00     0.244 HD
ENDBRANCH  21  23
ENDBRANCH  18  19
ENDBRANCH   7  18
ENDBRANCH   2   5
TORSDOF 6
ENDMDL
MODEL 3
REMARK VINA RESULT: -7.397771474      3.149      5.279
REMARK  6 active torsions:
REMARK  status: ('A' for Active; 'I' for Inactive)
REMARK    1  A    between atoms: C2_2  and  C4_5 
REMARK    2  A    between atoms: C5_6  and  C6_7 
REMARK    3  A    between atoms: C6_7  and  C7_8 
REMARK    4  A    between atoms: C10_11  and  C11_12 
REMARK    5  A    between atoms: C11_12  and  C12_13 
REMARK    6  A    between atoms: N2_15  and  O1_17 
ROOT
HETATM    1  C1  UNL     1      28.715  50.000  -2.764  1.00  0.00     0.031 C 
HETATM    2  C2  UNL     1      27.870  50.861  -3.303  1.00  0.00     0.024 C 
HETATM    3  C3  UNL     1      28.275  51.512  -4.518  1.00  0.00     0.095 C 
HETATM    4  N1  UNL     1      28.620  52.027  -5.494  1.00  0.00    -0.192 NA
ENDROOT
BRANCH   2   5
HETATM    5  C4  UNL     1      26.582  51.087  -2.617  1.00  0.00     0.092 C 
HETATM    6  C5  UNL     1      26.669  50.920  -1.095  1.00  0.00    -0.057 C 
HETATM    7  C10 UNL     1      26.009  49.711  -0.551  1.00  0.00     0.120 C 
HETATM    8  C14 UNL     1      25.764  48.712  -1.684  1.00  0.00     0.268 C 
HETATM    9  O2  UNL     1      26.168  47.531  -1.674  1.00  0.00    -0.264 OA
HETATM   10  O3  UNL     1      25.051  49.193  -2.755  1.00  0.00    -0.309 OA
HETATM   11  C15 UNL     1      25.399  50.451  -3.257  1.00  0.00     0.075 C 
HETATM   12  C16 UNL     1      25.738  50.301  -4.746  1.00  0.00     0.047 C 
HETATM   13  C17 UNL     1      24.168  51.321  -3.200  1.00  0.00     0.047 C 
BRANCH   6  14
HETATM   14  C6  UNL     1      26.461  52.229  -0.472  1.00  0.00    -0.018 C 
BRANCH  14  15
HETATM   15  C7  UNL     1      27.368  53.356  -0.528  1.00  0.00     0.000 C 
HETATM   16  C8  UNL     1      27.861  53.893   0.786  1.00  0.00     0.013 C 
HETATM   17  C9  UNL     1      26.670  54.560  -1.210  1.00  0.00     0.013 C 
ENDBRANCH  14  15
ENDBRANCH   6  14
BRANCH   7  18
HETATM   18  C11 UNL     1      26.932  48.929   0.386  1.00  0.00     0.073 C 
BRANCH  18  19
HETATM   19  C12 UNL     1      26.488  48.991   1.771  1.00  0.00     0.007 C 
HETATM   20  C13 UNL     1      26.979  50.129   2.639  1.00  0.00     0.065 C 
HETATM   21  N2  UNL     1      25.672  48.190   2.356  1.00  0.00    -0.278 N 
ATOM     22  H2  UNL     1      25.286  47.423   1.804  1.00  0.00     0.193 HD
BRANCH  21  23
HETATM   23  O1  UNL     1      25.284  48.290   3.666  1.00  0.00    -0.290 OA
ATOM     24  H1  UNL     1      24.858  47.598   4.158  1.00  0.00     0.244 HD
ENDBRANCH  21  23
ENDBRANCH  18  19
ENDBRANCH   7  18
ENDBRANCH   2   5
TORSDOF 6
ENDMDL
MODEL 4
REMARK VINA RESULT: -7.082975095      2.680      4.819
REMARK  6 active torsions:
REMARK  status: ('A' for Active; 'I' for Inactive)
REMARK    1  A    between atoms: C2_2  and  C4_5 
REMARK    2  A    between atoms: C5_6  and  C6_7 
REMARK    3  A    between atoms: C6_7  and  C7_8 
REMARK    4  A    between atoms: C10_11  and  C11_12 
REMARK    5  A    between atoms: C11_12  and  C12_13 
REMARK    6  A    between atoms: N2_15  and  O1_17 
ROOT
HETATM    1  C1  UNL     1      27.794  50.133  -4.543  1.00  0.00     0.031 C 
HETATM    2  C2  UNL     1      27.812  51.454  -4.504  1.00  0.00     0.024 C 
HETATM    3  C3  UNL     1      28.634  52.131  -5.467  1.00  0.00     0.095 C 
HETATM    4  N1  UNL     1      29.303  52.659  -6.249  1.00  0.00    -0.192 NA
ENDROOT
BRANCH   2   5
HETATM    5  C4  UNL     1      26.992  52.126  -3.478  1.00  0.00     0.092 C 
HETATM    6  C5  UNL     1      26.944  51.367  -2.145  1.00  0.00    -0.057 C 
HETATM    7  C10 UNL     1      25.651  50.718  -1.831  1.00  0.00     0.120 C 
HETATM    8  C14 UNL     1      24.810  50.615  -3.104  1.00  0.00     0.268 C 
HETATM    9  O2  UNL     1      24.335  49.548  -3.544  1.00  0.00    -0.264 OA
HETATM   10  O3  UNL     1      24.592  51.798  -3.769  1.00  0.00    -0.309 OA
HETATM   11  C15 UNL     1      25.683  52.653  -3.952  1.00  0.00     0.075 C 
HETATM   12  C16 UNL     1      25.841  52.921  -5.454  1.00  0.00     0.047 C 
HETATM   13  C17 UNL     1      25.330  53.982  -3.330  1.00  0.00     0.047 C 
BRANCH   6  14
HETATM   14  C6  UNL     1      27.650  52.158  -1.136  1.00  0.00    -0.018 C 
BRANCH  14  15
HETATM   15  C7  UNL     1      27.039  52.925  -0.070  1.00  0.00     0.000 C 
HETATM   16  C8  UNL     1      27.174  54.420  -0.151  1.00  0.00     0.013 C 
HETATM   17  C9  UNL     1      27.681  52.544   1.288  1.00  0.00     0.013 C 
ENDBRANCH  14  15
ENDBRANCH   6  14
BRANCH   7  18
HETATM   18  C11 UNL     1      25.829  49.252  -1.431  1.00  0.00     0.073 C 
BRANCH  18  19
HETATM   19  C12 UNL     1      25.953  49.087   0.010  1.00  0.00     0.007 C 
HETATM   20  C13 UNL     1      26.910  48.042   0.539  1.00  0.00     0.065 C 
HETATM   21  N2  UNL     1      25.355  49.770   0.918  1.00  0.00    -0.278 N 
ATOM     22  H2  UNL     1      24.723  50.511   0.613  1.00  0.00     0.193 HD
BRANCH  21  23
HETATM   23  O1  UNL     1      25.505  49.577   2.266  1.00  0.00    -0.290 OA
ATOM     24  H1  UNL     1      25.546  48.727   2.689  1.00  0.00     0.244 HD
ENDBRANCH  21  23
ENDBRANCH  18  19
ENDBRANCH   7  18
ENDBRANCH   2   5
TORSDOF 6
ENDMDL
MODEL 5
REMARK VINA RESULT: -7.069701224      1.726      2.108
REMARK  6 active torsions:
REMARK  status: ('A' for Active; 'I' for Inactive)
REMARK    1  A    between atoms: C2_2  and  C4_5 
REMARK    2  A    between atoms: C5_6  and  C6_7 
REMARK    3  A    between atoms: C6_7  and  C7_8 
REMARK    4  A    between atoms: C10_11  and  C11_12 
REMARK    5  A    between atoms: C11_12  and  C12_13 
REMARK    6  A    between atoms: N2_15  and  O1_17 
ROOT
HETATM    1  C1  UNL     1      24.500  50.458  -2.867  1.00  0.00     0.031 C 
HETATM    2  C2  UNL     1      25.557  50.253  -2.101  1.00  0.00     0.024 C 
HETATM    3  C3  UNL     1      25.419  49.313  -1.024  1.00  0.00     0.095 C 
HETATM    4  N1  UNL     1      25.288  48.555  -0.161  1.00  0.00    -0.192 NA
ENDROOT
BRANCH   2   5
HETATM    5  C4  UNL     1      26.790  51.005  -2.408  1.00  0.00     0.092 C 
HETATM    6  C5  UNL     1      26.551  52.508  -2.605  1.00  0.00    -0.057 C 
HETATM    7  C10 UNL     1      26.677  52.992  -3.998  1.00  0.00     0.120 C 
HETATM    8  C14 UNL     1      26.605  51.805  -4.959  1.00  0.00     0.268 C 
HETATM    9  O2  UNL     1      25.792  51.716  -5.902  1.00  0.00    -0.264 OA
HETATM   10  O3  UNL     1      27.513  50.799  -4.729  1.00  0.00    -0.309 OA
HETATM   11  C15 UNL     1      27.690  50.371  -3.410  1.00  0.00     0.075 C 
HETATM   12  C16 UNL     1      27.415  48.863  -3.349  1.00  0.00     0.047 C 
HETATM   13  C17 UNL     1      29.150  50.538  -3.068  1.00  0.00     0.047 C 
BRANCH   6  14
HETATM   14  C6  UNL     1      27.190  53.227  -1.501  1.00  0.00    -0.018 C 
BRANCH  14  15
HETATM   15  C7  UNL     1      26.564  54.213  -0.646  1.00  0.00     0.000 C 
HETATM   16  C8  UNL     1      26.378  55.588  -1.225  1.00  0.00     0.013 C 
HETATM   17  C9  UNL     1      27.424  54.432   0.624  1.00  0.00     0.013 C 
ENDBRANCH  14  15
ENDBRANCH   6  14
BRANCH   7  18
HETATM   18  C11 UNL     1      25.473  53.835  -4.421  1.00  0.00     0.073 C 
BRANCH  18  19
HETATM   19  C12 UNL     1      25.869  55.128  -4.961  1.00  0.00     0.007 C 
HETATM   20  C13 UNL     1      26.887  55.165  -6.079  1.00  0.00     0.065 C 
HETATM   21  N2  UNL     1      25.416  56.279  -4.615  1.00  0.00    -0.278 N 
ATOM     22  H2  UNL     1      24.702  56.306  -3.887  1.00  0.00     0.193 HD
BRANCH  21  23
HETATM   23  O1  UNL     1      25.822  57.472  -5.154  1.00  0.00    -0.290 OA
ATOM     24  H1  UNL     1      26.236  58.173  -4.665  1.00  0.00     0.244 HD
ENDBRANCH  21  23
ENDBRANCH  18  19
ENDBRANCH   7  18
ENDBRANCH   2   5
TORSDOF 6
ENDMDL
