MODEL 1
REMARK VINA RESULT: -6.857985283      0.000      0.000
REMARK  1 active torsions:
REMARK  status: ('A' for Active; 'I' for Inactive)
REMARK       I    between atoms: C4_11  and  N4_12 
REMARK    1  A    between atoms: N4_12  and  N5_14 
ROOT
HETATM    1  C1  UNL     1       0.361  12.007   9.223  1.00  0.00     0.148 C 
HETATM    2  N1  UNL     1      -0.237  11.286  10.281  1.00  0.00    -0.376 N 
ATOM      3  H1  UNL     1      -0.332  11.781  11.168  1.00  0.00     0.160 HD
HETATM    4  C2  UNL     1      -0.667  10.101  10.254  1.00  0.00     0.174 C 
HETATM    5  N2  UNL     1      -1.206   9.624  11.418  1.00  0.00    -0.290 N 
ATOM      6  H2  UNL     1      -1.594  10.309  12.066  1.00  0.00     0.172 HD
HETATM    7  C3  UNL     1      -1.269   8.331  11.781  1.00  0.00     0.340 C 
HETATM    8  O1  UNL     1      -1.741   8.143  12.929  1.00  0.00    -0.246 OA
HETATM    9  N3  UNL     1      -0.901   7.212  11.102  1.00  0.00    -0.140 N 
ATOM     10  H3  UNL     1      -1.000   6.336  11.617  1.00  0.00     0.189 HD
HETATM   11  C4  UNL     1      -0.427   7.093   9.853  1.00  0.00     0.703 C 
HETATM   12  N4  UNL     1      -0.080   5.890   9.461  1.00  0.00    -0.138 N 
ATOM     13  H4  UNL     1      -0.172   5.090  10.086  1.00  0.00     0.205 HD
HETATM   14  N6  UNL     1      -0.270   8.083   8.956  1.00  0.00    -0.151 N 
ATOM     15  H6  UNL     1       0.121   7.803   8.057  1.00  0.00     0.188 HD
HETATM   16  C5  UNL     1      -0.560   9.407   9.082  1.00  0.00     0.303 C 
HETATM   17  O2  UNL     1      -0.742  10.012   7.996  1.00  0.00    -0.263 OA
ENDROOT
BRANCH  12  18
HETATM   18  N5  UNL     1       0.416   5.731   8.172  1.00  0.00    -0.331 N 
ATOM     19  H52 UNL     1       0.594   6.551   7.592  1.00  0.00     0.177 HD
ATOM     20  H51 UNL     1       0.593   4.785   7.832  1.00  0.00     0.177 HD
ENDBRANCH  12  18
TORSDOF 1
ENDMDL
MODEL 2
REMARK VINA RESULT: -6.641222888      1.827      4.444
REMARK  1 active torsions:
REMARK  status: ('A' for Active; 'I' for Inactive)
REMARK       I    between atoms: C4_11  and  N4_12 
REMARK    1  A    between atoms: N4_12  and  N5_14 
ROOT
HETATM    1  C1  UNL     1      -0.082   5.937   9.733  1.00  0.00     0.148 C 
HETATM    2  N1  UNL     1      -1.179   6.744   9.359  1.00  0.00    -0.376 N 
ATOM      3  H1  UNL     1      -1.877   6.308   8.756  1.00  0.00     0.160 HD
HETATM    4  C2  UNL     1      -1.396   7.943   9.686  1.00  0.00     0.174 C 
HETATM    5  N2  UNL     1      -2.537   8.511   9.191  1.00  0.00    -0.290 N 
ATOM      6  H2  UNL     1      -3.306   7.884   8.958  1.00  0.00     0.172 HD
HETATM    7  C3  UNL     1      -2.733   9.826   8.984  1.00  0.00     0.340 C 
HETATM    8  O1  UNL     1      -3.836  10.101   8.450  1.00  0.00    -0.246 OA
HETATM    9  N3  UNL     1      -1.928  10.885   9.260  1.00  0.00    -0.140 N 
ATOM     10  H3  UNL     1      -2.281  11.794   8.958  1.00  0.00     0.189 HD
HETATM   11  C4  UNL     1      -0.735  10.909   9.872  1.00  0.00     0.703 C 
HETATM   12  N4  UNL     1      -0.129  12.070   9.951  1.00  0.00    -0.138 N 
ATOM     13  H4  UNL     1      -0.557  12.910   9.561  1.00  0.00     0.205 HD
HETATM   14  N6  UNL     1      -0.091   9.861  10.417  1.00  0.00    -0.151 N 
ATOM     15  H6  UNL     1       0.819  10.069  10.828  1.00  0.00     0.188 HD
HETATM   16  C5  UNL     1      -0.485   8.560  10.497  1.00  0.00     0.303 C 
HETATM   17  O2  UNL     1       0.060   7.899  11.415  1.00  0.00    -0.263 OA
ENDROOT
BRANCH  12  18
HETATM   18  N5  UNL     1       1.110  12.130  10.579  1.00  0.00    -0.331 N 
ATOM     19  H52 UNL     1       1.732  11.323  10.551  1.00  0.00     0.177 HD
ATOM     20  H51 UNL     1       1.370  12.992  11.059  1.00  0.00     0.177 HD
ENDBRANCH  12  18
TORSDOF 1
ENDMDL
MODEL 3
REMARK VINA RESULT: -6.587135085      1.911      3.345
REMARK  1 active torsions:
REMARK  status: ('A' for Active; 'I' for Inactive)
REMARK       I    between atoms: C4_11  and  N4_12 
REMARK    1  A    between atoms: N4_12  and  N5_14 
ROOT
HETATM    1  C1  UNL     1      -1.448  10.934   7.951  1.00  0.00     0.148 C 
HETATM    2  N1  UNL     1      -1.131   9.565   8.103  1.00  0.00    -0.376 N 
ATOM      3  H1  UNL     1      -1.207   8.988   7.265  1.00  0.00     0.160 HD
HETATM    4  C2  UNL     1      -0.766   8.975   9.156  1.00  0.00     0.174 C 
HETATM    5  N2  UNL     1      -0.517   7.634   9.046  1.00  0.00    -0.290 N 
ATOM      6  H2  UNL     1      -0.245   7.285   8.127  1.00  0.00     0.172 HD
HETATM    7  C3  UNL     1      -0.600   6.737  10.044  1.00  0.00     0.340 C 
HETATM    8  O1  UNL     1      -0.398   5.551   9.684  1.00  0.00    -0.246 OA
HETATM    9  N3  UNL     1      -0.866   6.917  11.365  1.00  0.00    -0.140 N 
ATOM     10  H3  UNL     1      -0.926   6.063  11.919  1.00  0.00     0.189 HD
HETATM   11  C4  UNL     1      -1.063   8.057  12.044  1.00  0.00     0.703 C 
HETATM   12  N4  UNL     1      -1.376   7.947  13.313  1.00  0.00    -0.138 N 
ATOM     13  H4  UNL     1      -1.463   7.031  13.752  1.00  0.00     0.205 HD
HETATM   14  N6  UNL     1      -0.971   9.308  11.556  1.00  0.00    -0.151 N 
ATOM     15  H6  UNL     1      -1.171  10.054  12.222  1.00  0.00     0.188 HD
HETATM   16  C5  UNL     1      -0.649   9.716  10.298  1.00  0.00     0.303 C 
HETATM   17  O2  UNL     1      -0.205  10.889  10.222  1.00  0.00    -0.263 OA
ENDROOT
BRANCH  12  18
HETATM   18  N5  UNL     1      -1.587   9.109  14.047  1.00  0.00    -0.331 N 
ATOM     19  H52 UNL     1      -2.352   9.736  13.795  1.00  0.00     0.177 HD
ATOM     20  H51 UNL     1      -0.964   9.310  14.829  1.00  0.00     0.177 HD
ENDBRANCH  12  18
TORSDOF 1
ENDMDL
MODEL 4
REMARK VINA RESULT: -6.491805944      5.428      7.505
REMARK  1 active torsions:
REMARK  status: ('A' for Active; 'I' for Inactive)
REMARK       I    between atoms: C4_11  and  N4_12 
REMARK    1  A    between atoms: N4_12  and  N5_14 
ROOT
HETATM    1  C1  UNL     1      -0.656   3.267  17.111  1.00  0.00     0.148 C 
HETATM    2  N1  UNL     1      -1.835   4.037  17.224  1.00  0.00    -0.376 N 
ATOM      3  H1  UNL     1      -2.634   3.577  17.661  1.00  0.00     0.160 HD
HETATM    4  C2  UNL     1      -2.013   5.227  16.846  1.00  0.00     0.174 C 
HETATM    5  N2  UNL     1      -3.256   5.755  17.068  1.00  0.00    -0.290 N 
ATOM      6  H2  UNL     1      -3.799   5.360  17.835  1.00  0.00     0.172 HD
HETATM    7  C3  UNL     1      -3.823   6.748  16.361  1.00  0.00     0.340 C 
HETATM    8  O1  UNL     1      -5.002   7.012  16.703  1.00  0.00    -0.246 OA
HETATM    9  N3  UNL     1      -3.320   7.498  15.345  1.00  0.00    -0.140 N 
ATOM     10  H3  UNL     1      -3.972   8.165  14.930  1.00  0.00     0.189 HD
HETATM   11  C4  UNL     1      -2.091   7.487  14.808  1.00  0.00     0.703 C 
HETATM   12  N4  UNL     1      -1.884   8.273  13.778  1.00  0.00    -0.138 N 
ATOM     13  H4  UNL     1      -2.633   8.860  13.411  1.00  0.00     0.205 HD
HETATM   14  N6  UNL     1      -1.042   6.751  15.219  1.00  0.00    -0.151 N 
ATOM     15  H6  UNL     1      -0.186   6.865  14.677  1.00  0.00     0.188 HD
HETATM   16  C5  UNL     1      -0.965   5.877  16.260  1.00  0.00     0.303 C 
HETATM   17  O2  UNL     1       0.198   5.675  16.693  1.00  0.00    -0.263 OA
ENDROOT
BRANCH  12  18
HETATM   18  N5  UNL     1      -0.621   8.286  13.197  1.00  0.00    -0.331 N 
ATOM     19  H52 UNL     1       0.093   7.632  13.520  1.00  0.00     0.177 HD
ATOM     20  H51 UNL     1      -0.436   8.958  12.453  1.00  0.00     0.177 HD
ENDBRANCH  12  18
TORSDOF 1
ENDMDL
MODEL 5
REMARK VINA RESULT: -6.483619983      4.407      6.594
REMARK  1 active torsions:
REMARK  status: ('A' for Active; 'I' for Inactive)
REMARK       I    between atoms: C4_11  and  N4_12 
REMARK    1  A    between atoms: N4_12  and  N5_14 
ROOT
HETATM    1  C1  UNL     1      -1.234   4.152  17.122  1.00  0.00     0.148 C 
HETATM    2  N1  UNL     1      -1.822   5.436  17.162  1.00  0.00    -0.376 N 
ATOM      3  H1  UNL     1      -2.603   5.554  17.806  1.00  0.00     0.160 HD
HETATM    4  C2  UNL     1      -1.490   6.452  16.492  1.00  0.00     0.174 C 
HETATM    5  N2  UNL     1      -2.220   7.588  16.712  1.00  0.00    -0.290 N 
ATOM      6  H2  UNL     1      -2.673   7.682  17.620  1.00  0.00     0.172 HD
HETATM    7  C3  UNL     1      -2.393   8.591  15.832  1.00  0.00     0.340 C 
HETATM    8  O1  UNL     1      -3.168   9.495  16.232  1.00  0.00    -0.246 OA
HETATM    9  N3  UNL     1      -1.865   8.770  14.593  1.00  0.00    -0.140 N 
ATOM     10  H3  UNL     1      -2.193   9.597  14.093  1.00  0.00     0.189 HD
HETATM   11  C4  UNL     1      -0.975   8.015  13.932  1.00  0.00     0.703 C 
HETATM   12  N4  UNL     1      -0.681   8.378  12.705  1.00  0.00    -0.138 N 
ATOM     13  H4  UNL     1      -1.116   9.200  12.286  1.00  0.00     0.205 HD
HETATM   14  N6  UNL     1      -0.348   6.919  14.397  1.00  0.00    -0.151 N 
ATOM     15  H6  UNL     1       0.287   6.465  13.742  1.00  0.00     0.188 HD
HETATM   16  C5  UNL     1      -0.444   6.333  15.622  1.00  0.00     0.303 C 
HETATM   17  O2  UNL     1       0.541   5.624  15.946  1.00  0.00    -0.263 OA
ENDROOT
BRANCH  12  18
HETATM   18  N5  UNL     1       0.238   7.618  11.991  1.00  0.00    -0.331 N 
ATOM     19  H52 UNL     1      -0.079   6.807  11.459  1.00  0.00     0.177 HD
ATOM     20  H51 UNL     1       1.220   7.892  12.017  1.00  0.00     0.177 HD
ENDBRANCH  12  18
TORSDOF 1
ENDMDL
