MODEL 1
REMARK VINA RESULT: -6.043984910      0.000      0.000
REMARK  10 active torsions:
REMARK  status: ('A' for Active; 'I' for Inactive)
REMARK    1  A    between atoms: O1_1  and  C1_3 
REMARK    2  A    between atoms: C4_8  and  S1_9 
REMARK    3  A    between atoms: S1_9  and  C5_10 
REMARK    4  A    between atoms: C5_10  and  C6_11 
REMARK    5  A    between atoms: C6_11  and  C7_12 
REMARK    6  A    between atoms: C7_12  and  N1_13 
REMARK    7  A    between atoms: C13_19  and  O4_20 
REMARK    8  A    between atoms: C14_22  and  O5_23 
REMARK    9  A    between atoms: C15_25  and  O6_26 
REMARK   10  A    between atoms: C16_28  and  O7_29 
ROOT
HETATM    1  C1  UNL     1      -1.808  16.335   4.687  1.00  0.00     0.176 C 
HETATM    2  C2  UNL     1      -1.498  17.569   3.873  1.00  0.00     0.206 C 
HETATM    3  O2  UNL     1      -0.515  17.089   3.010  1.00  0.00    -0.348 OA
HETATM    4  C3  UNL     1       0.408  16.436   3.839  1.00  0.00     0.223 C 
HETATM    5  O3  UNL     1       1.014  15.460   3.072  1.00  0.00    -0.332 OA
HETATM    6  C4  UNL     1       2.092  15.926   2.323  1.00  0.00     0.218 C 
HETATM    7  C13 UNL     1       3.203  16.297   3.265  1.00  0.00     0.188 C 
HETATM    8  C14 UNL     1       2.767  17.209   4.371  1.00  0.00     0.184 C 
HETATM    9  C15 UNL     1       1.305  17.437   4.460  1.00  0.00     0.214 C 
HETATM   10  C16 UNL     1      -0.456  15.711   4.870  1.00  0.00     0.214 C 
ENDROOT
BRANCH   6  11
HETATM   11  S1  UNL     1       1.671  17.325   1.294  1.00  0.00    -0.135 SA
BRANCH  11  12
HETATM   12  C5  UNL     1       0.925  16.926  -0.273  1.00  0.00     0.078 C 
BRANCH  12  13
HETATM   13  C6  UNL     1       0.895  18.084  -1.261  1.00  0.00     0.040 C 
BRANCH  13  14
HETATM   14  C7  UNL     1       1.384  19.316  -0.535  1.00  0.00     0.273 C 
BRANCH  14  15
HETATM   15  N1  UNL     1       0.361  20.349  -0.693  1.00  0.00     0.088 N 
HETATM   16  C8  UNL     1       0.322  21.192   0.494  1.00  0.00     0.272 C 
HETATM   17  C9  UNL     1       1.597  21.916   0.736  1.00  0.00     0.030 C 
HETATM   18  C10 UNL     1       2.022  22.662  -0.507  1.00  0.00     0.003 C 
HETATM   19  C11 UNL     1       0.873  22.612  -1.495  1.00  0.00     0.030 C 
HETATM   20  C12 UNL     1       0.660  21.163  -1.871  1.00  0.00     0.272 C 
ENDBRANCH  14  15
ENDBRANCH  13  14
ENDBRANCH  12  13
ENDBRANCH  11  12
ENDBRANCH   6  11
BRANCH   7  21
HETATM   21  O4  UNL     1       4.247  16.814   2.504  1.00  0.00    -0.389 OA
ATOM     22  H4  UNL     1       4.547  17.609   2.928  1.00  0.00     0.210 HD
ENDBRANCH   7  21
BRANCH   8  23
HETATM   23  O5  UNL     1       3.302  16.764   5.579  1.00  0.00    -0.390 OA
ATOM     24  H5  UNL     1       2.879  15.952   5.834  1.00  0.00     0.210 HD
ENDBRANCH   8  23
BRANCH   9  25
HETATM   25  O6  UNL     1       0.959  17.550   5.825  1.00  0.00    -0.387 OA
ATOM     26  H6  UNL     1       1.760  17.661   6.325  1.00  0.00     0.210 HD
ENDBRANCH   9  25
BRANCH  10  27
HETATM   27  O7  UNL     1      -0.555  14.351   4.551  1.00  0.00    -0.387 OA
ATOM     28  H7  UNL     1       0.314  13.971   4.599  1.00  0.00     0.210 HD
ENDBRANCH  10  27
BRANCH   1  29
HETATM   29  O1  UNL     1      -2.349  16.675   5.927  1.00  0.00    -0.391 OA
ATOM     30  H1  UNL     1      -1.928  17.448   6.284  1.00  0.00     0.210 HD
ENDBRANCH   1  29
TORSDOF 10
ENDMDL
MODEL 2
REMARK VINA RESULT: -5.994855291      1.994      2.772
REMARK  10 active torsions:
REMARK  status: ('A' for Active; 'I' for Inactive)
REMARK    1  A    between atoms: O1_1  and  C1_3 
REMARK    2  A    between atoms: C4_8  and  S1_9 
REMARK    3  A    between atoms: S1_9  and  C5_10 
REMARK    4  A    between atoms: C5_10  and  C6_11 
REMARK    5  A    between atoms: C6_11  and  C7_12 
REMARK    6  A    between atoms: C7_12  and  N1_13 
REMARK    7  A    between atoms: C13_19  and  O4_20 
REMARK    8  A    between atoms: C14_22  and  O5_23 
REMARK    9  A    between atoms: C15_25  and  O6_26 
REMARK   10  A    between atoms: C16_28  and  O7_29 
ROOT
HETATM    1  C1  UNL     1       2.270  15.843   5.776  1.00  0.00     0.176 C 
HETATM    2  C2  UNL     1       1.224  16.915   5.586  1.00  0.00     0.206 C 
HETATM    3  O2  UNL     1       0.927  16.774   4.232  1.00  0.00    -0.348 OA
HETATM    4  C3  UNL     1       2.173  16.762   3.588  1.00  0.00     0.223 C 
HETATM    5  O3  UNL     1       2.013  16.036   2.423  1.00  0.00    -0.332 OA
HETATM    6  C4  UNL     1       1.524  16.787   1.357  1.00  0.00     0.218 C 
HETATM    7  C13 UNL     1       2.578  17.777   0.949  1.00  0.00     0.188 C 
HETATM    8  C14 UNL     1       3.114  18.585   2.092  1.00  0.00     0.184 C 
HETATM    9  C15 UNL     1       2.660  18.151   3.436  1.00  0.00     0.214 C 
HETATM   10  C16 UNL     1       3.066  15.929   4.505  1.00  0.00     0.214 C 
ENDROOT
BRANCH   6  11
HETATM   11  S1  UNL     1       0.004  17.641   1.747  1.00  0.00    -0.135 SA
BRANCH  11  12
HETATM   12  C5  UNL     1      -1.173  17.756   0.415  1.00  0.00     0.078 C 
BRANCH  12  13
HETATM   13  C6  UNL     1      -1.488  19.183  -0.016  1.00  0.00     0.040 C 
BRANCH  13  14
HETATM   14  C7  UNL     1      -0.773  20.115   0.936  1.00  0.00     0.273 C 
BRANCH  14  15
HETATM   15  N1  UNL     1      -0.777  21.444   0.327  1.00  0.00     0.088 N 
HETATM   16  C8  UNL     1      -0.035  22.375   1.167  1.00  0.00     0.272 C 
HETATM   17  C9  UNL     1       1.396  22.002   1.323  1.00  0.00     0.030 C 
HETATM   18  C10 UNL     1       2.034  21.786  -0.029  1.00  0.00     0.003 C 
HETATM   19  C11 UNL     1       1.056  22.262  -1.086  1.00  0.00     0.030 C 
HETATM   20  C12 UNL     1      -0.169  21.381  -1.002  1.00  0.00     0.272 C 
ENDBRANCH  14  15
ENDBRANCH  13  14
ENDBRANCH  12  13
ENDBRANCH  11  12
ENDBRANCH   6  11
BRANCH   7  21
HETATM   21  O4  UNL     1       2.051  18.557  -0.077  1.00  0.00    -0.389 OA
ATOM     22  H4  UNL     1       2.682  19.240  -0.274  1.00  0.00     0.210 HD
ENDBRANCH   7  21
BRANCH   8  23
HETATM   23  O5  UNL     1       4.503  18.652   2.005  1.00  0.00    -0.390 OA
ATOM     24  H5  UNL     1       4.889  17.991   2.569  1.00  0.00     0.210 HD
ENDBRANCH   8  23
BRANCH   9  25
HETATM   25  O6  UNL     1       3.726  18.345   4.343  1.00  0.00    -0.387 OA
ATOM     26  H6  UNL     1       3.886  19.279   4.416  1.00  0.00     0.210 HD
ENDBRANCH   9  25
BRANCH  10  27
HETATM   27  O7  UNL     1       3.216  14.634   3.994  1.00  0.00    -0.387 OA
ATOM     28  H7  UNL     1       3.404  14.050   4.719  1.00  0.00     0.210 HD
ENDBRANCH  10  27
BRANCH   1  29
HETATM   29  O1  UNL     1       3.087  16.126   6.870  1.00  0.00    -0.391 OA
ATOM     30  H1  UNL     1       2.734  15.749   7.668  1.00  0.00     0.210 HD
ENDBRANCH   1  29
TORSDOF 10
ENDMDL
MODEL 3
REMARK VINA RESULT: -5.979718328      1.796      3.086
REMARK  10 active torsions:
REMARK  status: ('A' for Active; 'I' for Inactive)
REMARK    1  A    between atoms: O1_1  and  C1_3 
REMARK    2  A    between atoms: C4_8  and  S1_9 
REMARK    3  A    between atoms: S1_9  and  C5_10 
REMARK    4  A    between atoms: C5_10  and  C6_11 
REMARK    5  A    between atoms: C6_11  and  C7_12 
REMARK    6  A    between atoms: C7_12  and  N1_13 
REMARK    7  A    between atoms: C13_19  and  O4_20 
REMARK    8  A    between atoms: C14_22  and  O5_23 
REMARK    9  A    between atoms: C15_25  and  O6_26 
REMARK   10  A    between atoms: C16_28  and  O7_29 
ROOT
HETATM    1  C1  UNL     1       2.045  16.205   6.365  1.00  0.00     0.176 C 
HETATM    2  C2  UNL     1       2.983  17.156   5.659  1.00  0.00     0.206 C 
HETATM    3  O2  UNL     1       2.203  17.561   4.579  1.00  0.00    -0.348 OA
HETATM    4  C3  UNL     1       1.714  16.372   4.018  1.00  0.00     0.223 C 
HETATM    5  O3  UNL     1       0.518  16.682   3.401  1.00  0.00    -0.332 OA
HETATM    6  C4  UNL     1       0.667  17.173   2.106  1.00  0.00     0.218 C 
HETATM    7  C13 UNL     1       1.174  16.062   1.231  1.00  0.00     0.188 C 
HETATM    8  C14 UNL     1       2.384  15.371   1.784  1.00  0.00     0.184 C 
HETATM    9  C15 UNL     1       2.759  15.766   3.162  1.00  0.00     0.214 C 
HETATM   10  C16 UNL     1       1.373  15.498   5.224  1.00  0.00     0.214 C 
ENDROOT
BRANCH   6  11
HETATM   11  S1  UNL     1       1.773  18.574   2.016  1.00  0.00    -0.135 SA
BRANCH  11  12
HETATM   12  C5  UNL     1       1.096  20.035   1.254  1.00  0.00     0.078 C 
BRANCH  12  13
HETATM   13  C6  UNL     1       1.693  20.360  -0.109  1.00  0.00     0.040 C 
BRANCH  13  14
HETATM   14  C7  UNL     1       1.986  21.843  -0.136  1.00  0.00     0.273 C 
BRANCH  14  15
HETATM   15  N1  UNL     1       0.749  22.523  -0.520  1.00  0.00     0.088 N 
HETATM   16  C8  UNL     1       0.836  23.936  -0.179  1.00  0.00     0.272 C 
HETATM   17  C9  UNL     1       1.929  24.642  -0.898  1.00  0.00     0.030 C 
HETATM   18  C10 UNL     1       1.825  24.397  -2.385  1.00  0.00     0.003 C 
HETATM   19  C11 UNL     1       0.496  23.714  -2.651  1.00  0.00     0.030 C 
HETATM   20  C12 UNL     1       0.528  22.371  -1.958  1.00  0.00     0.272 C 
ENDBRANCH  14  15
ENDBRANCH  13  14
ENDBRANCH  12  13
ENDBRANCH  11  12
ENDBRANCH   6  11
BRANCH   7  21
HETATM   21  O4  UNL     1       1.372  16.585  -0.044  1.00  0.00    -0.389 OA
ATOM     22  H4  UNL     1       2.308  16.594  -0.209  1.00  0.00     0.210 HD
ENDBRANCH   7  21
BRANCH   8  23
HETATM   23  O5  UNL     1       2.232  13.991   1.657  1.00  0.00    -0.390 OA
ATOM     24  H5  UNL     1       1.313  13.764   1.744  1.00  0.00     0.210 HD
ENDBRANCH   8  23
BRANCH   9  25
HETATM   25  O6  UNL     1       3.264  14.626   3.825  1.00  0.00    -0.387 OA
ATOM     26  H6  UNL     1       4.006  14.895   4.354  1.00  0.00     0.210 HD
ENDBRANCH   9  25
BRANCH  10  27
HETATM   27  O7  UNL     1      -0.008  15.509   5.457  1.00  0.00    -0.387 OA
ATOM     28  H7  UNL     1      -0.375  14.708   5.100  1.00  0.00     0.210 HD
ENDBRANCH  10  27
BRANCH   1  29
HETATM   29  O1  UNL     1       2.751  15.289   7.144  1.00  0.00    -0.391 OA
ATOM     30  H1  UNL     1       2.378  15.220   8.015  1.00  0.00     0.210 HD
ENDBRANCH   1  29
TORSDOF 10
ENDMDL
MODEL 4
REMARK VINA RESULT: -5.797646167      3.061      5.092
REMARK  10 active torsions:
REMARK  status: ('A' for Active; 'I' for Inactive)
REMARK    1  A    between atoms: O1_1  and  C1_3 
REMARK    2  A    between atoms: C4_8  and  S1_9 
REMARK    3  A    between atoms: S1_9  and  C5_10 
REMARK    4  A    between atoms: C5_10  and  C6_11 
REMARK    5  A    between atoms: C6_11  and  C7_12 
REMARK    6  A    between atoms: C7_12  and  N1_13 
REMARK    7  A    between atoms: C13_19  and  O4_20 
REMARK    8  A    between atoms: C14_22  and  O5_23 
REMARK    9  A    between atoms: C15_25  and  O6_26 
REMARK   10  A    between atoms: C16_28  and  O7_29 
ROOT
HETATM    1  C1  UNL     1       3.626  17.321   2.164  1.00  0.00     0.176 C 
HETATM    2  C2  UNL     1       2.311  17.205   1.432  1.00  0.00     0.206 C 
HETATM    3  O2  UNL     1       2.237  18.444   0.799  1.00  0.00    -0.348 OA
HETATM    4  C3  UNL     1       2.499  19.382   1.809  1.00  0.00     0.223 C 
HETATM    5  O3  UNL     1       3.042  20.492   1.191  1.00  0.00    -0.332 OA
HETATM    6  C4  UNL     1       2.090  21.374   0.687  1.00  0.00     0.218 C 
HETATM    7  C13 UNL     1       1.363  22.002   1.843  1.00  0.00     0.188 C 
HETATM    8  C14 UNL     1       0.835  21.004   2.829  1.00  0.00     0.184 C 
HETATM    9  C15 UNL     1       1.271  19.605   2.603  1.00  0.00     0.214 C 
HETATM   10  C16 UNL     1       3.617  18.747   2.633  1.00  0.00     0.214 C 
ENDROOT
BRANCH   6  11
HETATM   11  S1  UNL     1       0.923  20.585  -0.411  1.00  0.00    -0.135 SA
BRANCH  11  12
HETATM   12  C5  UNL     1       0.725  21.361  -2.003  1.00  0.00     0.078 C 
BRANCH  12  13
HETATM   13  C6  UNL     1      -0.032  22.682  -1.963  1.00  0.00     0.040 C 
BRANCH  13  14
HETATM   14  C7  UNL     1       0.868  23.741  -2.556  1.00  0.00     0.273 C 
BRANCH  14  15
HETATM   15  N1  UNL     1       0.823  24.899  -1.665  1.00  0.00     0.088 N 
HETATM   16  C8  UNL     1       2.020  24.931  -0.835  1.00  0.00     0.272 C 
HETATM   17  C9  UNL     1       3.271  25.073  -1.624  1.00  0.00     0.030 C 
HETATM   18  C10 UNL     1       3.170  26.252  -2.563  1.00  0.00     0.003 C 
HETATM   19  C11 UNL     1       1.919  27.029  -2.200  1.00  0.00     0.030 C 
HETATM   20  C12 UNL     1       0.734  26.127  -2.454  1.00  0.00     0.272 C 
ENDBRANCH  14  15
ENDBRANCH  13  14
ENDBRANCH  12  13
ENDBRANCH  11  12
ENDBRANCH   6  11
BRANCH   7  21
HETATM   21  O4  UNL     1       0.378  22.835   1.320  1.00  0.00    -0.389 OA
ATOM     22  H4  UNL     1      -0.456  22.389   1.415  1.00  0.00     0.210 HD
ENDBRANCH   7  21
BRANCH   8  23
HETATM   23  O5  UNL     1       1.113  21.437   4.124  1.00  0.00    -0.390 OA
ATOM     24  H5  UNL     1       1.097  20.694   4.717  1.00  0.00     0.210 HD
ENDBRANCH   8  23
BRANCH   9  25
HETATM   25  O6  UNL     1       1.443  18.990   3.863  1.00  0.00    -0.387 OA
ATOM     26  H6  UNL     1       1.267  19.638   4.535  1.00  0.00     0.210 HD
ENDBRANCH   9  25
BRANCH  10  27
HETATM   27  O7  UNL     1       4.851  19.323   2.305  1.00  0.00    -0.387 OA
ATOM     28  H7  UNL     1       5.507  18.975   2.898  1.00  0.00     0.210 HD
ENDBRANCH  10  27
BRANCH   1  29
HETATM   29  O1  UNL     1       3.669  16.459   3.260  1.00  0.00    -0.391 OA
ATOM     30  H1  UNL     1       3.591  15.553   2.986  1.00  0.00     0.210 HD
ENDBRANCH   1  29
TORSDOF 10
ENDMDL
MODEL 5
REMARK VINA RESULT: -5.788512088      2.085      4.050
REMARK  10 active torsions:
REMARK  status: ('A' for Active; 'I' for Inactive)
REMARK    1  A    between atoms: O1_1  and  C1_3 
REMARK    2  A    between atoms: C4_8  and  S1_9 
REMARK    3  A    between atoms: S1_9  and  C5_10 
REMARK    4  A    between atoms: C5_10  and  C6_11 
REMARK    5  A    between atoms: C6_11  and  C7_12 
REMARK    6  A    between atoms: C7_12  and  N1_13 
REMARK    7  A    between atoms: C13_19  and  O4_20 
REMARK    8  A    between atoms: C14_22  and  O5_23 
REMARK    9  A    between atoms: C15_25  and  O6_26 
REMARK   10  A    between atoms: C16_28  and  O7_29 
ROOT
HETATM    1  C1  UNL     1       3.762  19.275   2.007  1.00  0.00     0.176 C 
HETATM    2  C2  UNL     1       3.222  17.968   1.478  1.00  0.00     0.206 C 
HETATM    3  O2  UNL     1       1.887  18.044   1.869  1.00  0.00    -0.348 OA
HETATM    4  C3  UNL     1       1.926  18.391   3.227  1.00  0.00     0.223 C 
HETATM    5  O3  UNL     1       0.752  19.064   3.502  1.00  0.00    -0.332 OA
HETATM    6  C4  UNL     1      -0.319  18.225   3.798  1.00  0.00     0.218 C 
HETATM    7  C13 UNL     1      -0.047  17.551   5.114  1.00  0.00     0.188 C 
HETATM    8  C14 UNL     1       1.300  16.899   5.183  1.00  0.00     0.184 C 
HETATM    9  C15 UNL     1       2.196  17.180   4.036  1.00  0.00     0.214 C 
HETATM   10  C16 UNL     1       3.054  19.417   3.323  1.00  0.00     0.214 C 
ENDROOT
BRANCH   6  11
HETATM   11  S1  UNL     1      -0.611  16.996   2.534  1.00  0.00    -0.135 SA
BRANCH  11  12
HETATM   12  C5  UNL     1      -1.494  17.572   1.098  1.00  0.00     0.078 C 
BRANCH  12  13
HETATM   13  C6  UNL     1      -1.885  19.042   1.155  1.00  0.00     0.040 C 
BRANCH  13  14
HETATM   14  C7  UNL     1      -1.381  19.698  -0.111  1.00  0.00     0.273 C 
BRANCH  14  15
HETATM   15  N1  UNL     1       0.080  19.676  -0.059  1.00  0.00     0.088 N 
HETATM   16  C8  UNL     1       0.618  19.425  -1.389  1.00  0.00     0.272 C 
HETATM   17  C9  UNL     1       0.261  20.484  -2.370  1.00  0.00     0.030 C 
HETATM   18  C10 UNL     1       0.627  21.847  -1.829  1.00  0.00     0.003 C 
HETATM   19  C11 UNL     1       1.455  21.642  -0.575  1.00  0.00     0.030 C 
HETATM   20  C12 UNL     1       0.576  20.957   0.444  1.00  0.00     0.272 C 
ENDBRANCH  14  15
ENDBRANCH  13  14
ENDBRANCH  12  13
ENDBRANCH  11  12
ENDBRANCH   6  11
BRANCH   7  21
HETATM   21  O4  UNL     1      -1.098  16.674   5.365  1.00  0.00    -0.389 OA
ATOM     22  H4  UNL     1      -1.872  17.196   5.545  1.00  0.00     0.210 HD
ENDBRANCH   7  21
BRANCH   8  23
HETATM   23  O5  UNL     1       1.902  17.200   6.404  1.00  0.00    -0.390 OA
ATOM     24  H5  UNL     1       2.151  18.117   6.417  1.00  0.00     0.210 HD
ENDBRANCH   8  23
BRANCH   9  25
HETATM   25  O6  UNL     1       3.520  17.262   4.521  1.00  0.00    -0.387 OA
ATOM     26  H6  UNL     1       3.536  16.901   5.400  1.00  0.00     0.210 HD
ENDBRANCH   9  25
BRANCH  10  27
HETATM   27  O7  UNL     1       2.528  20.712   3.399  1.00  0.00    -0.387 OA
ATOM     28  H7  UNL     1       2.082  20.802   4.233  1.00  0.00     0.210 HD
ENDBRANCH  10  27
BRANCH   1  29
HETATM   29  O1  UNL     1       5.140  19.203   2.213  1.00  0.00    -0.391 OA
ATOM     30  H1  UNL     1       5.559  20.033   2.018  1.00  0.00     0.210 HD
ENDBRANCH   1  29
TORSDOF 10
ENDMDL
