MODEL 1
REMARK VINA RESULT: -7.339683867      0.000      0.000
REMARK  3 active torsions:
REMARK  status: ('A' for Active; 'I' for Inactive)
REMARK       I    between atoms: C1_2  and  N2_4 
REMARK    1  A    between atoms: N2_4  and  C2_6 
REMARK    2  A    between atoms: C4_11  and  N5_12 
REMARK    3  A    between atoms: N5_12  and  O2_14 
ROOT
HETATM    1  C2  UNL     1      -1.369  10.513  11.447  1.00  0.00     0.690 A 
HETATM    2  N3  UNL     1      -2.297  10.245  10.509  1.00  0.00    -0.176 N 
ATOM      3  H3  UNL     1      -3.167   9.800  10.804  1.00  0.00     0.185 HD
HETATM    4  C3  UNL     1      -2.139  10.532   9.205  1.00  0.00     0.166 A 
HETATM    5  N4  UNL     1      -3.136  10.239   8.238  1.00  0.00    -0.079 NA
HETATM    6  C4  UNL     1      -0.961  11.132   8.826  1.00  0.00     0.164 A 
HETATM    7  C5  UNL     1      -0.016  11.400   9.805  1.00  0.00     0.291 A 
HETATM    8  O3  UNL     1       1.050  11.941   9.473  1.00  0.00    -0.265 OA
HETATM    9  N6  UNL     1      -0.211  11.099  11.091  1.00  0.00    -0.154 N 
ATOM     10  H6  UNL     1       0.502  11.308  11.789  1.00  0.00     0.187 HD
ENDROOT
BRANCH   1  11
HETATM   11  N2  UNL     1      -1.606  10.201  12.680  1.00  0.00    -0.143 N 
HETATM   12  C1  UNL     1      -1.683   8.857  13.103  1.00  0.00     0.346 C 
HETATM   13  N1  UNL     1      -0.612   8.313  13.901  1.00  0.00    -0.039 NA
HETATM   14  O1  UNL     1      -2.661   8.132  12.801  1.00  0.00    -0.250 OA
ATOM     15  H2  UNL     1      -1.740  10.946  13.364  1.00  0.00     0.188 HD
ENDBRANCH   1  11
BRANCH   6  16
HETATM   16  N5  UNL     1      -0.759  11.450   7.453  1.00  0.00    -0.261 N 
ATOM     17  H5  UNL     1      -0.486  12.400   7.201  1.00  0.00     0.194 HD
BRANCH  16  18
HETATM   18  O2  UNL     1      -0.905  10.606   6.551  1.00  0.00    -0.289 OA
ATOM     19  H2  UNL     1      -1.501  10.744   5.823  1.00  0.00     0.244 HD
ENDBRANCH  16  18
ENDBRANCH   6  16
TORSDOF 3
ENDMDL
MODEL 2
REMARK VINA RESULT: -7.280454860      1.259      2.194
REMARK  3 active torsions:
REMARK  status: ('A' for Active; 'I' for Inactive)
REMARK       I    between atoms: C1_2  and  N2_4 
REMARK    1  A    between atoms: N2_4  and  C2_6 
REMARK    2  A    between atoms: C4_11  and  N5_12 
REMARK    3  A    between atoms: N5_12  and  O2_14 
ROOT
HETATM    1  C2  UNL     1      -1.438  10.155  11.526  1.00  0.00     0.690 A 
HETATM    2  N3  UNL     1      -0.377  10.895  11.154  1.00  0.00    -0.176 N 
ATOM      3  H3  UNL     1       0.301  11.162  11.870  1.00  0.00     0.185 HD
HETATM    4  C3  UNL     1      -0.162  11.302   9.891  1.00  0.00     0.166 A 
HETATM    5  N4  UNL     1       0.968  12.082   9.528  1.00  0.00    -0.079 NA
HETATM    6  C4  UNL     1      -1.084  10.933   8.940  1.00  0.00     0.164 A 
HETATM    7  C5  UNL     1      -2.172  10.171   9.342  1.00  0.00     0.291 A 
HETATM    8  O3  UNL     1      -3.009   9.834   8.491  1.00  0.00    -0.265 OA
HETATM    9  N6  UNL     1      -2.349   9.787  10.607  1.00  0.00    -0.154 N 
ATOM     10  H6  UNL     1      -3.159   9.227  10.872  1.00  0.00     0.187 HD
ENDROOT
BRANCH   1  11
HETATM   11  N2  UNL     1      -1.565   9.807  12.766  1.00  0.00    -0.143 N 
HETATM   12  C1  UNL     1      -1.447   8.461  13.174  1.00  0.00     0.346 C 
HETATM   13  N1  UNL     1      -0.273   8.053  13.906  1.00  0.00    -0.039 NA
HETATM   14  O1  UNL     1      -2.340   7.619  12.915  1.00  0.00    -0.250 OA
ATOM     15  H2  UNL     1      -1.756  10.524  13.466  1.00  0.00     0.188 HD
ENDBRANCH   1  11
BRANCH   6  16
HETATM   16  N5  UNL     1      -0.889  11.347   7.592  1.00  0.00    -0.261 N 
ATOM     17  H5  UNL     1      -0.669  12.324   7.402  1.00  0.00     0.194 HD
BRANCH  16  18
HETATM   18  O2  UNL     1      -0.979  10.553   6.638  1.00  0.00    -0.289 OA
ATOM     19  H2  UNL     1      -0.398  10.599   5.888  1.00  0.00     0.244 HD
ENDBRANCH  16  18
ENDBRANCH   6  16
TORSDOF 3
ENDMDL
MODEL 3
REMARK VINA RESULT: -7.207939064      1.332      2.457
REMARK  3 active torsions:
REMARK  status: ('A' for Active; 'I' for Inactive)
REMARK       I    between atoms: C1_2  and  N2_4 
REMARK    1  A    between atoms: N2_4  and  C2_6 
REMARK    2  A    between atoms: C4_11  and  N5_12 
REMARK    3  A    between atoms: N5_12  and  O2_14 
ROOT
HETATM    1  C2  UNL     1      -1.758   9.797  10.965  1.00  0.00     0.690 A 
HETATM    2  N3  UNL     1      -0.677  10.582  11.137  1.00  0.00    -0.176 N 
ATOM      3  H3  UNL     1      -0.222  10.583  12.050  1.00  0.00     0.185 HD
HETATM    4  C3  UNL     1      -0.167  11.363  10.169  1.00  0.00     0.166 A 
HETATM    5  N4  UNL     1       0.975  12.180  10.379  1.00  0.00    -0.079 NA
HETATM    6  C4  UNL     1      -0.793  11.349   8.945  1.00  0.00     0.164 A 
HETATM    7  C5  UNL     1      -1.905  10.535   8.786  1.00  0.00     0.291 A 
HETATM    8  O3  UNL     1      -2.477  10.515   7.686  1.00  0.00    -0.265 OA
HETATM    9  N6  UNL     1      -2.382   9.773   9.773  1.00  0.00    -0.154 N 
ATOM     10  H6  UNL     1      -3.202   9.184   9.627  1.00  0.00     0.187 HD
ENDROOT
BRANCH   1  11
HETATM   11  N2  UNL     1      -2.181   9.076  11.952  1.00  0.00    -0.143 N 
HETATM   12  C1  UNL     1      -1.411   8.896  13.122  1.00  0.00     0.346 C 
HETATM   13  N1  UNL     1      -1.822   9.555  14.337  1.00  0.00    -0.039 NA
HETATM   14  O1  UNL     1      -0.383   8.178  13.123  1.00  0.00    -0.250 OA
ATOM     15  H2  UNL     1      -3.094   8.626  11.884  1.00  0.00     0.188 HD
ENDBRANCH   1  11
BRANCH   6  16
HETATM   16  N5  UNL     1      -0.281  12.165   7.897  1.00  0.00    -0.261 N 
ATOM     17  H5  UNL     1      -0.918  12.781   7.393  1.00  0.00     0.194 HD
BRANCH  16  18
HETATM   18  O2  UNL     1       0.921  12.150   7.577  1.00  0.00    -0.289 OA
ATOM     19  H2  UNL     1       1.437  12.946   7.517  1.00  0.00     0.244 HD
ENDBRANCH  16  18
ENDBRANCH   6  16
TORSDOF 3
ENDMDL
MODEL 4
REMARK VINA RESULT: -7.181566016      1.273      1.273
REMARK  3 active torsions:
REMARK  status: ('A' for Active; 'I' for Inactive)
REMARK       I    between atoms: C1_2  and  N2_4 
REMARK    1  A    between atoms: N2_4  and  C2_6 
REMARK    2  A    between atoms: C4_11  and  N5_12 
REMARK    3  A    between atoms: N5_12  and  O2_14 
ROOT
HETATM    1  C2  UNL     1      -1.960   9.340  11.516  1.00  0.00     0.690 A 
HETATM    2  N3  UNL     1      -2.808   9.328  10.470  1.00  0.00    -0.176 N 
ATOM      3  H3  UNL     1      -3.685   8.815  10.566  1.00  0.00     0.185 HD
HETATM    4  C3  UNL     1      -2.561   9.955   9.308  1.00  0.00     0.166 A 
HETATM    5  N4  UNL     1      -3.474   9.925   8.221  1.00  0.00    -0.079 NA
HETATM    6  C4  UNL     1      -1.374  10.642   9.197  1.00  0.00     0.164 A 
HETATM    7  C5  UNL     1      -0.513  10.643  10.284  1.00  0.00     0.291 A 
HETATM    8  O3  UNL     1       0.559  11.260  10.194  1.00  0.00    -0.265 OA
HETATM    9  N6  UNL     1      -0.795  10.007  11.423  1.00  0.00    -0.154 N 
ATOM     10  H6  UNL     1      -0.143  10.026  12.206  1.00  0.00     0.187 HD
ENDROOT
BRANCH   1  11
HETATM   11  N2  UNL     1      -2.280   8.708  12.599  1.00  0.00    -0.143 N 
HETATM   12  C1  UNL     1      -1.510   8.818  13.777  1.00  0.00     0.346 C 
HETATM   13  N1  UNL     1      -2.037   9.569  14.890  1.00  0.00    -0.039 NA
HETATM   14  O1  UNL     1      -0.382   8.277  13.873  1.00  0.00    -0.250 OA
ATOM     15  H2  UNL     1      -3.111   8.116  12.602  1.00  0.00     0.188 HD
ENDBRANCH   1  11
BRANCH   6  16
HETATM   16  N5  UNL     1      -1.078  11.317   7.980  1.00  0.00    -0.261 N 
ATOM     17  H5  UNL     1      -0.990  12.333   7.987  1.00  0.00     0.194 HD
BRANCH  16  18
HETATM   18  O2  UNL     1      -0.924  10.707   6.906  1.00  0.00    -0.289 OA
ATOM     19  H2  UNL     1      -0.932  11.153   6.067  1.00  0.00     0.244 HD
ENDBRANCH  16  18
ENDBRANCH   6  16
TORSDOF 3
ENDMDL
MODEL 5
REMARK VINA RESULT: -7.161373010      3.413      4.347
REMARK  3 active torsions:
REMARK  status: ('A' for Active; 'I' for Inactive)
REMARK       I    between atoms: C1_2  and  N2_4 
REMARK    1  A    between atoms: N2_4  and  C2_6 
REMARK    2  A    between atoms: C4_11  and  N5_12 
REMARK    3  A    between atoms: N5_12  and  O2_14 
ROOT
HETATM    1  C2  UNL     1      -0.567   7.411   9.728  1.00  0.00     0.690 A 
HETATM    2  N3  UNL     1      -0.269   8.414   8.880  1.00  0.00    -0.176 N 
ATOM      3  H3  UNL     1      -0.053   8.178   7.911  1.00  0.00     0.185 HD
HETATM    4  C3  UNL     1      -0.243   9.708   9.242  1.00  0.00     0.166 A 
HETATM    5  N4  UNL     1       0.073  10.745   8.326  1.00  0.00    -0.079 NA
HETATM    6  C4  UNL     1      -0.538  10.007  10.552  1.00  0.00     0.164 A 
HETATM    7  C5  UNL     1      -0.842   8.961  11.411  1.00  0.00     0.291 A 
HETATM    8  O3  UNL     1      -1.109   9.221  12.594  1.00  0.00    -0.265 OA
HETATM    9  N6  UNL     1      -0.857   7.687  11.013  1.00  0.00    -0.154 N 
ATOM     10  H6  UNL     1      -1.084   6.940  11.667  1.00  0.00     0.187 HD
ENDROOT
BRANCH   1  11
HETATM   11  N2  UNL     1      -0.568   6.192   9.293  1.00  0.00    -0.143 N 
HETATM   12  C1  UNL     1       0.604   5.579   8.802  1.00  0.00     0.346 C 
HETATM   13  N1  UNL     1       1.242   4.557   9.595  1.00  0.00    -0.039 NA
HETATM   14  O1  UNL     1       1.098   5.904   7.696  1.00  0.00    -0.250 OA
ATOM     15  H2  UNL     1      -1.440   5.662   9.305  1.00  0.00     0.188 HD
ENDBRANCH   1  11
BRANCH   6  16
HETATM   16  N5  UNL     1      -0.520  11.367  10.971  1.00  0.00    -0.261 N 
ATOM     17  H5  UNL     1      -1.343  11.753  11.433  1.00  0.00     0.194 HD
BRANCH  16  18
HETATM   18  O2  UNL     1       0.469  12.100  10.790  1.00  0.00    -0.289 OA
ATOM     19  H2  UNL     1       1.069  12.321  11.494  1.00  0.00     0.244 HD
ENDBRANCH  16  18
ENDBRANCH   6  16
TORSDOF 3
ENDMDL
