MODEL 1
REMARK VINA RESULT: -6.888338319      0.000      0.000
REMARK  4 active torsions:
REMARK  status: ('A' for Active; 'I' for Inactive)
REMARK    1  A    between atoms: C5_7  and  N2_8 
REMARK    2  A    between atoms: N2_8  and  C6_10 
REMARK    3  A    between atoms: C6_10  and  C7_11 
REMARK    4  A    between atoms: C7_11  and  N3_12 
ROOT
HETATM    1  C1  UNL     1      28.754  30.908  43.331  1.00  0.00     0.054 C 
HETATM    2  C2  UNL     1      29.302  31.413  44.601  1.00  0.00     0.008 A 
HETATM    3  C3  UNL     1      29.587  32.759  44.737  1.00  0.00     0.044 A 
HETATM    4  C4  UNL     1      30.099  33.261  45.907  1.00  0.00     0.078 A 
HETATM    5  N1  UNL     1      30.391  34.568  46.083  1.00  0.00    -0.190 N 
ATOM      6  H1  UNL     1      30.226  35.217  45.314  1.00  0.00     0.184 HD
HETATM    7  C5  UNL     1      30.890  35.037  47.233  1.00  0.00     0.678 A 
HETATM    8  N4  UNL     1      31.126  34.230  48.275  1.00  0.00    -0.194 N 
ATOM      9  H4  UNL     1      31.506  34.607  49.143  1.00  0.00     0.184 HD
HETATM   10  C8  UNL     1      30.853  32.896  48.164  1.00  0.00     0.051 A 
HETATM   11  C9  UNL     1      31.107  31.995  49.301  1.00  0.00     0.071 C 
HETATM   12  C10 UNL     1      30.339  32.415  46.978  1.00  0.00     0.085 A 
HETATM   13  N5  UNL     1      30.049  31.096  46.817  1.00  0.00    -0.320 N 
ATOM     14  H5  UNL     1      30.221  30.463  47.598  1.00  0.00     0.169 HD
HETATM   15  C11 UNL     1      29.551  30.590  45.685  1.00  0.00     0.252 A 
HETATM   16  O1  UNL     1      29.286  29.364  45.547  1.00  0.00    -0.268 OA
ENDROOT
BRANCH   7  17
HETATM   17  N2  UNL     1      31.150  36.289  47.346  1.00  0.00    -0.224 N 
ATOM     18  H2  UNL     1      30.642  36.847  48.032  1.00  0.00     0.177 HD
BRANCH  17  19
HETATM   19  C6  UNL     1      32.154  36.922  46.516  1.00  0.00     0.165 C 
BRANCH  19  20
HETATM   20  C7  UNL     1      32.384  38.311  47.054  1.00  0.00     0.249 C 
BRANCH  20  21
HETATM   21  N3  UNL     1      32.967  39.185  46.061  1.00  0.00    -0.078 N 
ATOM     22  H33 UNL     1      33.821  39.623  46.408  1.00  0.00     0.274 HD
ATOM     23  H32 UNL     1      33.362  38.653  45.287  1.00  0.00     0.274 HD
ATOM     24  H31 UNL     1      32.301  39.882  45.730  1.00  0.00     0.274 HD
ENDBRANCH  20  21
ENDBRANCH  19  20
ENDBRANCH  17  19
ENDBRANCH   7  17
TORSDOF 4
ENDMDL
MODEL 2
REMARK VINA RESULT: -6.515649059      1.761      2.013
REMARK  4 active torsions:
REMARK  status: ('A' for Active; 'I' for Inactive)
REMARK    1  A    between atoms: C5_7  and  N2_8 
REMARK    2  A    between atoms: N2_8  and  C6_10 
REMARK    3  A    between atoms: C6_10  and  C7_11 
REMARK    4  A    between atoms: C7_11  and  N3_12 
ROOT
HETATM    1  C1  UNL     1      30.642  29.591  45.850  1.00  0.00     0.054 C 
HETATM    2  C2  UNL     1      30.269  30.899  46.415  1.00  0.00     0.008 A 
HETATM    3  C3  UNL     1      31.109  31.983  46.243  1.00  0.00     0.044 A 
HETATM    4  C4  UNL     1      30.791  33.215  46.757  1.00  0.00     0.078 A 
HETATM    5  N1  UNL     1      31.582  34.301  46.612  1.00  0.00    -0.190 N 
ATOM      6  H1  UNL     1      32.457  34.208  46.098  1.00  0.00     0.184 HD
HETATM    7  C5  UNL     1      31.253  35.494  47.122  1.00  0.00     0.678 A 
HETATM    8  N4  UNL     1      30.115  35.674  47.805  1.00  0.00    -0.194 N 
ATOM      9  H4  UNL     1      29.882  36.592  48.185  1.00  0.00     0.184 HD
HETATM   10  C8  UNL     1      29.270  34.617  47.988  1.00  0.00     0.051 A 
HETATM   11  C9  UNL     1      28.015  34.798  48.738  1.00  0.00     0.071 C 
HETATM   12  C10 UNL     1      29.611  33.389  47.462  1.00  0.00     0.085 A 
HETATM   13  N5  UNL     1      28.803  32.305  47.617  1.00  0.00    -0.320 N 
ATOM     14  H5  UNL     1      27.932  32.419  48.134  1.00  0.00     0.169 HD
HETATM   15  C11 UNL     1      29.098  31.098  47.123  1.00  0.00     0.252 A 
HETATM   16  O1  UNL     1      28.340  30.100  47.272  1.00  0.00    -0.268 OA
ENDROOT
BRANCH   7  17
HETATM   17  N2  UNL     1      32.042  36.493  46.955  1.00  0.00    -0.224 N 
ATOM     18  H2  UNL     1      32.992  36.332  46.620  1.00  0.00     0.177 HD
BRANCH  17  19
HETATM   19  C6  UNL     1      31.605  37.845  47.234  1.00  0.00     0.165 C 
BRANCH  19  20
HETATM   20  C7  UNL     1      32.703  38.781  46.796  1.00  0.00     0.249 C 
BRANCH  20  21
HETATM   21  N3  UNL     1      32.367  40.163  47.052  1.00  0.00    -0.078 N 
ATOM     22  H33 UNL     1      32.158  40.660  46.185  1.00  0.00     0.274 HD
ATOM     23  H32 UNL     1      31.459  40.245  47.507  1.00  0.00     0.274 HD
ATOM     24  H31 UNL     1      33.094  40.639  47.586  1.00  0.00     0.274 HD
ENDBRANCH  20  21
ENDBRANCH  19  20
ENDBRANCH  17  19
ENDBRANCH   7  17
TORSDOF 4
ENDMDL
MODEL 3
REMARK VINA RESULT: -6.367403149      1.436      1.658
REMARK  4 active torsions:
REMARK  status: ('A' for Active; 'I' for Inactive)
REMARK    1  A    between atoms: C5_7  and  N2_8 
REMARK    2  A    between atoms: N2_8  and  C6_10 
REMARK    3  A    between atoms: C6_10  and  C7_11 
REMARK    4  A    between atoms: C7_11  and  N3_12 
ROOT
HETATM    1  C1  UNL     1      32.249  30.008  44.446  1.00  0.00     0.054 C 
HETATM    2  C2  UNL     1      31.473  30.893  45.331  1.00  0.00     0.008 A 
HETATM    3  C3  UNL     1      31.906  32.187  45.555  1.00  0.00     0.044 A 
HETATM    4  C4  UNL     1      31.206  33.037  46.374  1.00  0.00     0.078 A 
HETATM    5  N1  UNL     1      31.592  34.308  46.619  1.00  0.00    -0.190 N 
ATOM      6  H1  UNL     1      32.442  34.659  46.178  1.00  0.00     0.184 HD
HETATM    7  C5  UNL     1      30.896  35.122  47.422  1.00  0.00     0.678 A 
HETATM    8  N4  UNL     1      29.772  34.714  48.027  1.00  0.00    -0.194 N 
ATOM      9  H4  UNL     1      29.255  35.350  48.634  1.00  0.00     0.184 HD
HETATM   10  C8  UNL     1      29.325  33.439  47.821  1.00  0.00     0.051 A 
HETATM   11  C9  UNL     1      28.092  32.976  48.479  1.00  0.00     0.071 C 
HETATM   12  C10 UNL     1      30.045  32.603  46.994  1.00  0.00     0.085 A 
HETATM   13  N5  UNL     1      29.643  31.326  46.757  1.00  0.00    -0.320 N 
ATOM     14  H5  UNL     1      28.790  30.995  47.207  1.00  0.00     0.169 HD
HETATM   15  C11 UNL     1      30.312  30.485  45.962  1.00  0.00     0.252 A 
HETATM   16  O1  UNL     1      29.929  29.301  45.749  1.00  0.00    -0.268 OA
ENDROOT
BRANCH   7  17
HETATM   17  N2  UNL     1      31.308  36.320  47.621  1.00  0.00    -0.224 N 
ATOM     18  H2  UNL     1      31.142  36.765  48.524  1.00  0.00     0.177 HD
BRANCH  17  19
HETATM   19  C6  UNL     1      32.005  37.052  46.584  1.00  0.00     0.165 C 
BRANCH  19  20
HETATM   20  C7  UNL     1      32.372  38.404  47.144  1.00  0.00     0.249 C 
BRANCH  20  21
HETATM   21  N3  UNL     1      32.963  39.260  46.142  1.00  0.00    -0.078 N 
ATOM     22  H33 UNL     1      32.521  40.180  46.132  1.00  0.00     0.274 HD
ATOM     23  H32 UNL     1      33.908  39.540  46.405  1.00  0.00     0.274 HD
ATOM     24  H31 UNL     1      32.948  38.832  45.217  1.00  0.00     0.274 HD
ENDBRANCH  20  21
ENDBRANCH  19  20
ENDBRANCH  17  19
ENDBRANCH   7  17
TORSDOF 4
ENDMDL
MODEL 4
REMARK VINA RESULT: -6.323437769      1.078      1.420
REMARK  4 active torsions:
REMARK  status: ('A' for Active; 'I' for Inactive)
REMARK    1  A    between atoms: C5_7  and  N2_8 
REMARK    2  A    between atoms: N2_8  and  C6_10 
REMARK    3  A    between atoms: C6_10  and  C7_11 
REMARK    4  A    between atoms: C7_11  and  N3_12 
ROOT
HETATM    1  C1  UNL     1      28.615  30.782  43.257  1.00  0.00     0.054 C 
HETATM    2  C2  UNL     1      29.227  31.324  44.483  1.00  0.00     0.008 A 
HETATM    3  C3  UNL     1      29.642  32.642  44.515  1.00  0.00     0.044 A 
HETATM    4  C4  UNL     1      30.216  33.177  45.642  1.00  0.00     0.078 A 
HETATM    5  N1  UNL     1      30.635  34.459  45.717  1.00  0.00    -0.190 N 
ATOM      6  H1  UNL     1      30.523  35.063  44.903  1.00  0.00     0.184 HD
HETATM    7  C5  UNL     1      31.193  34.961  46.826  1.00  0.00     0.678 A 
HETATM    8  N4  UNL     1      31.364  34.214  47.924  1.00  0.00    -0.194 N 
ATOM      9  H4  UNL     1      31.790  34.616  48.759  1.00  0.00     0.184 HD
HETATM   10  C8  UNL     1      30.961  32.908  47.915  1.00  0.00     0.051 A 
HETATM   11  C9  UNL     1      31.143  32.073  49.114  1.00  0.00     0.071 C 
HETATM   12  C10 UNL     1      30.387  32.393  46.772  1.00  0.00     0.085 A 
HETATM   13  N5  UNL     1      29.970  31.100  46.711  1.00  0.00    -0.320 N 
ATOM     14  H5  UNL     1      30.090  30.513  47.536  1.00  0.00     0.169 HD
HETATM   15  C11 UNL     1      29.409  30.563  45.623  1.00  0.00     0.252 A 
HETATM   16  O1  UNL     1      29.026  29.362  45.579  1.00  0.00    -0.268 OA
ENDROOT
BRANCH   7  17
HETATM   17  N2  UNL     1      31.574  36.186  46.843  1.00  0.00    -0.224 N 
ATOM     18  H2  UNL     1      32.152  36.543  46.081  1.00  0.00     0.177 HD
BRANCH  17  19
HETATM   19  C6  UNL     1      31.198  37.071  47.926  1.00  0.00     0.165 C 
BRANCH  19  20
HETATM   20  C7  UNL     1      29.699  36.998  48.077  1.00  0.00     0.249 C 
BRANCH  20  21
HETATM   21  N3  UNL     1      29.090  38.308  48.053  1.00  0.00    -0.078 N 
ATOM     22  H33 UNL     1      28.790  38.595  48.985  1.00  0.00     0.274 HD
ATOM     23  H32 UNL     1      29.782  39.035  47.875  1.00  0.00     0.274 HD
ATOM     24  H31 UNL     1      28.320  38.358  47.386  1.00  0.00     0.274 HD
ENDBRANCH  20  21
ENDBRANCH  19  20
ENDBRANCH  17  19
ENDBRANCH   7  17
TORSDOF 4
ENDMDL
MODEL 5
REMARK VINA RESULT: -6.252887898      1.448      3.109
REMARK  4 active torsions:
REMARK  status: ('A' for Active; 'I' for Inactive)
REMARK    1  A    between atoms: C5_7  and  N2_8 
REMARK    2  A    between atoms: N2_8  and  C6_10 
REMARK    3  A    between atoms: C6_10  and  C7_11 
REMARK    4  A    between atoms: C7_11  and  N3_12 
ROOT
HETATM    1  C1  UNL     1      28.821  30.915  50.517  1.00  0.00     0.054 C 
HETATM    2  C2  UNL     1      29.134  31.536  49.219  1.00  0.00     0.008 A 
HETATM    3  C3  UNL     1      29.895  32.689  49.178  1.00  0.00     0.044 A 
HETATM    4  C4  UNL     1      30.204  33.293  47.985  1.00  0.00     0.078 A 
HETATM    5  N1  UNL     1      30.945  34.419  47.899  1.00  0.00    -0.190 N 
ATOM      6  H1  UNL     1      31.295  34.845  48.757  1.00  0.00     0.184 HD
HETATM    7  C5  UNL     1      31.235  34.993  46.725  1.00  0.00     0.678 A 
HETATM    8  N4  UNL     1      30.804  34.475  45.568  1.00  0.00    -0.194 N 
ATOM      9  H4  UNL     1      31.037  34.927  44.683  1.00  0.00     0.184 HD
HETATM   10  C8  UNL     1      30.049  33.337  45.583  1.00  0.00     0.051 A 
HETATM   11  C9  UNL     1      29.567  32.756  44.319  1.00  0.00     0.071 C 
HETATM   12  C10 UNL     1      29.752  32.748  46.794  1.00  0.00     0.085 A 
HETATM   13  N5  UNL     1      29.005  31.614  46.864  1.00  0.00    -0.320 N 
ATOM     14  H5  UNL     1      28.665  31.202  45.994  1.00  0.00     0.169 HD
HETATM   15  C11 UNL     1      28.694  31.013  48.017  1.00  0.00     0.252 A 
HETATM   16  O1  UNL     1      28.000  29.960  48.068  1.00  0.00    -0.268 OA
ENDROOT
BRANCH   7  17
HETATM   17  N2  UNL     1      31.944  36.063  46.701  1.00  0.00    -0.224 N 
ATOM     18  H2  UNL     1      32.853  36.053  46.238  1.00  0.00     0.177 HD
BRANCH  17  19
HETATM   19  C6  UNL     1      31.473  37.284  47.320  1.00  0.00     0.165 C 
BRANCH  19  20
HETATM   20  C7  UNL     1      32.449  38.380  46.972  1.00  0.00     0.249 C 
BRANCH  20  21
HETATM   21  N3  UNL     1      33.266  38.034  45.832  1.00  0.00    -0.078 N 
ATOM     22  H33 UNL     1      33.631  37.084  45.912  1.00  0.00     0.274 HD
ATOM     23  H32 UNL     1      32.699  37.918  44.992  1.00  0.00     0.274 HD
ATOM     24  H31 UNL     1      34.017  38.707  45.683  1.00  0.00     0.274 HD
ENDBRANCH  20  21
ENDBRANCH  19  20
ENDBRANCH  17  19
ENDBRANCH   7  17
TORSDOF 4
ENDMDL
