MODEL 1
REMARK VINA RESULT: -6.377886475      0.000      0.000
REMARK  5 active torsions:
REMARK  status: ('A' for Active; 'I' for Inactive)
REMARK    1  A    between atoms: C2_2  and  C3_3 
REMARK    2  A    between atoms: C3_3  and  N1_4 
REMARK    3  A    between atoms: N1_4  and  C4_7 
REMARK    4  A    between atoms: C4_7  and  C5_8 
REMARK    5  A    between atoms: C7_10  and  C8_11 
ROOT
HETATM    1  N1  UNL     1      16.996  92.423  35.145  1.00  0.00    -0.072 N 
ATOM      2  H11 UNL     1      16.302  92.529  35.884  1.00  0.00     0.277 HD
ATOM      3  H12 UNL     1      16.610  93.103  34.490  1.00  0.00     0.277 HD
ENDROOT
BRANCH   1   4
HETATM    4  C3  UNL     1      17.022  91.082  34.598  1.00  0.00     0.259 C 
BRANCH   4   5
HETATM    5  C2  UNL     1      16.732  91.209  33.135  1.00  0.00    -0.010 C 
HETATM    6  C1  UNL     1      17.136  90.306  32.291  1.00  0.00     0.008 C 
ENDBRANCH   4   5
ENDBRANCH   1   4
BRANCH   1   7
HETATM    7  C4  UNL     1      18.353  92.779  35.591  1.00  0.00     0.237 C 
BRANCH   7   8
HETATM    8  C5  UNL     1      18.722  94.110  34.918  1.00  0.00     0.019 A 
HETATM    9  C6  UNL     1      19.145  94.014  33.467  1.00  0.00     0.016 A 
HETATM   10  C7  UNL     1      17.818  94.534  33.804  1.00  0.00     0.013 A 
BRANCH  10  11
HETATM   11  C8  UNL     1      17.431  95.948  33.623  1.00  0.00    -0.032 C 
HETATM   12  C9  UNL     1      16.310  96.284  33.001  1.00  0.00     0.007 C 
ENDBRANCH  10  11
ENDBRANCH   7   8
ENDBRANCH   1   7
TORSDOF 5
ENDMDL
MODEL 2
REMARK VINA RESULT: -6.221331248      1.108      1.228
REMARK  5 active torsions:
REMARK  status: ('A' for Active; 'I' for Inactive)
REMARK    1  A    between atoms: C2_2  and  C3_3 
REMARK    2  A    between atoms: C3_3  and  N1_4 
REMARK    3  A    between atoms: N1_4  and  C4_7 
REMARK    4  A    between atoms: C4_7  and  C5_8 
REMARK    5  A    between atoms: C7_10  and  C8_11 
ROOT
HETATM    1  N1  UNL     1      18.447  91.239  34.154  1.00  0.00    -0.072 N 
ATOM      2  H11 UNL     1      18.902  90.509  33.607  1.00  0.00     0.277 HD
ATOM      3  H12 UNL     1      18.781  90.955  35.075  1.00  0.00     0.277 HD
ENDROOT
BRANCH   1   4
HETATM    4  C3  UNL     1      17.003  91.189  34.051  1.00  0.00     0.259 C 
BRANCH   4   5
HETATM    5  C2  UNL     1      16.683  90.986  32.602  1.00  0.00    -0.010 C 
HETATM    6  C1  UNL     1      17.090  89.927  31.968  1.00  0.00     0.008 C 
ENDBRANCH   4   5
ENDBRANCH   1   4
BRANCH   1   7
HETATM    7  C4  UNL     1      18.902  92.589  33.781  1.00  0.00     0.237 C 
BRANCH   7   8
HETATM    8  C5  UNL     1      17.894  93.590  34.366  1.00  0.00     0.019 A 
HETATM    9  C6  UNL     1      18.477  94.904  34.841  1.00  0.00     0.016 A 
HETATM   10  C7  UNL     1      17.724  94.855  33.586  1.00  0.00     0.013 A 
BRANCH  10  11
HETATM   11  C8  UNL     1      16.397  95.479  33.412  1.00  0.00    -0.032 C 
HETATM   12  C9  UNL     1      16.271  96.738  33.017  1.00  0.00     0.007 C 
ENDBRANCH  10  11
ENDBRANCH   7   8
ENDBRANCH   1   7
TORSDOF 5
ENDMDL
MODEL 3
REMARK VINA RESULT: -6.096191800      1.375      4.340
REMARK  5 active torsions:
REMARK  status: ('A' for Active; 'I' for Inactive)
REMARK    1  A    between atoms: C2_2  and  C3_3 
REMARK    2  A    between atoms: C3_3  and  N1_4 
REMARK    3  A    between atoms: N1_4  and  C4_7 
REMARK    4  A    between atoms: C4_7  and  C5_8 
REMARK    5  A    between atoms: C7_10  and  C8_11 
ROOT
HETATM    1  N1  UNL     1      17.973  94.876  34.000  1.00  0.00    -0.072 N 
ATOM      2  H11 UNL     1      18.241  95.704  34.532  1.00  0.00     0.277 HD
ATOM      3  H12 UNL     1      18.533  95.057  33.166  1.00  0.00     0.277 HD
ENDROOT
BRANCH   1   4
HETATM    4  C3  UNL     1      16.554  94.836  33.714  1.00  0.00     0.259 C 
BRANCH   4   5
HETATM    5  C2  UNL     1      16.228  96.100  32.981  1.00  0.00    -0.010 C 
HETATM    6  C1  UNL     1      16.991  97.147  33.079  1.00  0.00     0.008 C 
ENDBRANCH   4   5
ENDBRANCH   1   4
BRANCH   1   7
HETATM    7  C4  UNL     1      18.357  93.625  34.675  1.00  0.00     0.237 C 
BRANCH   7   8
HETATM    8  C5  UNL     1      18.347  92.512  33.616  1.00  0.00     0.019 A 
HETATM    9  C6  UNL     1      18.650  91.120  34.128  1.00  0.00     0.016 A 
HETATM   10  C7  UNL     1      17.274  91.482  33.782  1.00  0.00     0.013 A 
BRANCH  10  11
HETATM   11  C8  UNL     1      16.556  90.924  32.619  1.00  0.00    -0.032 C 
HETATM   12  C9  UNL     1      17.093  89.976  31.864  1.00  0.00     0.007 C 
ENDBRANCH  10  11
ENDBRANCH   7   8
ENDBRANCH   1   7
TORSDOF 5
ENDMDL
MODEL 4
REMARK VINA RESULT: -6.062802936      1.403      4.640
REMARK  5 active torsions:
REMARK  status: ('A' for Active; 'I' for Inactive)
REMARK    1  A    between atoms: C2_2  and  C3_3 
REMARK    2  A    between atoms: C3_3  and  N1_4 
REMARK    3  A    between atoms: N1_4  and  C4_7 
REMARK    4  A    between atoms: C4_7  and  C5_8 
REMARK    5  A    between atoms: C7_10  and  C8_11 
ROOT
HETATM    1  N1  UNL     1      16.595  94.519  34.019  1.00  0.00    -0.072 N 
ATOM      2  H11 UNL     1      15.981  94.330  33.228  1.00  0.00     0.277 HD
ATOM      3  H12 UNL     1      15.928  95.029  34.598  1.00  0.00     0.277 HD
ENDROOT
BRANCH   1   4
HETATM    4  C3  UNL     1      17.739  95.327  33.652  1.00  0.00     0.259 C 
BRANCH   4   5
HETATM    5  C2  UNL     1      17.201  96.635  33.161  1.00  0.00    -0.010 C 
HETATM    6  C1  UNL     1      15.956  96.960  33.349  1.00  0.00     0.008 C 
ENDBRANCH   4   5
ENDBRANCH   1   4
BRANCH   1   7
HETATM    7  C4  UNL     1      17.074  93.286  34.666  1.00  0.00     0.237 C 
BRANCH   7   8
HETATM    8  C5  UNL     1      17.623  92.372  33.559  1.00  0.00     0.019 A 
HETATM    9  C6  UNL     1      18.125  91.019  34.017  1.00  0.00     0.016 A 
HETATM   10  C7  UNL     1      16.841  91.119  33.319  1.00  0.00     0.013 A 
BRANCH  10  11
HETATM   11  C8  UNL     1      16.618  90.601  31.955  1.00  0.00    -0.032 C 
HETATM   12  C9  UNL     1      17.125  89.441  31.564  1.00  0.00     0.007 C 
ENDBRANCH  10  11
ENDBRANCH   7   8
ENDBRANCH   1   7
TORSDOF 5
ENDMDL
MODEL 5
REMARK VINA RESULT: -6.027395515      1.230      4.294
REMARK  5 active torsions:
REMARK  status: ('A' for Active; 'I' for Inactive)
REMARK    1  A    between atoms: C2_2  and  C3_3 
REMARK    2  A    between atoms: C3_3  and  N1_4 
REMARK    3  A    between atoms: N1_4  and  C4_7 
REMARK    4  A    between atoms: C4_7  and  C5_8 
REMARK    5  A    between atoms: C7_10  and  C8_11 
ROOT
HETATM    1  N1  UNL     1      18.695  93.771  33.536  1.00  0.00    -0.072 N 
ATOM      2  H11 UNL     1      19.463  94.040  32.921  1.00  0.00     0.277 HD
ATOM      3  H12 UNL     1      18.058  93.421  32.821  1.00  0.00     0.277 HD
ENDROOT
BRANCH   1   4
HETATM    4  C3  UNL     1      18.146  94.898  34.261  1.00  0.00     0.259 C 
BRANCH   4   5
HETATM    5  C2  UNL     1      16.909  95.318  33.530  1.00  0.00    -0.010 C 
HETATM    6  C1  UNL     1      16.728  96.555  33.175  1.00  0.00     0.008 C 
ENDBRANCH   4   5
ENDBRANCH   1   4
BRANCH   1   7
HETATM    7  C4  UNL     1      19.086  92.730  34.501  1.00  0.00     0.237 C 
BRANCH   7   8
HETATM    8  C5  UNL     1      18.311  91.455  34.137  1.00  0.00     0.019 A 
HETATM    9  C6  UNL     1      17.023  91.231  34.901  1.00  0.00     0.016 A 
HETATM   10  C7  UNL     1      16.972  91.678  33.508  1.00  0.00     0.013 A 
BRANCH  10  11
HETATM   11  C8  UNL     1      16.491  90.828  32.401  1.00  0.00    -0.032 C 
HETATM   12  C9  UNL     1      17.280  89.935  31.821  1.00  0.00     0.007 C 
ENDBRANCH  10  11
ENDBRANCH   7   8
ENDBRANCH   1   7
TORSDOF 5
ENDMDL
