MODEL 1
REMARK VINA RESULT: -10.667310465      0.000      0.000
REMARK  11 active torsions:
REMARK  status: ('A' for Active; 'I' for Inactive)
REMARK    1  A    between atoms: C2_2  and  C3_3 
REMARK    2  A    between atoms: C4_4  and  C5_5 
REMARK    3  A    between atoms: C12_12  and  O1_13 
REMARK    4  A    between atoms: C14_17  and  C15_18 
REMARK    5  A    between atoms: C16_19  and  C17_20 
REMARK    6  A    between atoms: C20_24  and  C21_25 
REMARK    7  A    between atoms: C21_25  and  C22_26 
REMARK    8  A    between atoms: C24_28  and  C26_30 
REMARK    9  A    between atoms: C26_30  and  C27_31 
REMARK   10  A    between atoms: C27_31  and  C28_32 
REMARK   11  A    between atoms: C32_36  and  O4_37 
ROOT
HETATM    1  C3  UNL     1      -1.037  67.630  66.284  1.00  0.00     0.030 A 
HETATM    2  C4  UNL     1       0.304  67.219  66.293  1.00  0.00     0.079 A 
HETATM    3  O2  UNL     1       0.463  66.563  67.397  1.00  0.00    -0.310 OA
HETATM    4  C14 UNL     1      -0.595  66.490  68.109  1.00  0.00     0.109 A 
HETATM    5  C32 UNL     1      -1.609  67.164  67.444  1.00  0.00     0.112 A 
ENDROOT
BRANCH   4   6
HETATM    6  C15 UNL     1      -0.717  65.820  69.393  1.00  0.00     0.040 C 
HETATM    7  C16 UNL     1       0.346  65.478  70.114  1.00  0.00     0.003 C 
BRANCH   7   8
HETATM    8  C17 UNL     1       0.236  64.816  71.386  1.00  0.00     0.006 C 
HETATM    9  C18 UNL     1       0.227  63.495  71.428  1.00  0.00    -0.046 C 
HETATM   10  C19 UNL     1       0.319  62.556  70.281  1.00  0.00     0.203 C 
HETATM   11  C24 UNL     1       0.133  62.619  72.615  1.00  0.00     0.008 C 
HETATM   12  O3  UNL     1      -0.047  61.326  70.737  1.00  0.00    -0.381 OA
HETATM   13  C20 UNL     1      -0.372  61.330  72.050  1.00  0.00     0.134 C 
HETATM   14  C25 UNL     1      -0.865  63.264  73.561  1.00  0.00     0.023 C 
BRANCH  13  15
HETATM   15  C21 UNL     1      -1.842  61.115  72.315  1.00  0.00     0.033 C 
BRANCH  15  16
HETATM   16  C22 UNL     1      -2.567  60.986  71.005  1.00  0.00    -0.002 C 
HETATM   17  C23 UNL     1      -3.887  60.301  71.170  1.00  0.00     0.005 C 
ENDBRANCH  15  16
ENDBRANCH  13  15
BRANCH  11  18
HETATM   18  C26 UNL     1       1.496  62.505  73.268  1.00  0.00     0.020 C 
BRANCH  18  19
HETATM   19  C27 UNL     1       2.047  61.106  73.264  1.00  0.00     0.028 C 
BRANCH  19  20
HETATM   20  C28 UNL     1       3.474  61.225  72.788  1.00  0.00    -0.025 C 
HETATM   21  C29 UNL     1       3.909  60.581  71.725  1.00  0.00    -0.091 C 
HETATM   22  C30 UNL     1       5.318  60.728  71.296  1.00  0.00     0.042 C 
HETATM   23  C31 UNL     1       2.961  59.714  70.981  1.00  0.00     0.042 C 
ENDBRANCH  19  20
ENDBRANCH  18  19
ENDBRANCH  11  18
ENDBRANCH   7   8
ENDBRANCH   4   6
BRANCH   5  24
HETATM   24  O4  UNL     1      -2.926  67.318  67.889  1.00  0.00    -0.357 OA
ATOM     25  H4  UNL     1      -3.233  67.581  68.749  1.00  0.00     0.217 HD
ENDBRANCH   5  24
BRANCH   2  26
HETATM   26  C5  UNL     1       1.319  67.470  65.285  1.00  0.00     0.026 C 
HETATM   27  C6  UNL     1       0.633  68.106  64.062  1.00  0.00     0.027 C 
HETATM   28  C7  UNL     1       2.262  68.518  65.765  1.00  0.00    -0.014 C 
HETATM   29  C8  UNL     1       3.493  68.587  65.306  1.00  0.00    -0.018 C 
HETATM   30  C9  UNL     1       4.046  67.664  64.299  1.00  0.00    -0.004 C 
HETATM   31  C10 UNL     1       4.588  68.539  63.167  1.00  0.00     0.021 C 
HETATM   32  C11 UNL     1       5.188  66.909  64.947  1.00  0.00     0.021 C 
HETATM   33  C12 UNL     1       3.014  66.749  63.711  1.00  0.00     0.131 C 
HETATM   34  C13 UNL     1       2.026  66.257  64.751  1.00  0.00     0.052 C 
BRANCH  33  35
HETATM   35  O1  UNL     1       3.575  65.664  63.074  1.00  0.00    -0.394 OA
ATOM     36  H1  UNL     1       3.998  65.066  63.679  1.00  0.00     0.210 HD
ENDBRANCH  33  35
ENDBRANCH   2  26
BRANCH   1  37
HETATM   37  C2  UNL     1      -1.709  68.388  65.263  1.00  0.00     0.007 C 
HETATM   38  C1  UNL     1      -2.976  68.435  65.005  1.00  0.00     0.012 C 
ENDBRANCH   1  37
TORSDOF 11
ENDMDL
MODEL 2
REMARK VINA RESULT: -10.177532771      1.919      2.560
REMARK  11 active torsions:
REMARK  status: ('A' for Active; 'I' for Inactive)
REMARK    1  A    between atoms: C2_2  and  C3_3 
REMARK    2  A    between atoms: C4_4  and  C5_5 
REMARK    3  A    between atoms: C12_12  and  O1_13 
REMARK    4  A    between atoms: C14_17  and  C15_18 
REMARK    5  A    between atoms: C16_19  and  C17_20 
REMARK    6  A    between atoms: C20_24  and  C21_25 
REMARK    7  A    between atoms: C21_25  and  C22_26 
REMARK    8  A    between atoms: C24_28  and  C26_30 
REMARK    9  A    between atoms: C26_30  and  C27_31 
REMARK   10  A    between atoms: C27_31  and  C28_32 
REMARK   11  A    between atoms: C32_36  and  O4_37 
ROOT
HETATM    1  C3  UNL     1       2.803  68.282  67.179  1.00  0.00     0.030 A 
HETATM    2  C4  UNL     1       2.378  67.238  66.346  1.00  0.00     0.079 A 
HETATM    3  O2  UNL     1       1.656  66.465  67.091  1.00  0.00    -0.310 OA
HETATM    4  C14 UNL     1       1.553  66.866  68.300  1.00  0.00     0.109 A 
HETATM    5  C32 UNL     1       2.276  68.043  68.427  1.00  0.00     0.112 A 
ENDROOT
BRANCH   4   6
HETATM    6  C15 UNL     1       0.810  66.205  69.360  1.00  0.00     0.040 C 
HETATM    7  C16 UNL     1       1.385  65.344  70.194  1.00  0.00     0.003 C 
BRANCH   7   8
HETATM    8  C17 UNL     1       0.658  64.686  71.246  1.00  0.00     0.006 C 
HETATM    9  C18 UNL     1       0.470  63.380  71.182  1.00  0.00    -0.046 C 
HETATM   10  C19 UNL     1       0.931  62.453  70.117  1.00  0.00     0.203 C 
HETATM   11  C24 UNL     1      -0.232  62.509  72.149  1.00  0.00     0.008 C 
HETATM   12  O3  UNL     1       0.256  61.281  70.282  1.00  0.00    -0.381 OA
HETATM   13  C20 UNL     1      -0.598  61.313  71.330  1.00  0.00     0.134 C 
HETATM   14  C25 UNL     1      -1.451  63.276  72.628  1.00  0.00     0.023 C 
BRANCH  13  15
HETATM   15  C21 UNL     1      -2.053  61.306  70.931  1.00  0.00     0.033 C 
BRANCH  15  16
HETATM   16  C22 UNL     1      -2.156  61.404  69.435  1.00  0.00    -0.002 C 
HETATM   17  C23 UNL     1      -3.432  60.808  68.929  1.00  0.00     0.005 C 
ENDBRANCH  15  16
ENDBRANCH  13  15
BRANCH  11  18
HETATM   18  C26 UNL     1       0.693  62.192  73.309  1.00  0.00     0.020 C 
BRANCH  18  19
HETATM   19  C27 UNL     1       1.440  60.899  73.142  1.00  0.00     0.028 C 
BRANCH  19  20
HETATM   20  C28 UNL     1       2.892  61.277  72.986  1.00  0.00    -0.025 C 
HETATM   21  C29 UNL     1       3.683  60.665  72.129  1.00  0.00    -0.091 C 
HETATM   22  C30 UNL     1       5.102  61.070  72.010  1.00  0.00     0.042 C 
HETATM   23  C31 UNL     1       3.119  59.571  71.298  1.00  0.00     0.042 C 
ENDBRANCH  19  20
ENDBRANCH  18  19
ENDBRANCH  11  18
ENDBRANCH   7   8
ENDBRANCH   4   6
BRANCH   5  24
HETATM   24  O4  UNL     1       2.417  68.803  69.592  1.00  0.00    -0.357 OA
ATOM     25  H4  UNL     1       3.148  68.823  70.200  1.00  0.00     0.217 HD
ENDBRANCH   5  24
BRANCH   2  26
HETATM   26  C5  UNL     1       2.676  67.044  64.938  1.00  0.00     0.026 C 
HETATM   27  C6  UNL     1       1.560  66.178  64.327  1.00  0.00     0.027 C 
HETATM   28  C7  UNL     1       2.573  68.342  64.215  1.00  0.00    -0.014 C 
HETATM   29  C8  UNL     1       3.234  68.554  63.098  1.00  0.00    -0.018 C 
HETATM   30  C9  UNL     1       4.116  67.556  62.466  1.00  0.00    -0.004 C 
HETATM   31  C10 UNL     1       3.622  67.397  61.027  1.00  0.00     0.021 C 
HETATM   32  C11 UNL     1       5.520  68.125  62.459  1.00  0.00     0.021 C 
HETATM   33  C12 UNL     1       4.046  66.210  63.121  1.00  0.00     0.131 C 
HETATM   34  C13 UNL     1       3.952  66.313  64.631  1.00  0.00     0.052 C 
BRANCH  33  35
HETATM   35  O1  UNL     1       5.115  65.407  62.790  1.00  0.00    -0.394 OA
ATOM     36  H1  UNL     1       4.973  64.498  63.026  1.00  0.00     0.210 HD
ENDBRANCH  33  35
ENDBRANCH   2  26
BRANCH   1  37
HETATM   37  C2  UNL     1       3.627  69.405  66.818  1.00  0.00     0.007 C 
HETATM   38  C1  UNL     1       4.915  69.509  66.894  1.00  0.00     0.012 C 
ENDBRANCH   1  37
TORSDOF 11
ENDMDL
MODEL 3
REMARK VINA RESULT: -9.941912756      1.143      1.274
REMARK  11 active torsions:
REMARK  status: ('A' for Active; 'I' for Inactive)
REMARK    1  A    between atoms: C2_2  and  C3_3 
REMARK    2  A    between atoms: C4_4  and  C5_5 
REMARK    3  A    between atoms: C12_12  and  O1_13 
REMARK    4  A    between atoms: C14_17  and  C15_18 
REMARK    5  A    between atoms: C16_19  and  C17_20 
REMARK    6  A    between atoms: C20_24  and  C21_25 
REMARK    7  A    between atoms: C21_25  and  C22_26 
REMARK    8  A    between atoms: C24_28  and  C26_30 
REMARK    9  A    between atoms: C26_30  and  C27_31 
REMARK   10  A    between atoms: C27_31  and  C28_32 
REMARK   11  A    between atoms: C32_36  and  O4_37 
ROOT
HETATM    1  C3  UNL     1      -1.099  67.628  66.341  1.00  0.00     0.030 A 
HETATM    2  C4  UNL     1       0.239  67.210  66.337  1.00  0.00     0.079 A 
HETATM    3  O2  UNL     1       0.406  66.557  67.442  1.00  0.00    -0.310 OA
HETATM    4  C14 UNL     1      -0.645  66.492  68.166  1.00  0.00     0.109 A 
HETATM    5  C32 UNL     1      -1.662  67.169  67.509  1.00  0.00     0.112 A 
ENDROOT
BRANCH   4   6
HETATM    6  C15 UNL     1      -0.757  65.828  69.453  1.00  0.00     0.040 C 
HETATM    7  C16 UNL     1       0.312  65.439  70.141  1.00  0.00     0.003 C 
BRANCH   7   8
HETATM    8  C17 UNL     1       0.211  64.782  71.417  1.00  0.00     0.006 C 
HETATM    9  C18 UNL     1       0.212  63.461  71.465  1.00  0.00    -0.046 C 
HETATM   10  C19 UNL     1       0.306  62.517  70.322  1.00  0.00     0.203 C 
HETATM   11  C24 UNL     1       0.128  62.590  72.656  1.00  0.00     0.008 C 
HETATM   12  O3  UNL     1      -0.050  61.287  70.785  1.00  0.00    -0.381 OA
HETATM   13  C20 UNL     1      -0.370  61.295  72.099  1.00  0.00     0.134 C 
HETATM   14  C25 UNL     1      -0.870  63.232  73.603  1.00  0.00     0.023 C 
BRANCH  13  15
HETATM   15  C21 UNL     1      -1.837  61.070  72.371  1.00  0.00     0.033 C 
BRANCH  15  16
HETATM   16  C22 UNL     1      -2.568  60.942  71.064  1.00  0.00    -0.002 C 
HETATM   17  C23 UNL     1      -3.922  60.332  71.247  1.00  0.00     0.005 C 
ENDBRANCH  15  16
ENDBRANCH  13  15
BRANCH  11  18
HETATM   18  C26 UNL     1       1.495  62.488  73.304  1.00  0.00     0.020 C 
BRANCH  18  19
HETATM   19  C27 UNL     1       1.483  61.746  74.612  1.00  0.00     0.028 C 
BRANCH  19  20
HETATM   20  C28 UNL     1       2.521  60.659  74.480  1.00  0.00    -0.025 C 
HETATM   21  C29 UNL     1       2.205  59.382  74.554  1.00  0.00    -0.091 C 
HETATM   22  C30 UNL     1       3.257  58.350  74.418  1.00  0.00     0.042 C 
HETATM   23  C31 UNL     1       0.784  59.014  74.774  1.00  0.00     0.042 C 
ENDBRANCH  19  20
ENDBRANCH  18  19
ENDBRANCH  11  18
ENDBRANCH   7   8
ENDBRANCH   4   6
BRANCH   5  24
HETATM   24  O4  UNL     1      -2.973  67.332  67.966  1.00  0.00    -0.357 OA
ATOM     25  H4  UNL     1      -3.411  68.132  68.235  1.00  0.00     0.217 HD
ENDBRANCH   5  24
BRANCH   2  26
HETATM   26  C5  UNL     1       1.245  67.451  65.318  1.00  0.00     0.026 C 
HETATM   27  C6  UNL     1       0.544  68.051  64.086  1.00  0.00     0.027 C 
HETATM   28  C7  UNL     1       2.178  68.521  65.769  1.00  0.00    -0.014 C 
HETATM   29  C8  UNL     1       3.405  68.596  65.301  1.00  0.00    -0.018 C 
HETATM   30  C9  UNL     1       3.963  67.658  64.311  1.00  0.00    -0.004 C 
HETATM   31  C10 UNL     1       4.487  68.515  63.157  1.00  0.00     0.021 C 
HETATM   32  C11 UNL     1       5.119  66.932  64.968  1.00  0.00     0.021 C 
HETATM   33  C12 UNL     1       2.940  66.718  63.749  1.00  0.00     0.131 C 
HETATM   34  C13 UNL     1       1.965  66.236  64.806  1.00  0.00     0.052 C 
BRANCH  33  35
HETATM   35  O1  UNL     1       3.511  65.626  63.133  1.00  0.00    -0.394 OA
ATOM     36  H1  UNL     1       3.573  64.874  63.710  1.00  0.00     0.210 HD
ENDBRANCH  33  35
ENDBRANCH   2  26
BRANCH   1  37
HETATM   37  C2  UNL     1      -1.778  68.386  65.324  1.00  0.00     0.007 C 
HETATM   38  C1  UNL     1      -3.052  68.514  65.139  1.00  0.00     0.012 C 
ENDBRANCH   1  37
TORSDOF 11
ENDMDL
MODEL 4
REMARK VINA RESULT: -9.819695441      2.090      3.780
REMARK  11 active torsions:
REMARK  status: ('A' for Active; 'I' for Inactive)
REMARK    1  A    between atoms: C2_2  and  C3_3 
REMARK    2  A    between atoms: C4_4  and  C5_5 
REMARK    3  A    between atoms: C12_12  and  O1_13 
REMARK    4  A    between atoms: C14_17  and  C15_18 
REMARK    5  A    between atoms: C16_19  and  C17_20 
REMARK    6  A    between atoms: C20_24  and  C21_25 
REMARK    7  A    between atoms: C21_25  and  C22_26 
REMARK    8  A    between atoms: C24_28  and  C26_30 
REMARK    9  A    between atoms: C26_30  and  C27_31 
REMARK   10  A    between atoms: C27_31  and  C28_32 
REMARK   11  A    between atoms: C32_36  and  O4_37 
ROOT
HETATM    1  C3  UNL     1      -1.241  67.363  67.124  1.00  0.00     0.030 A 
HETATM    2  C4  UNL     1       0.140  67.124  67.088  1.00  0.00     0.079 A 
HETATM    3  O2  UNL     1       0.367  66.237  68.002  1.00  0.00    -0.310 OA
HETATM    4  C14 UNL     1      -0.682  65.866  68.630  1.00  0.00     0.109 A 
HETATM    5  C32 UNL     1      -1.764  66.559  68.109  1.00  0.00     0.112 A 
ENDROOT
BRANCH   4   6
HETATM    6  C15 UNL     1      -0.734  64.888  69.704  1.00  0.00     0.040 C 
HETATM    7  C16 UNL     1       0.324  64.612  70.459  1.00  0.00     0.003 C 
BRANCH   7   8
HETATM    8  C17 UNL     1       0.283  63.647  71.524  1.00  0.00     0.006 C 
HETATM    9  C18 UNL     1      -0.315  63.963  72.660  1.00  0.00    -0.046 C 
HETATM   10  C19 UNL     1      -0.983  65.246  73.000  1.00  0.00     0.203 C 
HETATM   11  C24 UNL     1      -0.481  63.129  73.869  1.00  0.00     0.008 C 
HETATM   12  O3  UNL     1      -1.170  65.256  74.350  1.00  0.00    -0.381 OA
HETATM   13  C20 UNL     1      -0.710  64.136  74.951  1.00  0.00     0.134 C 
HETATM   14  C25 UNL     1       0.817  62.364  74.058  1.00  0.00     0.023 C 
BRANCH  13  15
HETATM   15  C21 UNL     1       0.513  64.360  75.804  1.00  0.00     0.033 C 
BRANCH  15  16
HETATM   16  C22 UNL     1       0.222  63.919  77.211  1.00  0.00    -0.002 C 
HETATM   17  C23 UNL     1      -0.796  64.800  77.865  1.00  0.00     0.005 C 
ENDBRANCH  15  16
ENDBRANCH  13  15
BRANCH  11  18
HETATM   18  C26 UNL     1      -1.643  62.175  73.669  1.00  0.00     0.020 C 
BRANCH  18  19
HETATM   19  C27 UNL     1      -1.376  61.113  72.639  1.00  0.00     0.028 C 
BRANCH  19  20
HETATM   20  C28 UNL     1      -2.730  60.669  72.143  1.00  0.00    -0.025 C 
HETATM   21  C29 UNL     1      -3.068  60.753  70.873  1.00  0.00    -0.091 C 
HETATM   22  C30 UNL     1      -4.408  60.304  70.432  1.00  0.00     0.042 C 
HETATM   23  C31 UNL     1      -2.081  61.304  69.910  1.00  0.00     0.042 C 
ENDBRANCH  19  20
ENDBRANCH  18  19
ENDBRANCH  11  18
ENDBRANCH   7   8
ENDBRANCH   4   6
BRANCH   5  24
HETATM   24  O4  UNL     1      -3.095  66.442  68.523  1.00  0.00    -0.357 OA
ATOM     25  H4  UNL     1      -3.481  65.791  69.097  1.00  0.00     0.217 HD
ENDBRANCH   5  24
BRANCH   2  26
HETATM   26  C5  UNL     1       1.127  67.734  66.215  1.00  0.00     0.026 C 
HETATM   27  C6  UNL     1       1.235  69.225  66.582  1.00  0.00     0.027 C 
HETATM   28  C7  UNL     1       2.478  67.183  66.515  1.00  0.00    -0.014 C 
HETATM   29  C8  UNL     1       3.429  67.178  65.605  1.00  0.00    -0.018 C 
HETATM   30  C9  UNL     1       3.259  67.705  64.240  1.00  0.00    -0.004 C 
HETATM   31  C10 UNL     1       4.378  68.728  64.032  1.00  0.00     0.021 C 
HETATM   32  C11 UNL     1       3.443  66.550  63.277  1.00  0.00     0.021 C 
HETATM   33  C12 UNL     1       1.953  68.414  64.041  1.00  0.00     0.131 C 
HETATM   34  C13 UNL     1       0.809  67.714  64.748  1.00  0.00     0.052 C 
BRANCH  33  35
HETATM   35  O1  UNL     1       1.635  68.566  62.709  1.00  0.00    -0.394 OA
ATOM     36  H1  UNL     1       2.308  68.223  62.133  1.00  0.00     0.210 HD
ENDBRANCH  33  35
ENDBRANCH   2  26
BRANCH   1  37
HETATM   37  C2  UNL     1      -1.991  68.267  66.293  1.00  0.00     0.007 C 
HETATM   38  C1  UNL     1      -3.148  68.077  65.745  1.00  0.00     0.012 C 
ENDBRANCH   1  37
TORSDOF 11
ENDMDL
MODEL 5
REMARK VINA RESULT: -9.677061794      1.527      2.241
REMARK  11 active torsions:
REMARK  status: ('A' for Active; 'I' for Inactive)
REMARK    1  A    between atoms: C2_2  and  C3_3 
REMARK    2  A    between atoms: C4_4  and  C5_5 
REMARK    3  A    between atoms: C12_12  and  O1_13 
REMARK    4  A    between atoms: C14_17  and  C15_18 
REMARK    5  A    between atoms: C16_19  and  C17_20 
REMARK    6  A    between atoms: C20_24  and  C21_25 
REMARK    7  A    between atoms: C21_25  and  C22_26 
REMARK    8  A    between atoms: C24_28  and  C26_30 
REMARK    9  A    between atoms: C26_30  and  C27_31 
REMARK   10  A    between atoms: C27_31  and  C28_32 
REMARK   11  A    between atoms: C32_36  and  O4_37 
ROOT
HETATM    1  C3  UNL     1       0.182  67.067  67.195  1.00  0.00     0.030 A 
HETATM    2  C4  UNL     1       1.528  66.820  66.887  1.00  0.00     0.079 A 
HETATM    3  O2  UNL     1       2.002  66.156  67.891  1.00  0.00    -0.310 OA
HETATM    4  C14 UNL     1       1.145  65.936  68.813  1.00  0.00     0.109 A 
HETATM    5  C32 UNL     1      -0.060  66.503  68.425  1.00  0.00     0.112 A 
ENDROOT
BRANCH   4   6
HETATM    6  C15 UNL     1       1.388  65.219  70.053  1.00  0.00     0.040 C 
HETATM    7  C16 UNL     1       1.638  63.914  70.076  1.00  0.00     0.003 C 
BRANCH   7   8
HETATM    8  C17 UNL     1       1.881  63.195  71.298  1.00  0.00     0.006 C 
HETATM    9  C18 UNL     1       0.855  62.732  71.990  1.00  0.00    -0.046 C 
HETATM   10  C19 UNL     1      -0.587  62.860  71.660  1.00  0.00     0.203 C 
HETATM   11  C24 UNL     1       0.877  61.966  73.254  1.00  0.00     0.008 C 
HETATM   12  O3  UNL     1      -1.288  62.531  72.781  1.00  0.00    -0.381 OA
HETATM   13  C20 UNL     1      -0.488  62.198  73.819  1.00  0.00     0.134 C 
HETATM   14  C25 UNL     1       1.969  62.572  74.118  1.00  0.00     0.023 C 
BRANCH  13  15
HETATM   15  C21 UNL     1      -0.489  63.209  74.939  1.00  0.00     0.033 C 
BRANCH  15  16
HETATM   16  C22 UNL     1      -1.628  64.169  74.737  1.00  0.00    -0.002 C 
HETATM   17  C23 UNL     1      -1.146  65.504  74.262  1.00  0.00     0.005 C 
ENDBRANCH  15  16
ENDBRANCH  13  15
BRANCH  11  18
HETATM   18  C26 UNL     1       1.173  60.509  72.958  1.00  0.00     0.020 C 
BRANCH  18  19
HETATM   19  C27 UNL     1       2.642  60.205  72.851  1.00  0.00     0.028 C 
BRANCH  19  20
HETATM   20  C28 UNL     1       2.876  59.791  71.419  1.00  0.00    -0.025 C 
HETATM   21  C29 UNL     1       3.918  60.214  70.733  1.00  0.00    -0.091 C 
HETATM   22  C30 UNL     1       4.106  59.781  69.331  1.00  0.00     0.042 C 
HETATM   23  C31 UNL     1       4.884  61.125  71.398  1.00  0.00     0.042 C 
ENDBRANCH  19  20
ENDBRANCH  18  19
ENDBRANCH  11  18
ENDBRANCH   7   8
ENDBRANCH   4   6
BRANCH   5  24
HETATM   24  O4  UNL     1      -1.253  66.485  69.155  1.00  0.00    -0.357 OA
ATOM     25  H4  UNL     1      -1.370  66.413  70.095  1.00  0.00     0.217 HD
ENDBRANCH   5  24
BRANCH   2  26
HETATM   26  C5  UNL     1       2.257  67.220  65.696  1.00  0.00     0.026 C 
HETATM   27  C6  UNL     1       1.232  67.591  64.609  1.00  0.00     0.027 C 
HETATM   28  C7  UNL     1       2.995  68.487  65.955  1.00  0.00    -0.014 C 
HETATM   29  C8  UNL     1       4.072  68.801  65.267  1.00  0.00    -0.018 C 
HETATM   30  C9  UNL     1       4.638  67.955  64.201  1.00  0.00    -0.004 C 
HETATM   31  C10 UNL     1       4.745  68.845  62.960  1.00  0.00     0.021 C 
HETATM   32  C11 UNL     1       6.023  67.530  64.640  1.00  0.00     0.021 C 
HETATM   33  C12 UNL     1       3.765  66.789  63.849  1.00  0.00     0.131 C 
HETATM   34  C13 UNL     1       3.124  66.164  65.073  1.00  0.00     0.052 C 
BRANCH  33  35
HETATM   35  O1  UNL     1       4.443  65.816  63.149  1.00  0.00    -0.394 OA
ATOM     36  H1  UNL     1       4.178  64.938  63.397  1.00  0.00     0.210 HD
ENDBRANCH  33  35
ENDBRANCH   2  26
BRANCH   1  37
HETATM   37  C2  UNL     1      -0.781  67.769  66.389  1.00  0.00     0.007 C 
HETATM   38  C1  UNL     1      -1.397  68.874  66.659  1.00  0.00     0.012 C 
ENDBRANCH   1  37
TORSDOF 11
ENDMDL
