MODEL 1
REMARK VINA RESULT: -6.724803209      0.000      0.000
REMARK  4 active torsions:
REMARK  status: ('A' for Active; 'I' for Inactive)
REMARK       I    between atoms: C1_2  and  N1_3 
REMARK    1  A    between atoms: C1_2  and  C13_21 
REMARK    2  A    between atoms: N1_3  and  C2_5 
REMARK    3  A    between atoms: C2_5  and  C3_6 
REMARK    4  A    between atoms: C5_8  and  N2_9 
ROOT
HETATM    1  C3  UNL     1     -25.437  51.258  48.491  1.00  0.00     0.205 C 
HETATM    2  C4  UNL     1     -24.461  50.593  49.409  1.00  0.00     0.061 C 
HETATM    3  C5  UNL     1     -24.787  49.130  49.364  1.00  0.00     0.112 C 
HETATM    4  C12 UNL     1     -26.083  49.096  48.588  1.00  0.00     0.257 C 
HETATM    5  N3  UNL     1     -25.943  50.187  47.658  1.00  0.00    -0.067 N 
ATOM      6  H31 UNL     1     -25.373  49.978  46.838  1.00  0.00     0.277 HD
ATOM      7  H32 UNL     1     -26.791  50.416  47.139  1.00  0.00     0.277 HD
ENDROOT
BRANCH   1   8
HETATM    8  C2  UNL     1     -26.580  51.911  49.189  1.00  0.00     0.155 C 
BRANCH   8   9
HETATM    9  N1  UNL     1     -26.218  52.576  50.403  1.00  0.00    -0.359 N 
HETATM   10  C1  UNL     1     -25.963  53.962  50.390  1.00  0.00     0.221 C 
HETATM   11  O1  UNL     1     -26.047  54.617  49.331  1.00  0.00    -0.273 OA
ATOM     12  H1  UNL     1     -26.146  52.050  51.274  1.00  0.00     0.162 HD
BRANCH  10  13
HETATM   13  C13 UNL     1     -25.589  54.658  51.638  1.00  0.00     0.078 A 
HETATM   14  C14 UNL     1     -24.266  54.328  52.272  1.00  0.00     0.015 A 
HETATM   15  C15 UNL     1     -24.455  55.611  51.550  1.00  0.00     0.015 A 
ENDBRANCH  10  13
ENDBRANCH   8   9
ENDBRANCH   1   8
BRANCH   3  16
HETATM   16  N2  UNL     1     -23.863  48.283  48.757  1.00  0.00    -0.375 N 
HETATM   17  C6  UNL     1     -22.690  48.779  48.171  1.00  0.00     0.096 C 
HETATM   18  C7  UNL     1     -22.112  47.543  47.491  1.00  0.00     0.210 C 
HETATM   19  F1  UNL     1     -22.438  47.638  46.147  1.00  0.00    -0.244 F 
HETATM   20  C8  UNL     1     -22.869  46.361  48.053  1.00  0.00     0.073 C 
HETATM   21  C9  UNL     1     -23.566  47.016  49.262  1.00  0.00     0.035 A 
HETATM   22  C10 UNL     1     -23.092  46.651  50.590  1.00  0.00     0.033 A 
HETATM   23  C11 UNL     1     -24.480  46.199  50.083  1.00  0.00     0.033 A 
ENDBRANCH   3  16
TORSDOF 4
ENDMDL
MODEL 2
REMARK VINA RESULT: -6.696552629      1.153      1.326
REMARK  4 active torsions:
REMARK  status: ('A' for Active; 'I' for Inactive)
REMARK       I    between atoms: C1_2  and  N1_3 
REMARK    1  A    between atoms: C1_2  and  C13_21 
REMARK    2  A    between atoms: N1_3  and  C2_5 
REMARK    3  A    between atoms: C2_5  and  C3_6 
REMARK    4  A    between atoms: C5_8  and  N2_9 
ROOT
HETATM    1  C3  UNL     1     -25.927  50.749  47.945  1.00  0.00     0.205 C 
HETATM    2  C4  UNL     1     -24.474  50.468  48.163  1.00  0.00     0.061 C 
HETATM    3  C5  UNL     1     -24.397  49.044  48.626  1.00  0.00     0.112 C 
HETATM    4  C12 UNL     1     -25.845  48.683  48.856  1.00  0.00     0.257 C 
HETATM    5  N3  UNL     1     -26.541  49.441  47.848  1.00  0.00    -0.067 N 
ATOM      6  H31 UNL     1     -26.520  49.029  46.914  1.00  0.00     0.277 HD
ATOM      7  H32 UNL     1     -27.557  49.440  47.938  1.00  0.00     0.277 HD
ENDROOT
BRANCH   1   8
HETATM    8  C2  UNL     1     -26.572  51.506  49.054  1.00  0.00     0.155 C 
BRANCH   8   9
HETATM    9  N1  UNL     1     -25.665  52.306  49.819  1.00  0.00    -0.359 N 
HETATM   10  C1  UNL     1     -25.636  53.702  49.628  1.00  0.00     0.221 C 
HETATM   11  O1  UNL     1     -26.392  54.250  48.799  1.00  0.00    -0.273 OA
ATOM     12  H1  UNL     1     -25.043  51.869  50.498  1.00  0.00     0.162 HD
BRANCH  10  13
HETATM   13  C13 UNL     1     -24.705  54.538  50.413  1.00  0.00     0.078 A 
HETATM   14  C14 UNL     1     -25.213  55.185  51.672  1.00  0.00     0.015 A 
HETATM   15  C15 UNL     1     -24.304  54.013  51.742  1.00  0.00     0.015 A 
ENDBRANCH  10  13
ENDBRANCH   8   9
ENDBRANCH   1   8
BRANCH   3  16
HETATM   16  N2  UNL     1     -23.821  48.115  47.761  1.00  0.00    -0.375 N 
HETATM   17  C6  UNL     1     -23.344  48.491  46.498  1.00  0.00     0.096 C 
HETATM   18  C7  UNL     1     -22.995  47.149  45.865  1.00  0.00     0.210 C 
HETATM   19  F1  UNL     1     -24.041  46.824  45.015  1.00  0.00    -0.244 F 
HETATM   20  C8  UNL     1     -23.001  46.138  46.990  1.00  0.00     0.073 C 
HETATM   21  C9  UNL     1     -23.010  47.074  48.215  1.00  0.00     0.035 A 
HETATM   22  C10 UNL     1     -21.794  47.146  49.014  1.00  0.00     0.033 A 
HETATM   23  C11 UNL     1     -23.075  46.478  49.563  1.00  0.00     0.033 A 
ENDBRANCH   3  16
TORSDOF 4
ENDMDL
MODEL 3
REMARK VINA RESULT: -6.635127176      1.334      1.409
REMARK  4 active torsions:
REMARK  status: ('A' for Active; 'I' for Inactive)
REMARK       I    between atoms: C1_2  and  N1_3 
REMARK    1  A    between atoms: C1_2  and  C13_21 
REMARK    2  A    between atoms: N1_3  and  C2_5 
REMARK    3  A    between atoms: C2_5  and  C3_6 
REMARK    4  A    between atoms: C5_8  and  N2_9 
ROOT
HETATM    1  C3  UNL     1     -25.135  50.542  48.622  1.00  0.00     0.205 C 
HETATM    2  C4  UNL     1     -23.811  50.188  49.220  1.00  0.00     0.061 C 
HETATM    3  C5  UNL     1     -23.823  48.698  49.392  1.00  0.00     0.112 C 
HETATM    4  C12 UNL     1     -25.256  48.334  49.085  1.00  0.00     0.257 C 
HETATM    5  N3  UNL     1     -25.636  49.296  48.081  1.00  0.00    -0.067 N 
ATOM      6  H31 UNL     1     -25.312  49.079  47.138  1.00  0.00     0.277 HD
ATOM      7  H32 UNL     1     -26.630  49.301  47.850  1.00  0.00     0.277 HD
ENDROOT
BRANCH   1   8
HETATM    8  C2  UNL     1     -26.121  51.076  49.603  1.00  0.00     0.155 C 
BRANCH   8   9
HETATM    9  N1  UNL     1     -25.956  52.467  49.896  1.00  0.00    -0.359 N 
HETATM   10  C1  UNL     1     -25.825  52.886  51.236  1.00  0.00     0.221 C 
HETATM   11  O1  UNL     1     -25.851  52.058  52.170  1.00  0.00    -0.273 OA
ATOM     12  H1  UNL     1     -25.935  53.151  49.141  1.00  0.00     0.162 HD
BRANCH  10  13
HETATM   13  C13 UNL     1     -25.655  54.319  51.550  1.00  0.00     0.078 A 
HETATM   14  C14 UNL     1     -24.353  54.768  52.155  1.00  0.00     0.015 A 
HETATM   15  C15 UNL     1     -24.663  55.062  50.733  1.00  0.00     0.015 A 
ENDBRANCH  10  13
ENDBRANCH   8   9
ENDBRANCH   1   8
BRANCH   3  16
HETATM   16  N2  UNL     1     -22.972  47.949  48.582  1.00  0.00    -0.375 N 
HETATM   17  C6  UNL     1     -22.330  48.517  47.473  1.00  0.00     0.096 C 
HETATM   18  C7  UNL     1     -21.683  47.307  46.810  1.00  0.00     0.210 C 
HETATM   19  F1  UNL     1     -22.498  46.949  45.747  1.00  0.00    -0.244 F 
HETATM   20  C8  UNL     1     -21.751  46.185  47.823  1.00  0.00     0.073 C 
HETATM   21  C9  UNL     1     -22.118  46.973  49.097  1.00  0.00     0.035 A 
HETATM   22  C10 UNL     1     -21.092  47.107  50.123  1.00  0.00     0.033 A 
HETATM   23  C11 UNL     1     -22.344  46.229  50.351  1.00  0.00     0.033 A 
ENDBRANCH   3  16
TORSDOF 4
ENDMDL
MODEL 4
REMARK VINA RESULT: -6.627630679      3.651      6.227
REMARK  4 active torsions:
REMARK  status: ('A' for Active; 'I' for Inactive)
REMARK       I    between atoms: C1_2  and  N1_3 
REMARK    1  A    between atoms: C1_2  and  C13_21 
REMARK    2  A    between atoms: N1_3  and  C2_5 
REMARK    3  A    between atoms: C2_5  and  C3_6 
REMARK    4  A    between atoms: C5_8  and  N2_9 
ROOT
HETATM    1  C3  UNL     1     -21.672  48.056  50.100  1.00  0.00     0.205 C 
HETATM    2  C4  UNL     1     -23.127  47.833  49.831  1.00  0.00     0.061 C 
HETATM    3  C5  UNL     1     -23.737  49.198  49.720  1.00  0.00     0.112 C 
HETATM    4  C12 UNL     1     -22.616  50.108  50.162  1.00  0.00     0.257 C 
HETATM    5  N3  UNL     1     -21.433  49.427  49.700  1.00  0.00    -0.067 N 
ATOM      6  H31 UNL     1     -21.230  49.552  48.707  1.00  0.00     0.277 HD
ATOM      7  H32 UNL     1     -20.555  49.822  50.036  1.00  0.00     0.277 HD
ENDROOT
BRANCH   1   8
HETATM    8  C2  UNL     1     -21.287  47.895  51.530  1.00  0.00     0.155 C 
BRANCH   8   9
HETATM    9  N1  UNL     1     -22.272  47.230  52.328  1.00  0.00    -0.359 N 
HETATM   10  C1  UNL     1     -21.915  46.079  53.059  1.00  0.00     0.221 C 
HETATM   11  O1  UNL     1     -20.751  45.631  53.019  1.00  0.00    -0.273 OA
ATOM     12  H1  UNL     1     -23.226  47.587  52.367  1.00  0.00     0.162 HD
BRANCH  10  13
HETATM   13  C13 UNL     1     -22.923  45.385  53.886  1.00  0.00     0.078 A 
HETATM   14  C14 UNL     1     -23.683  46.186  54.908  1.00  0.00     0.015 A 
HETATM   15  C15 UNL     1     -24.341  45.755  53.649  1.00  0.00     0.015 A 
ENDBRANCH  10  13
ENDBRANCH   8   9
ENDBRANCH   1   8
BRANCH   3  16
HETATM   16  N2  UNL     1     -24.192  49.600  48.466  1.00  0.00    -0.375 N 
HETATM   17  C6  UNL     1     -23.883  48.872  47.308  1.00  0.00     0.096 C 
HETATM   18  C7  UNL     1     -24.417  49.773  46.201  1.00  0.00     0.210 C 
HETATM   19  F1  UNL     1     -23.327  50.449  45.675  1.00  0.00    -0.244 F 
HETATM   20  C8  UNL     1     -25.296  50.800  46.879  1.00  0.00     0.073 C 
HETATM   21  C9  UNL     1     -25.454  50.164  48.274  1.00  0.00     0.035 A 
HETATM   22  C10 UNL     1     -26.760  49.616  48.618  1.00  0.00     0.033 A 
HETATM   23  C11 UNL     1     -26.220  50.892  49.304  1.00  0.00     0.033 A 
ENDBRANCH   3  16
TORSDOF 4
ENDMDL
MODEL 5
REMARK VINA RESULT: -6.579283921      3.015      4.067
REMARK  4 active torsions:
REMARK  status: ('A' for Active; 'I' for Inactive)
REMARK       I    between atoms: C1_2  and  N1_3 
REMARK    1  A    between atoms: C1_2  and  C13_21 
REMARK    2  A    between atoms: N1_3  and  C2_5 
REMARK    3  A    between atoms: C2_5  and  C3_6 
REMARK    4  A    between atoms: C5_8  and  N2_9 
ROOT
HETATM    1  C3  UNL     1     -22.305  49.015  49.683  1.00  0.00     0.205 C 
HETATM    2  C4  UNL     1     -22.219  48.970  51.176  1.00  0.00     0.061 C 
HETATM    3  C5  UNL     1     -22.967  47.740  51.593  1.00  0.00     0.112 C 
HETATM    4  C12 UNL     1     -23.623  47.290  50.309  1.00  0.00     0.257 C 
HETATM    5  N3  UNL     1     -22.667  47.667  49.298  1.00  0.00    -0.067 N 
ATOM      6  H31 UNL     1     -21.880  47.026  49.195  1.00  0.00     0.277 HD
ATOM      7  H32 UNL     1     -23.002  47.573  48.339  1.00  0.00     0.277 HD
ENDROOT
BRANCH   1   8
HETATM    8  C2  UNL     1     -23.330  49.961  49.162  1.00  0.00     0.155 C 
BRANCH   8   9
HETATM    9  N1  UNL     1     -23.671  51.011  50.071  1.00  0.00    -0.359 N 
HETATM   10  C1  UNL     1     -25.026  51.299  50.328  1.00  0.00     0.221 C 
HETATM   11  O1  UNL     1     -25.934  50.648  49.772  1.00  0.00    -0.273 OA
ATOM     12  H1  UNL     1     -22.937  51.550  50.531  1.00  0.00     0.162 HD
BRANCH  10  13
HETATM   13  C13 UNL     1     -25.389  52.381  51.266  1.00  0.00     0.078 A 
HETATM   14  C14 UNL     1     -25.386  52.080  52.740  1.00  0.00     0.015 A 
HETATM   15  C15 UNL     1     -24.302  52.895  52.136  1.00  0.00     0.015 A 
ENDBRANCH  10  13
ENDBRANCH   8   9
ENDBRANCH   1   8
BRANCH   3  16
HETATM   16  N2  UNL     1     -22.228  46.686  52.128  1.00  0.00    -0.375 N 
HETATM   17  C6  UNL     1     -20.830  46.741  52.207  1.00  0.00     0.096 C 
HETATM   18  C7  UNL     1     -20.471  45.332  52.666  1.00  0.00     0.210 C 
HETATM   19  F1  UNL     1     -20.057  44.638  51.541  1.00  0.00    -0.244 F 
HETATM   20  C8  UNL     1     -21.763  44.699  53.133  1.00  0.00     0.073 C 
HETATM   21  C9  UNL     1     -22.674  45.940  53.219  1.00  0.00     0.035 A 
HETATM   22  C10 UNL     1     -23.055  46.402  54.548  1.00  0.00     0.033 A 
HETATM   23  C11 UNL     1     -24.088  45.756  53.597  1.00  0.00     0.033 A 
ENDBRANCH   3  16
TORSDOF 4
ENDMDL
