MODEL 1
REMARK VINA RESULT: -6.782374493      0.000      0.000
REMARK  12 active torsions:
REMARK  status: ('A' for Active; 'I' for Inactive)
REMARK    1  A    between atoms: C2_2  and  O1_3 
REMARK    2  A    between atoms: C5_7  and  C6_8 
REMARK    3  A    between atoms: C6_8  and  O2_9 
REMARK    4  A    between atoms: O2_9  and  S1_10 
REMARK    5  A    between atoms: C8_16  and  C9_17 
REMARK    6  A    between atoms: C9_17  and  C10_18 
REMARK    7  A    between atoms: C10_18  and  C11_19 
REMARK    8  A    between atoms: C11_19  and  C12_20 
REMARK    9  A    between atoms: C14_22  and  O6_23 
REMARK   10  A    between atoms: C15_25  and  O7_26 
REMARK   11  A    between atoms: C16_28  and  C17_29 
REMARK   12  A    between atoms: C17_29  and  O8_30 
ROOT
HETATM    1  C1  UNL     1      27.608  -0.621  11.048  1.00  0.00     0.051 C 
HETATM    2  C2  UNL     1      28.007  -1.065   9.645  1.00  0.00     0.087 C 
HETATM    3  C3  UNL     1      27.654  -2.592   9.699  1.00  0.00     0.044 C 
HETATM    4  C4  UNL     1      28.141  -3.228  10.951  1.00  0.00     0.021 C 
HETATM    5  C5  UNL     1      29.620  -3.216  11.159  1.00  0.00     0.077 C 
HETATM    6  S2  UNL     1      30.305  -1.565  10.855  1.00  0.00    -0.124 SA
HETATM    7  C7  UNL     1      29.418  -1.017   9.321  1.00  0.00     0.009 C 
HETATM    8  C8  UNL     1      30.136   0.026   8.623  1.00  0.00    -0.010 C 
ENDROOT
BRANCH   8   9
HETATM    9  C9  UNL     1      30.253   1.415   9.038  1.00  0.00     0.028 C 
BRANCH   9  10
HETATM   10  C10 UNL     1      29.886   2.523   8.109  1.00  0.00     0.006 C 
BRANCH  10  11
HETATM   11  C11 UNL     1      28.395   2.573   7.875  1.00  0.00     0.032 C 
BRANCH  11  12
HETATM   12  C12 UNL     1      27.994   2.364   6.460  1.00  0.00     0.124 C 
HETATM   13  C13 UNL     1      28.962   2.930   5.461  1.00  0.00     0.066 C 
HETATM   14  C14 UNL     1      29.080   2.174   4.202  1.00  0.00     0.151 C 
HETATM   15  C15 UNL     1      27.964   1.237   3.886  1.00  0.00     0.178 C 
HETATM   16  C16 UNL     1      27.165   0.809   5.090  1.00  0.00     0.176 C 
HETATM   17  O9  UNL     1      27.924   0.989   6.237  1.00  0.00    -0.376 OA
BRANCH  14  18
HETATM   18  O6  UNL     1      30.299   1.480   4.206  1.00  0.00    -0.393 OA
ATOM     19  H6  UNL     1      30.809   1.756   3.453  1.00  0.00     0.210 HD
ENDBRANCH  14  18
BRANCH  15  20
HETATM   20  O7  UNL     1      28.486   0.065   3.312  1.00  0.00    -0.390 OA
ATOM     21  H7  UNL     1      28.321  -0.670   3.890  1.00  0.00     0.210 HD
ENDBRANCH  15  20
BRANCH  16  22
HETATM   22  C17 UNL     1      26.739  -0.635   5.005  1.00  0.00     0.198 C 
BRANCH  22  23
HETATM   23  O8  UNL     1      27.563  -1.370   5.852  1.00  0.00    -0.398 OA
ATOM     24  H8  UNL     1      28.308  -1.669   5.344  1.00  0.00     0.209 HD
ENDBRANCH  22  23
ENDBRANCH  16  22
ENDBRANCH  11  12
ENDBRANCH  10  11
ENDBRANCH   9  10
ENDBRANCH   8   9
BRANCH   2  25
HETATM   25  O1  UNL     1      27.118  -0.574   8.703  1.00  0.00    -0.385 OA
ATOM     26  H1  UNL     1      27.294   0.341   8.520  1.00  0.00     0.211 HD
ENDBRANCH   2  25
BRANCH   5  27
HETATM   27  C6  UNL     1      29.962  -3.734  12.521  1.00  0.00     0.208 C 
BRANCH  27  28
HETATM   28  O2  UNL     1      30.808  -4.806  12.415  1.00  0.00    -0.256 OA
BRANCH  28  29
HETATM   29  S1  UNL     1      32.259  -4.590  13.211  1.00  0.00     0.251 S 
HETATM   30  O3  UNL     1      32.545  -5.868  13.973  1.00  0.00    -0.572 OA
HETATM   31  O4  UNL     1      32.212  -3.405  14.153  1.00  0.00    -0.572 OA
HETATM   32  O5  UNL     1      33.532  -4.372  12.135  1.00  0.00    -0.572 OA
ENDBRANCH  28  29
ENDBRANCH  27  28
ENDBRANCH   5  27
TORSDOF 12
ENDMDL
MODEL 2
REMARK VINA RESULT: -6.682256467      2.998      4.333
REMARK  12 active torsions:
REMARK  status: ('A' for Active; 'I' for Inactive)
REMARK    1  A    between atoms: C2_2  and  O1_3 
REMARK    2  A    between atoms: C5_7  and  C6_8 
REMARK    3  A    between atoms: C6_8  and  O2_9 
REMARK    4  A    between atoms: O2_9  and  S1_10 
REMARK    5  A    between atoms: C8_16  and  C9_17 
REMARK    6  A    between atoms: C9_17  and  C10_18 
REMARK    7  A    between atoms: C10_18  and  C11_19 
REMARK    8  A    between atoms: C11_19  and  C12_20 
REMARK    9  A    between atoms: C14_22  and  O6_23 
REMARK   10  A    between atoms: C15_25  and  O7_26 
REMARK   11  A    between atoms: C16_28  and  C17_29 
REMARK   12  A    between atoms: C17_29  and  O8_30 
ROOT
HETATM    1  C1  UNL     1      32.491   1.023   7.550  1.00  0.00     0.051 C 
HETATM    2  C2  UNL     1      32.223   1.751   8.862  1.00  0.00     0.087 C 
HETATM    3  C3  UNL     1      32.629   0.654   9.905  1.00  0.00     0.044 C 
HETATM    4  C4  UNL     1      32.069  -0.678   9.554  1.00  0.00     0.021 C 
HETATM    5  C5  UNL     1      30.579  -0.774   9.527  1.00  0.00     0.077 C 
HETATM    6  S2  UNL     1      29.857   0.600   8.590  1.00  0.00    -0.124 SA
HETATM    7  C7  UNL     1      30.841   2.064   9.164  1.00  0.00     0.009 C 
HETATM    8  C8  UNL     1      30.141   3.309   8.942  1.00  0.00    -0.010 C 
ENDROOT
BRANCH   8   9
HETATM    9  C9  UNL     1      29.937   3.963   7.659  1.00  0.00     0.028 C 
BRANCH   9  10
HETATM   10  C10 UNL     1      28.737   3.655   6.827  1.00  0.00     0.006 C 
BRANCH  10  11
HETATM   11  C11 UNL     1      29.129   3.258   5.424  1.00  0.00     0.032 C 
BRANCH  11  12
HETATM   12  C12 UNL     1      28.422   2.056   4.912  1.00  0.00     0.124 C 
HETATM   13  C13 UNL     1      29.337   0.988   4.386  1.00  0.00     0.066 C 
HETATM   14  C14 UNL     1      28.868  -0.395   4.584  1.00  0.00     0.151 C 
HETATM   15  C15 UNL     1      27.413  -0.566   4.865  1.00  0.00     0.178 C 
HETATM   16  C16 UNL     1      26.747   0.669   5.412  1.00  0.00     0.176 C 
HETATM   17  O9  UNL     1      27.703   1.503   5.972  1.00  0.00    -0.376 OA
BRANCH  14  18
HETATM   18  O6  UNL     1      29.624  -0.985   5.608  1.00  0.00    -0.393 OA
ATOM     19  H6  UNL     1      30.545  -0.906   5.390  1.00  0.00     0.210 HD
ENDBRANCH  14  18
BRANCH  15  20
HETATM   20  O7  UNL     1      27.239  -1.577   5.825  1.00  0.00    -0.390 OA
ATOM     21  H7  UNL     1      27.600  -2.391   5.495  1.00  0.00     0.210 HD
ENDBRANCH  15  20
BRANCH  16  22
HETATM   22  C17 UNL     1      25.711   0.340   6.458  1.00  0.00     0.198 C 
BRANCH  22  23
HETATM   23  O8  UNL     1      26.299   0.518   7.707  1.00  0.00    -0.398 OA
ATOM     24  H8  UNL     1      26.210  -0.297   8.188  1.00  0.00     0.209 HD
ENDBRANCH  22  23
ENDBRANCH  16  22
ENDBRANCH  11  12
ENDBRANCH  10  11
ENDBRANCH   9  10
ENDBRANCH   8   9
BRANCH   2  25
HETATM   25  O1  UNL     1      33.163   2.745   9.073  1.00  0.00    -0.385 OA
ATOM     26  H1  UNL     1      32.785   3.469   9.559  1.00  0.00     0.211 HD
ENDBRANCH   2  25
BRANCH   5  27
HETATM   27  C6  UNL     1      30.150  -2.109   9.003  1.00  0.00     0.208 C 
BRANCH  27  28
HETATM   28  O2  UNL     1      28.952  -1.991   8.349  1.00  0.00    -0.256 OA
BRANCH  28  29
HETATM   29  S1  UNL     1      27.643  -2.471   9.265  1.00  0.00     0.251 S 
HETATM   30  O3  UNL     1      26.715  -3.241   8.349  1.00  0.00    -0.572 OA
HETATM   31  O4  UNL     1      26.926  -1.288   9.881  1.00  0.00    -0.572 OA
HETATM   32  O5  UNL     1      28.096  -3.524  10.494  1.00  0.00    -0.572 OA
ENDBRANCH  28  29
ENDBRANCH  27  28
ENDBRANCH   5  27
TORSDOF 12
ENDMDL
MODEL 3
REMARK VINA RESULT: -6.610315880      1.817      2.445
REMARK  12 active torsions:
REMARK  status: ('A' for Active; 'I' for Inactive)
REMARK    1  A    between atoms: C2_2  and  O1_3 
REMARK    2  A    between atoms: C5_7  and  C6_8 
REMARK    3  A    between atoms: C6_8  and  O2_9 
REMARK    4  A    between atoms: O2_9  and  S1_10 
REMARK    5  A    between atoms: C8_16  and  C9_17 
REMARK    6  A    between atoms: C9_17  and  C10_18 
REMARK    7  A    between atoms: C10_18  and  C11_19 
REMARK    8  A    between atoms: C11_19  and  C12_20 
REMARK    9  A    between atoms: C14_22  and  O6_23 
REMARK   10  A    between atoms: C15_25  and  O7_26 
REMARK   11  A    between atoms: C16_28  and  C17_29 
REMARK   12  A    between atoms: C17_29  and  O8_30 
ROOT
HETATM    1  C1  UNL     1      28.823  -1.677   8.969  1.00  0.00     0.051 C 
HETATM    2  C2  UNL     1      29.900  -0.731   8.451  1.00  0.00     0.087 C 
HETATM    3  C3  UNL     1      31.179  -1.629   8.579  1.00  0.00     0.044 C 
HETATM    4  C4  UNL     1      31.235  -2.328   9.890  1.00  0.00     0.021 C 
HETATM    5  C5  UNL     1      31.317  -1.451  11.095  1.00  0.00     0.077 C 
HETATM    6  S2  UNL     1      30.083  -0.124  11.018  1.00  0.00    -0.124 SA
HETATM    7  C7  UNL     1      30.182   0.441   9.254  1.00  0.00     0.009 C 
HETATM    8  C8  UNL     1      29.668   1.782   9.085  1.00  0.00    -0.010 C 
ENDROOT
BRANCH   8   9
HETATM    9  C9  UNL     1      28.269   2.176   9.122  1.00  0.00     0.028 C 
BRANCH   9  10
HETATM   10  C10 UNL     1      27.519   2.449   7.860  1.00  0.00     0.006 C 
BRANCH  10  11
HETATM   11  C11 UNL     1      28.358   3.238   6.883  1.00  0.00     0.032 C 
BRANCH  11  12
HETATM   12  C12 UNL     1      28.453   2.627   5.532  1.00  0.00     0.124 C 
HETATM   13  C13 UNL     1      29.844   2.608   4.968  1.00  0.00     0.066 C 
HETATM   14  C14 UNL     1      30.158   1.450   4.112  1.00  0.00     0.151 C 
HETATM   15  C15 UNL     1      28.994   0.697   3.563  1.00  0.00     0.178 C 
HETATM   16  C16 UNL     1      27.721   0.883   4.348  1.00  0.00     0.176 C 
HETATM   17  O9  UNL     1      28.026   1.303   5.634  1.00  0.00    -0.376 OA
BRANCH  14  18
HETATM   18  O6  UNL     1      30.997   0.579   4.823  1.00  0.00    -0.393 OA
ATOM     19  H6  UNL     1      31.144  -0.199   4.298  1.00  0.00     0.210 HD
ENDBRANCH  14  18
BRANCH  15  20
HETATM   20  O7  UNL     1      29.278  -0.679   3.578  1.00  0.00    -0.390 OA
ATOM     21  H7  UNL     1      29.004  -1.066   2.756  1.00  0.00     0.210 HD
ENDBRANCH  15  20
BRANCH  16  22
HETATM   22  C17 UNL     1      26.911  -0.386   4.427  1.00  0.00     0.198 C 
BRANCH  22  23
HETATM   23  O8  UNL     1      27.310  -1.074   5.569  1.00  0.00    -0.398 OA
ATOM     24  H8  UNL     1      26.561  -1.129   6.150  1.00  0.00     0.209 HD
ENDBRANCH  22  23
ENDBRANCH  16  22
ENDBRANCH  11  12
ENDBRANCH  10  11
ENDBRANCH   9  10
ENDBRANCH   8   9
BRANCH   2  25
HETATM   25  O1  UNL     1      29.781  -0.553   7.083  1.00  0.00    -0.385 OA
ATOM     26  H1  UNL     1      30.416  -1.085   6.617  1.00  0.00     0.211 HD
ENDBRANCH   2  25
BRANCH   5  27
HETATM   27  C6  UNL     1      31.201  -2.266  12.345  1.00  0.00     0.208 C 
BRANCH  27  28
HETATM   28  O2  UNL     1      29.921  -2.201  12.828  1.00  0.00    -0.256 OA
BRANCH  28  29
HETATM   29  S1  UNL     1      29.148  -3.680  12.869  1.00  0.00     0.251 S 
HETATM   30  O3  UNL     1      30.103  -4.698  12.279  1.00  0.00    -0.572 OA
HETATM   31  O4  UNL     1      27.847  -3.654  12.094  1.00  0.00    -0.572 OA
HETATM   32  O5  UNL     1      28.827  -4.171  14.443  1.00  0.00    -0.572 OA
ENDBRANCH  28  29
ENDBRANCH  27  28
ENDBRANCH   5  27
TORSDOF 12
ENDMDL
MODEL 4
REMARK VINA RESULT: -6.600305996      2.692      4.725
REMARK  12 active torsions:
REMARK  status: ('A' for Active; 'I' for Inactive)
REMARK    1  A    between atoms: C2_2  and  O1_3 
REMARK    2  A    between atoms: C5_7  and  C6_8 
REMARK    3  A    between atoms: C6_8  and  O2_9 
REMARK    4  A    between atoms: O2_9  and  S1_10 
REMARK    5  A    between atoms: C8_16  and  C9_17 
REMARK    6  A    between atoms: C9_17  and  C10_18 
REMARK    7  A    between atoms: C10_18  and  C11_19 
REMARK    8  A    between atoms: C11_19  and  C12_20 
REMARK    9  A    between atoms: C14_22  and  O6_23 
REMARK   10  A    between atoms: C15_25  and  O7_26 
REMARK   11  A    between atoms: C16_28  and  C17_29 
REMARK   12  A    between atoms: C17_29  and  O8_30 
ROOT
HETATM    1  C1  UNL     1      31.132  -0.951  10.926  1.00  0.00     0.051 C 
HETATM    2  C2  UNL     1      30.449  -1.085  12.281  1.00  0.00     0.087 C 
HETATM    3  C3  UNL     1      31.558  -0.525  13.237  1.00  0.00     0.044 C 
HETATM    4  C4  UNL     1      32.899  -1.081  12.913  1.00  0.00     0.021 C 
HETATM    5  C5  UNL     1      33.045  -2.560  13.057  1.00  0.00     0.077 C 
HETATM    6  S2  UNL     1      31.673  -3.430  12.253  1.00  0.00    -0.124 SA
HETATM    7  C7  UNL     1      30.191  -2.431  12.752  1.00  0.00     0.009 C 
HETATM    8  C8  UNL     1      28.965  -3.191  12.651  1.00  0.00    -0.010 C 
ENDROOT
BRANCH   8   9
HETATM    9  C9  UNL     1      28.286  -3.564  11.420  1.00  0.00     0.028 C 
BRANCH   9  10
HETATM   10  C10 UNL     1      27.558  -2.543  10.610  1.00  0.00     0.006 C 
BRANCH  10  11
HETATM   11  C11 UNL     1      27.682  -2.826   9.132  1.00  0.00     0.032 C 
BRANCH  11  12
HETATM   12  C12 UNL     1      27.943  -1.622   8.302  1.00  0.00     0.124 C 
HETATM   13  C13 UNL     1      26.977  -1.441   7.168  1.00  0.00     0.066 C 
HETATM   14  C14 UNL     1      26.670  -0.042   6.820  1.00  0.00     0.151 C 
HETATM   15  C15 UNL     1      27.637   0.987   7.303  1.00  0.00     0.178 C 
HETATM   16  C16 UNL     1      28.468   0.540   8.476  1.00  0.00     0.176 C 
HETATM   17  O9  UNL     1      27.829  -0.504   9.128  1.00  0.00    -0.376 OA
BRANCH  14  18
HETATM   18  O6  UNL     1      25.380   0.264   7.278  1.00  0.00    -0.393 OA
ATOM     19  H6  UNL     1      25.257   1.205   7.236  1.00  0.00     0.210 HD
ENDBRANCH  14  18
BRANCH  15  20
HETATM   20  O7  UNL     1      26.933   2.130   7.719  1.00  0.00    -0.390 OA
ATOM     21  H7  UNL     1      27.304   2.449   8.532  1.00  0.00     0.210 HD
ENDBRANCH  15  20
BRANCH  16  22
HETATM   22  C17 UNL     1      28.709   1.658   9.460  1.00  0.00     0.198 C 
BRANCH  22  23
HETATM   23  O8  UNL     1      27.955   1.389  10.599  1.00  0.00    -0.398 OA
ATOM     24  H8  UNL     1      27.578   2.208  10.897  1.00  0.00     0.209 HD
ENDBRANCH  22  23
ENDBRANCH  16  22
ENDBRANCH  11  12
ENDBRANCH  10  11
ENDBRANCH   9  10
ENDBRANCH   8   9
BRANCH   2  25
HETATM   25  O1  UNL     1      29.429  -0.158  12.411  1.00  0.00    -0.385 OA
ATOM     26  H1  UNL     1      29.708   0.577  12.946  1.00  0.00     0.211 HD
ENDBRANCH   2  25
BRANCH   5  27
HETATM   27  C6  UNL     1      34.380  -3.007  12.546  1.00  0.00     0.208 C 
BRANCH  27  28
HETATM   28  O2  UNL     1      34.668  -2.366  11.370  1.00  0.00    -0.256 OA
BRANCH  28  29
HETATM   29  S1  UNL     1      34.733  -3.390  10.054  1.00  0.00     0.251 S 
HETATM   30  O3  UNL     1      33.469  -3.164   9.250  1.00  0.00    -0.572 OA
HETATM   31  O4  UNL     1      34.847  -4.840  10.475  1.00  0.00    -0.572 OA
HETATM   32  O5  UNL     1      36.023  -3.021   9.042  1.00  0.00    -0.572 OA
ENDBRANCH  28  29
ENDBRANCH  27  28
ENDBRANCH   5  27
TORSDOF 12
ENDMDL
MODEL 5
REMARK VINA RESULT: -6.597376885      1.916      3.006
REMARK  12 active torsions:
REMARK  status: ('A' for Active; 'I' for Inactive)
REMARK    1  A    between atoms: C2_2  and  O1_3 
REMARK    2  A    between atoms: C5_7  and  C6_8 
REMARK    3  A    between atoms: C6_8  and  O2_9 
REMARK    4  A    between atoms: O2_9  and  S1_10 
REMARK    5  A    between atoms: C8_16  and  C9_17 
REMARK    6  A    between atoms: C9_17  and  C10_18 
REMARK    7  A    between atoms: C10_18  and  C11_19 
REMARK    8  A    between atoms: C11_19  and  C12_20 
REMARK    9  A    between atoms: C14_22  and  O6_23 
REMARK   10  A    between atoms: C15_25  and  O7_26 
REMARK   11  A    between atoms: C16_28  and  C17_29 
REMARK   12  A    between atoms: C17_29  and  O8_30 
ROOT
HETATM    1  C1  UNL     1      31.056  -1.558  10.004  1.00  0.00     0.051 C 
HETATM    2  C2  UNL     1      29.804  -0.708  10.185  1.00  0.00     0.087 C 
HETATM    3  C3  UNL     1      30.261   0.264  11.328  1.00  0.00     0.044 C 
HETATM    4  C4  UNL     1      30.951  -0.461  12.427  1.00  0.00     0.021 C 
HETATM    5  C5  UNL     1      30.132  -1.476  13.156  1.00  0.00     0.077 C 
HETATM    6  S2  UNL     1      29.256  -2.558  11.994  1.00  0.00    -0.124 SA
HETATM    7  C7  UNL     1      28.631  -1.377  10.708  1.00  0.00     0.009 C 
HETATM    8  C8  UNL     1      27.512  -1.921   9.970  1.00  0.00    -0.010 C 
ENDROOT
BRANCH   8   9
HETATM    9  C9  UNL     1      27.576  -2.968   8.962  1.00  0.00     0.028 C 
BRANCH   9  10
HETATM   10  C10 UNL     1      27.104  -2.716   7.569  1.00  0.00     0.006 C 
BRANCH  10  11
HETATM   11  C11 UNL     1      28.239  -2.273   6.677  1.00  0.00     0.032 C 
BRANCH  11  12
HETATM   12  C12 UNL     1      28.026  -0.952   6.032  1.00  0.00     0.124 C 
HETATM   13  C13 UNL     1      29.295  -0.244   5.657  1.00  0.00     0.066 C 
HETATM   14  C14 UNL     1      29.217   0.582   4.438  1.00  0.00     0.151 C 
HETATM   15  C15 UNL     1      27.849   0.965   3.985  1.00  0.00     0.178 C 
HETATM   16  C16 UNL     1      26.760   0.060   4.497  1.00  0.00     0.176 C 
HETATM   17  O9  UNL     1      27.305  -1.164   4.857  1.00  0.00    -0.376 OA
BRANCH  14  18
HETATM   18  O6  UNL     1      29.896  -0.078   3.403  1.00  0.00    -0.393 OA
ATOM     19  H6  UNL     1      29.344  -0.777   3.074  1.00  0.00     0.210 HD
ENDBRANCH  14  18
BRANCH  15  20
HETATM   20  O7  UNL     1      27.790   0.912   2.582  1.00  0.00    -0.390 OA
ATOM     21  H7  UNL     1      26.883   0.886   2.306  1.00  0.00     0.210 HD
ENDBRANCH  15  20
BRANCH  16  22
HETATM   22  C17 UNL     1      25.680  -0.169   3.469  1.00  0.00     0.198 C 
BRANCH  22  23
HETATM   23  O8  UNL     1      26.104  -1.194   2.630  1.00  0.00    -0.398 OA
ATOM     24  H8  UNL     1      25.841  -2.018   3.023  1.00  0.00     0.209 HD
ENDBRANCH  22  23
ENDBRANCH  16  22
ENDBRANCH  11  12
ENDBRANCH  10  11
ENDBRANCH   9  10
ENDBRANCH   8   9
BRANCH   2  25
HETATM   25  O1  UNL     1      29.627   0.142   9.107  1.00  0.00    -0.385 OA
ATOM     26  H1  UNL     1      29.904   1.024   9.324  1.00  0.00     0.211 HD
ENDBRANCH   2  25
BRANCH   5  27
HETATM   27  C6  UNL     1      30.984  -2.243  14.118  1.00  0.00     0.208 C 
BRANCH  27  28
HETATM   28  O2  UNL     1      30.945  -3.578  13.815  1.00  0.00    -0.256 OA
BRANCH  28  29
HETATM   29  S1  UNL     1      32.446  -4.232  13.493  1.00  0.00     0.251 S 
HETATM   30  O3  UNL     1      33.434  -3.567  14.429  1.00  0.00    -0.572 OA
HETATM   31  O4  UNL     1      32.852  -4.021  12.049  1.00  0.00    -0.572 OA
HETATM   32  O5  UNL     1      32.493  -5.878  13.829  1.00  0.00    -0.572 OA
ENDBRANCH  28  29
ENDBRANCH  27  28
ENDBRANCH   5  27
TORSDOF 12
ENDMDL
