MODEL 1
REMARK VINA RESULT: -6.904713054      0.000      0.000
REMARK  6 active torsions:
REMARK  status: ('A' for Active; 'I' for Inactive)
REMARK    1  A    between atoms: C2_2  and  C3_3 
REMARK    2  A    between atoms: C3_3  and  N1_4 
REMARK    3  A    between atoms: C4_5  and  O1_6 
REMARK    4  A    between atoms: C5_8  and  C6_9 
REMARK    5  A    between atoms: C6_9  and  C7_10 
REMARK       I    between atoms: C7_10  and  N2_12 
REMARK    6  A    between atoms: N2_12  and  C8_14 
ROOT
HETATM    1  C7  UNL     1       8.845  30.942  74.622  1.00  0.00     0.222 C 
HETATM    2  O2  UNL     1       8.196  30.803  73.561  1.00  0.00    -0.273 OA
HETATM    3  N2  UNL     1      10.241  30.774  74.607  1.00  0.00    -0.356 N 
ATOM      4  H2  UNL     1      10.772  30.885  75.470  1.00  0.00     0.162 HD
ENDROOT
BRANCH   3   5
HETATM    5  C8  UNL     1      10.921  30.448  73.394  1.00  0.00     0.084 C 
HETATM    6  C9  UNL     1      11.107  28.927  73.288  1.00  0.00     0.026 C 
HETATM    7  C10 UNL     1      12.212  28.561  74.253  1.00  0.00     0.013 C 
HETATM    8  C11 UNL     1      13.524  28.905  73.629  1.00  0.00    -0.010 C 
HETATM    9  C12 UNL     1      13.318  30.105  72.725  1.00  0.00     0.013 C 
HETATM   10  C14 UNL     1      14.581  29.263  74.657  1.00  0.00     0.282 C 
HETATM   11  C17 UNL     1      14.038  27.711  72.856  1.00  0.00    -0.001 C 
HETATM   12  C13 UNL     1      12.293  31.061  73.295  1.00  0.00     0.026 C 
HETATM   13  N3  UNL     1      15.828  28.568  74.420  1.00  0.00     0.089 N 
HETATM   14  C15 UNL     1      16.265  28.738  73.032  1.00  0.00     0.273 C 
HETATM   15  C19 UNL     1      15.710  27.138  74.631  1.00  0.00     0.273 C 
HETATM   16  C16 UNL     1      15.264  28.176  72.061  1.00  0.00     0.036 C 
HETATM   17  C18 UNL     1      14.524  26.667  73.821  1.00  0.00     0.036 C 
ENDBRANCH   3   5
BRANCH   1  18
HETATM   18  C6  UNL     1       8.133  31.281  75.876  1.00  0.00     0.153 C 
BRANCH  18  19
HETATM   19  C5  UNL     1       7.955  32.779  75.974  1.00  0.00     0.045 A 
HETATM   20  C4  UNL     1       8.927  33.726  76.186  1.00  0.00     0.158 A 
HETATM   21  N1  UNL     1       8.542  34.980  76.237  1.00  0.00    -0.309 N 
HETATM   22  C20 UNL     1       7.251  35.254  76.081  1.00  0.00     0.147 A 
HETATM   23  S1  UNL     1       6.544  33.725  75.857  1.00  0.00    -0.060 SA
HETATM   24  S2  UNL     1       6.523  36.746  76.105  1.00  0.00    -0.052 SA
BRANCH  20  25
HETATM   25  O1  UNL     1      10.280  33.282  76.337  1.00  0.00    -0.345 OA
ATOM     26  H1  UNL     1      10.730  32.705  75.731  1.00  0.00     0.219 HD
ENDBRANCH  20  25
BRANCH  21  27
HETATM   27  C3  UNL     1       9.531  36.072  76.464  1.00  0.00     0.159 C 
BRANCH  27  28
HETATM   28  C2  UNL     1      10.226  36.435  75.223  1.00  0.00    -0.017 C 
HETATM   29  C1  UNL     1       9.905  37.553  74.596  1.00  0.00     0.008 C 
ENDBRANCH  27  28
ENDBRANCH  21  27
ENDBRANCH  18  19
ENDBRANCH   1  18
TORSDOF 6
ENDMDL
MODEL 2
REMARK VINA RESULT: -6.712629843      2.046      2.882
REMARK  6 active torsions:
REMARK  status: ('A' for Active; 'I' for Inactive)
REMARK    1  A    between atoms: C2_2  and  C3_3 
REMARK    2  A    between atoms: C3_3  and  N1_4 
REMARK    3  A    between atoms: C4_5  and  O1_6 
REMARK    4  A    between atoms: C5_8  and  C6_9 
REMARK    5  A    between atoms: C6_9  and  C7_10 
REMARK       I    between atoms: C7_10  and  N2_12 
REMARK    6  A    between atoms: N2_12  and  C8_14 
ROOT
HETATM    1  C7  UNL     1       8.882  32.135  77.730  1.00  0.00     0.222 C 
HETATM    2  O2  UNL     1       7.925  31.386  78.026  1.00  0.00    -0.273 OA
HETATM    3  N2  UNL     1       9.701  31.813  76.633  1.00  0.00    -0.356 N 
ATOM      4  H2  UNL     1      10.483  32.420  76.389  1.00  0.00     0.162 HD
ENDROOT
BRANCH   3   5
HETATM    5  C8  UNL     1       9.447  30.642  75.856  1.00  0.00     0.084 C 
HETATM    6  C9  UNL     1      10.536  29.591  76.118  1.00  0.00     0.026 C 
HETATM    7  C10 UNL     1      11.773  30.063  75.387  1.00  0.00     0.013 C 
HETATM    8  C11 UNL     1      11.620  29.745  73.937  1.00  0.00    -0.010 C 
HETATM    9  C12 UNL     1      10.146  29.813  73.590  1.00  0.00     0.013 C 
HETATM   10  C14 UNL     1      12.361  30.726  73.046  1.00  0.00     0.282 C 
HETATM   11  C17 UNL     1      12.191  28.372  73.662  1.00  0.00    -0.001 C 
HETATM   12  C13 UNL     1       9.439  30.898  74.372  1.00  0.00     0.026 C 
HETATM   13  N3  UNL     1      13.160  30.054  72.043  1.00  0.00     0.089 N 
HETATM   14  C15 UNL     1      12.360  29.070  71.311  1.00  0.00     0.273 C 
HETATM   15  C19 UNL     1      14.267  29.318  72.625  1.00  0.00     0.273 C 
HETATM   16  C16 UNL     1      11.820  28.003  72.221  1.00  0.00     0.036 C 
HETATM   17  C18 UNL     1      13.692  28.440  73.713  1.00  0.00     0.036 C 
ENDBRANCH   3   5
BRANCH   1  18
HETATM   18  C6  UNL     1       9.139  33.349  78.539  1.00  0.00     0.153 C 
BRANCH  18  19
HETATM   19  C5  UNL     1       8.198  34.454  78.117  1.00  0.00     0.045 A 
HETATM   20  C4  UNL     1       8.083  35.026  76.874  1.00  0.00     0.158 A 
HETATM   21  N1  UNL     1       7.191  35.980  76.733  1.00  0.00    -0.309 N 
HETATM   22  C20 UNL     1       6.463  36.329  77.788  1.00  0.00     0.147 A 
HETATM   23  S1  UNL     1       7.030  35.304  79.019  1.00  0.00    -0.060 SA
HETATM   24  S2  UNL     1       5.284  37.494  77.864  1.00  0.00    -0.052 SA
BRANCH  20  25
HETATM   25  O1  UNL     1       8.936  34.548  75.828  1.00  0.00    -0.345 OA
ATOM     26  H1  UNL     1       9.755  34.956  75.570  1.00  0.00     0.219 HD
ENDBRANCH  20  25
BRANCH  21  27
HETATM   27  C3  UNL     1       7.000  36.656  75.418  1.00  0.00     0.159 C 
BRANCH  27  28
HETATM   28  C2  UNL     1       8.112  37.562  75.112  1.00  0.00    -0.017 C 
HETATM   29  C1  UNL     1       8.623  37.585  73.894  1.00  0.00     0.008 C 
ENDBRANCH  27  28
ENDBRANCH  21  27
ENDBRANCH  18  19
ENDBRANCH   1  18
TORSDOF 6
ENDMDL
MODEL 3
REMARK VINA RESULT: -6.697520981      2.516      3.380
REMARK  6 active torsions:
REMARK  status: ('A' for Active; 'I' for Inactive)
REMARK    1  A    between atoms: C2_2  and  C3_3 
REMARK    2  A    between atoms: C3_3  and  N1_4 
REMARK    3  A    between atoms: C4_5  and  O1_6 
REMARK    4  A    between atoms: C5_8  and  C6_9 
REMARK    5  A    between atoms: C6_9  and  C7_10 
REMARK       I    between atoms: C7_10  and  N2_12 
REMARK    6  A    between atoms: N2_12  and  C8_14 
ROOT
HETATM    1  C7  UNL     1       5.870  31.673  76.212  1.00  0.00     0.222 C 
HETATM    2  O2  UNL     1       5.022  31.331  75.359  1.00  0.00    -0.273 OA
HETATM    3  N2  UNL     1       7.162  31.117  76.168  1.00  0.00    -0.356 N 
ATOM      4  H2  UNL     1       7.855  31.394  76.863  1.00  0.00     0.162 HD
ENDROOT
BRANCH   3   5
HETATM    5  C8  UNL     1       7.511  30.170  75.159  1.00  0.00     0.084 C 
HETATM    6  C9  UNL     1       8.587  29.210  75.689  1.00  0.00     0.026 C 
HETATM    7  C10 UNL     1       9.884  29.986  75.705  1.00  0.00     0.013 C 
HETATM    8  C11 UNL     1      10.423  30.044  74.315  1.00  0.00    -0.010 C 
HETATM    9  C12 UNL     1       9.251  30.042  73.352  1.00  0.00     0.013 C 
HETATM   10  C14 UNL     1      11.241  31.298  74.060  1.00  0.00     0.282 C 
HETATM   11  C17 UNL     1      11.335  28.860  74.081  1.00  0.00    -0.001 C 
HETATM   12  C13 UNL     1       8.070  30.803  73.912  1.00  0.00     0.026 C 
HETATM   13  N3  UNL     1      12.509  31.001  73.427  1.00  0.00     0.089 N 
HETATM   14  C15 UNL     1      12.318  30.162  72.242  1.00  0.00     0.273 C 
HETATM   15  C19 UNL     1      13.400  30.262  74.302  1.00  0.00     0.273 C 
HETATM   16  C16 UNL     1      11.687  28.843  72.589  1.00  0.00     0.036 C 
HETATM   17  C18 UNL     1      12.624  29.073  74.823  1.00  0.00     0.036 C 
ENDBRANCH   3   5
BRANCH   1  18
HETATM   18  C6  UNL     1       5.502  32.658  77.256  1.00  0.00     0.153 C 
BRANCH  18  19
HETATM   19  C5  UNL     1       6.698  33.518  77.593  1.00  0.00     0.045 A 
HETATM   20  C4  UNL     1       7.131  34.645  76.939  1.00  0.00     0.158 A 
HETATM   21  N1  UNL     1       8.204  35.238  77.410  1.00  0.00    -0.309 N 
HETATM   22  C20 UNL     1       8.799  34.717  78.478  1.00  0.00     0.147 A 
HETATM   23  S1  UNL     1       7.842  33.361  78.845  1.00  0.00    -0.060 SA
HETATM   24  S2  UNL     1      10.156  35.276  79.253  1.00  0.00    -0.052 SA
BRANCH  20  25
HETATM   25  O1  UNL     1       6.388  35.091  75.799  1.00  0.00    -0.345 OA
ATOM     26  H1  UNL     1       6.299  35.999  75.534  1.00  0.00     0.219 HD
ENDBRANCH  20  25
BRANCH  21  27
HETATM   27  C3  UNL     1       8.742  36.467  76.760  1.00  0.00     0.159 C 
BRANCH  27  28
HETATM   28  C2  UNL     1       9.722  36.140  75.718  1.00  0.00    -0.017 C 
HETATM   29  C1  UNL     1      10.107  37.073  74.866  1.00  0.00     0.008 C 
ENDBRANCH  27  28
ENDBRANCH  21  27
ENDBRANCH  18  19
ENDBRANCH   1  18
TORSDOF 6
ENDMDL
MODEL 4
REMARK VINA RESULT: -6.693600257      1.625      2.197
REMARK  6 active torsions:
REMARK  status: ('A' for Active; 'I' for Inactive)
REMARK    1  A    between atoms: C2_2  and  C3_3 
REMARK    2  A    between atoms: C3_3  and  N1_4 
REMARK    3  A    between atoms: C4_5  and  O1_6 
REMARK    4  A    between atoms: C5_8  and  C6_9 
REMARK    5  A    between atoms: C6_9  and  C7_10 
REMARK       I    between atoms: C7_10  and  N2_12 
REMARK    6  A    between atoms: N2_12  and  C8_14 
ROOT
HETATM    1  C7  UNL     1       6.985  30.396  76.117  1.00  0.00     0.222 C 
HETATM    2  O2  UNL     1       6.145  29.758  75.444  1.00  0.00    -0.273 OA
HETATM    3  N2  UNL     1       8.356  30.230  75.851  1.00  0.00    -0.356 N 
ATOM      4  H2  UNL     1       9.043  30.747  76.398  1.00  0.00     0.162 HD
ENDROOT
BRANCH   3   5
HETATM    5  C8  UNL     1       8.794  29.342  74.822  1.00  0.00     0.084 C 
HETATM    6  C9  UNL     1       9.947  28.468  75.338  1.00  0.00     0.026 C 
HETATM    7  C10 UNL     1      11.171  29.355  75.385  1.00  0.00     0.013 C 
HETATM    8  C11 UNL     1      11.712  29.496  74.001  1.00  0.00    -0.010 C 
HETATM    9  C12 UNL     1      10.551  29.414  73.028  1.00  0.00     0.013 C 
HETATM   10  C14 UNL     1      12.417  30.823  73.784  1.00  0.00     0.282 C 
HETATM   11  C17 UNL     1      12.726  28.404  73.746  1.00  0.00    -0.001 C 
HETATM   12  C13 UNL     1       9.303  30.054  73.596  1.00  0.00     0.026 C 
HETATM   13  N3  UNL     1      13.710  30.655  73.156  1.00  0.00     0.089 N 
HETATM   14  C15 UNL     1      13.602  29.833  71.948  1.00  0.00     0.273 C 
HETATM   15  C19 UNL     1      14.657  29.976  74.020  1.00  0.00     0.273 C 
HETATM   16  C16 UNL     1      13.088  28.455  72.257  1.00  0.00     0.036 C 
HETATM   17  C18 UNL     1      13.987  28.710  74.504  1.00  0.00     0.036 C 
ENDBRANCH   3   5
BRANCH   1  18
HETATM   18  C6  UNL     1       6.523  31.316  77.182  1.00  0.00     0.153 C 
BRANCH  18  19
HETATM   19  C5  UNL     1       6.912  32.735  76.837  1.00  0.00     0.045 A 
HETATM   20  C4  UNL     1       8.055  33.402  77.201  1.00  0.00     0.158 A 
HETATM   21  N1  UNL     1       8.185  34.642  76.786  1.00  0.00    -0.309 N 
HETATM   22  C20 UNL     1       7.214  35.168  76.047  1.00  0.00     0.147 A 
HETATM   23  S1  UNL     1       6.082  33.907  75.921  1.00  0.00    -0.060 SA
HETATM   24  S2  UNL     1       7.145  36.698  75.409  1.00  0.00    -0.052 SA
BRANCH  20  25
HETATM   25  O1  UNL     1       9.017  32.706  78.002  1.00  0.00    -0.345 OA
ATOM     26  H1  UNL     1       8.860  32.394  78.885  1.00  0.00     0.219 HD
ENDBRANCH  20  25
BRANCH  21  27
HETATM   27  C3  UNL     1       9.395  35.439  77.136  1.00  0.00     0.159 C 
BRANCH  27  28
HETATM   28  C2  UNL     1      10.493  35.191  76.194  1.00  0.00    -0.017 C 
HETATM   29  C1  UNL     1      10.897  36.158  75.390  1.00  0.00     0.008 C 
ENDBRANCH  27  28
ENDBRANCH  21  27
ENDBRANCH  18  19
ENDBRANCH   1  18
TORSDOF 6
ENDMDL
MODEL 5
REMARK VINA RESULT: -6.626205818      2.798      3.941
REMARK  6 active torsions:
REMARK  status: ('A' for Active; 'I' for Inactive)
REMARK    1  A    between atoms: C2_2  and  C3_3 
REMARK    2  A    between atoms: C3_3  and  N1_4 
REMARK    3  A    between atoms: C4_5  and  O1_6 
REMARK    4  A    between atoms: C5_8  and  C6_9 
REMARK    5  A    between atoms: C6_9  and  C7_10 
REMARK       I    between atoms: C7_10  and  N2_12 
REMARK    6  A    between atoms: N2_12  and  C8_14 
ROOT
HETATM    1  C7  UNL     1       7.181  32.972  75.224  1.00  0.00     0.222 C 
HETATM    2  O2  UNL     1       6.228  32.187  75.018  1.00  0.00    -0.273 OA
HETATM    3  N2  UNL     1       8.480  32.457  75.386  1.00  0.00    -0.356 N 
ATOM      4  H2  UNL     1       9.258  33.093  75.555  1.00  0.00     0.162 HD
ENDROOT
BRANCH   3   5
HETATM    5  C8  UNL     1       8.718  31.051  75.317  1.00  0.00     0.084 C 
HETATM    6  C9  UNL     1      10.051  30.709  75.999  1.00  0.00     0.026 C 
HETATM    7  C10 UNL     1      11.144  31.154  75.054  1.00  0.00     0.013 C 
HETATM    8  C11 UNL     1      11.279  30.138  73.969  1.00  0.00    -0.010 C 
HETATM    9  C12 UNL     1       9.917  29.517  73.729  1.00  0.00     0.013 C 
HETATM   10  C14 UNL     1      11.760  30.742  72.662  1.00  0.00     0.282 C 
HETATM   11  C17 UNL     1      12.297  29.098  74.381  1.00  0.00    -0.001 C 
HETATM   12  C13 UNL     1       8.805  30.528  73.907  1.00  0.00     0.026 C 
HETATM   13  N3  UNL     1      12.849  29.987  72.081  1.00  0.00     0.089 N 
HETATM   14  C15 UNL     1      12.509  28.565  71.991  1.00  0.00     0.273 C 
HETATM   15  C19 UNL     1      14.057  30.061  72.881  1.00  0.00     0.273 C 
HETATM   16  C16 UNL     1      12.243  27.970  73.345  1.00  0.00     0.036 C 
HETATM   17  C18 UNL     1      13.675  29.691  74.297  1.00  0.00     0.036 C 
ENDBRANCH   3   5
BRANCH   1  18
HETATM   18  C6  UNL     1       6.927  34.429  75.293  1.00  0.00     0.153 C 
BRANCH  18  19
HETATM   19  C5  UNL     1       6.451  34.801  76.679  1.00  0.00     0.045 A 
HETATM   20  C4  UNL     1       6.158  36.055  77.155  1.00  0.00     0.158 A 
HETATM   21  N1  UNL     1       5.759  36.145  78.403  1.00  0.00    -0.309 N 
HETATM   22  C20 UNL     1       5.665  35.031  79.121  1.00  0.00     0.147 A 
HETATM   23  S1  UNL     1       6.144  33.815  78.033  1.00  0.00    -0.060 SA
HETATM   24  S2  UNL     1       5.190  34.884  80.704  1.00  0.00    -0.052 SA
BRANCH  20  25
HETATM   25  O1  UNL     1       6.306  37.167  76.265  1.00  0.00    -0.345 OA
ATOM     26  H1  UNL     1       7.140  37.534  75.994  1.00  0.00     0.219 HD
ENDBRANCH  20  25
BRANCH  21  27
HETATM   27  C3  UNL     1       5.420  37.468  79.001  1.00  0.00     0.159 C 
BRANCH  27  28
HETATM   28  C2  UNL     1       4.082  37.914  78.597  1.00  0.00    -0.017 C 
HETATM   29  C1  UNL     1       3.913  39.136  78.125  1.00  0.00     0.008 C 
ENDBRANCH  27  28
ENDBRANCH  21  27
ENDBRANCH  18  19
ENDBRANCH   1  18
TORSDOF 6
ENDMDL
