MODEL 1
REMARK VINA RESULT: -5.713871069      0.000      0.000
REMARK  0 active torsions:
REMARK  status: ('A' for Active; 'I' for Inactive)
ROOT
HETATM    1  O1  UNL     1      50.314  36.477  47.377  1.00  0.00    -0.245 OA
HETATM    2  C1  UNL     1      50.035  35.502  46.596  1.00  0.00     0.354 A 
HETATM    3  N1  UNL     1      49.161  34.525  46.772  1.00  0.00    -0.137 N 
ATOM      4  H1  UNL     1      48.558  34.399  47.586  1.00  0.00     0.189 HD
HETATM    5  C2  UNL     1      49.206  33.724  45.690  1.00  0.00     0.726 A 
HETATM    6  N2  UNL     1      48.716  32.620  45.084  1.00  0.00    -0.126 N 
ATOM      7  H2  UNL     1      47.996  32.015  45.479  1.00  0.00     0.206 HD
HETATM    8  N3  UNL     1      49.293  32.428  43.914  1.00  0.00    -0.235 N 
ATOM      9  H3  UNL     1      49.107  31.669  43.259  1.00  0.00     0.192 HD
HETATM   10  C3  UNL     1      50.173  33.427  43.756  1.00  0.00     0.375 A 
HETATM   11  O2  UNL     1      50.937  33.627  42.779  1.00  0.00    -0.243 OA
HETATM   12  N4  UNL     1      50.126  34.237  44.855  1.00  0.00    -0.025 N 
HETATM   13  N5  UNL     1      50.634  35.326  45.409  1.00  0.00    -0.225 N 
ATOM     14  H5  UNL     1      51.354  35.925  45.004  1.00  0.00     0.193 HD
ENDROOT
TORSDOF 0
ENDMDL
MODEL 2
REMARK VINA RESULT: -5.230232002      6.559      8.103
REMARK  0 active torsions:
REMARK  status: ('A' for Active; 'I' for Inactive)
ROOT
HETATM    1  O1  UNL     1      54.891  35.721  44.773  1.00  0.00    -0.245 OA
HETATM    2  C1  UNL     1      55.197  36.778  45.426  1.00  0.00     0.354 A 
HETATM    3  N1  UNL     1      54.821  37.138  46.642  1.00  0.00    -0.137 N 
ATOM      4  H1  UNL     1      54.209  36.606  47.262  1.00  0.00     0.189 HD
HETATM    5  C2  UNL     1      55.386  38.328  46.921  1.00  0.00     0.726 A 
HETATM    6  N2  UNL     1      55.535  39.321  47.824  1.00  0.00    -0.126 N 
ATOM      7  H2  UNL     1      55.099  39.334  48.746  1.00  0.00     0.206 HD
HETATM    8  N3  UNL     1      56.319  40.273  47.356  1.00  0.00    -0.235 N 
ATOM      9  H3  UNL     1      56.591  41.131  47.835  1.00  0.00     0.192 HD
HETATM   10  C3  UNL     1      56.689  39.889  46.125  1.00  0.00     0.375 A 
HETATM   11  O2  UNL     1      57.436  40.503  45.324  1.00  0.00    -0.243 OA
HETATM   12  N4  UNL     1      56.113  38.682  45.846  1.00  0.00    -0.025 N 
HETATM   13  N5  UNL     1      55.998  37.733  44.931  1.00  0.00    -0.225 N 
ATOM     14  H5  UNL     1      56.441  37.730  44.012  1.00  0.00     0.193 HD
ENDROOT
TORSDOF 0
ENDMDL
MODEL 3
REMARK VINA RESULT: -5.179569239      0.935      3.446
REMARK  0 active torsions:
REMARK  status: ('A' for Active; 'I' for Inactive)
ROOT
HETATM    1  O1  UNL     1      50.367  32.363  42.624  1.00  0.00    -0.245 OA
HETATM    2  C1  UNL     1      50.143  33.043  43.685  1.00  0.00     0.354 A 
HETATM    3  N1  UNL     1      49.242  32.830  44.630  1.00  0.00    -0.137 N 
ATOM      4  H1  UNL     1      48.568  32.064  44.654  1.00  0.00     0.189 HD
HETATM    5  C2  UNL     1      49.369  33.800  45.556  1.00  0.00     0.726 A 
HETATM    6  N2  UNL     1      48.920  34.310  46.723  1.00  0.00    -0.126 N 
ATOM      7  H2  UNL     1      48.160  33.910  47.274  1.00  0.00     0.206 HD
HETATM    8  N3  UNL     1      49.592  35.394  47.056  1.00  0.00    -0.235 N 
ATOM      9  H3  UNL     1      49.452  35.969  47.886  1.00  0.00     0.192 HD
HETATM   10  C3  UNL     1      50.498  35.591  46.087  1.00  0.00     0.375 A 
HETATM   11  O2  UNL     1      51.346  36.514  46.009  1.00  0.00    -0.243 OA
HETATM   12  N4  UNL     1      50.366  34.606  45.150  1.00  0.00    -0.025 N 
HETATM   13  N5  UNL     1      50.841  34.143  44.005  1.00  0.00    -0.225 N 
ATOM     14  H5  UNL     1      51.603  34.550  43.463  1.00  0.00     0.193 HD
ENDROOT
TORSDOF 0
ENDMDL
MODEL 4
REMARK VINA RESULT: -4.936525219      1.591      2.009
REMARK  0 active torsions:
REMARK  status: ('A' for Active; 'I' for Inactive)
ROOT
HETATM    1  O1  UNL     1      50.286  36.578  47.574  1.00  0.00    -0.245 OA
HETATM    2  C1  UNL     1      50.181  35.694  46.655  1.00  0.00     0.354 A 
HETATM    3  N1  UNL     1      50.887  35.567  45.544  1.00  0.00    -0.137 N 
ATOM      4  H1  UNL     1      51.649  36.177  45.245  1.00  0.00     0.189 HD
HETATM    5  C2  UNL     1      50.427  34.492  44.875  1.00  0.00     0.726 A 
HETATM    6  N2  UNL     1      50.544  33.711  43.780  1.00  0.00    -0.126 N 
ATOM      7  H2  UNL     1      51.225  33.858  43.036  1.00  0.00     0.206 HD
HETATM    8  N3  UNL     1      49.660  32.733  43.800  1.00  0.00    -0.235 N 
ATOM      9  H3  UNL     1      49.536  32.007  43.094  1.00  0.00     0.192 HD
HETATM   10  C3  UNL     1      48.956  32.880  44.931  1.00  0.00     0.375 A 
HETATM   11  O2  UNL     1      48.012  32.162  45.344  1.00  0.00    -0.243 OA
HETATM   12  N4  UNL     1      49.425  33.972  45.606  1.00  0.00    -0.025 N 
HETATM   13  N5  UNL     1      49.274  34.706  46.696  1.00  0.00    -0.225 N 
ATOM     14  H5  UNL     1      48.589  34.549  47.435  1.00  0.00     0.193 HD
ENDROOT
TORSDOF 0
ENDMDL
MODEL 5
REMARK VINA RESULT: -4.643250755      6.660      7.804
REMARK  0 active torsions:
REMARK  status: ('A' for Active; 'I' for Inactive)
ROOT
HETATM    1  O1  UNL     1      55.840  41.079  48.744  1.00  0.00    -0.245 OA
HETATM    2  C1  UNL     1      55.872  40.232  47.785  1.00  0.00     0.354 A 
HETATM    3  N1  UNL     1      56.519  40.308  46.634  1.00  0.00    -0.137 N 
ATOM      4  H1  UNL     1      57.112  41.082  46.330  1.00  0.00     0.189 HD
HETATM    5  C2  UNL     1      56.262  39.188  45.933  1.00  0.00     0.726 A 
HETATM    6  N2  UNL     1      56.477  38.496  44.793  1.00  0.00    -0.126 N 
ATOM      7  H2  UNL     1      57.063  38.820  44.023  1.00  0.00     0.206 HD
HETATM    8  N3  UNL     1      55.829  37.349  44.805  1.00  0.00    -0.235 N 
ATOM      9  H3  UNL     1      55.821  36.644  44.069  1.00  0.00     0.192 HD
HETATM   10  C3  UNL     1      55.181  37.292  45.978  1.00  0.00     0.375 A 
HETATM   11  O2  UNL     1      54.442  36.367  46.399  1.00  0.00    -0.243 OA
HETATM   12  N4  UNL     1      55.443  38.430  46.685  1.00  0.00    -0.025 N 
HETATM   13  N5  UNL     1      55.205  39.068  47.819  1.00  0.00    -0.225 N 
ATOM     14  H5  UNL     1      54.617  38.735  48.583  1.00  0.00     0.193 HD
ENDROOT
TORSDOF 0
ENDMDL
