MODEL 1
REMARK VINA RESULT: -7.628665421      0.000      0.000
REMARK  8 active torsions:
REMARK  status: ('A' for Active; 'I' for Inactive)
REMARK    1  A    between atoms: C2_2  and  O1_3 
REMARK    2  A    between atoms: O1_3  and  C3_4 
REMARK    3  A    between atoms: C3_4  and  C4_6 
REMARK    4  A    between atoms: C4_6  and  C5_7 
REMARK    5  A    between atoms: C5_7  and  C6_8 
REMARK    6  A    between atoms: C6_8  and  O3_9 
REMARK    7  A    between atoms: C9_13  and  N1_14 
REMARK       I    between atoms: N1_14  and  C10_16 
REMARK    8  A    between atoms: C10_16  and  C11_18 
ROOT
HETATM    1  C5  UNL     1      48.885  50.084  17.088  1.00  0.00    -0.010 C 
HETATM    2  C7  UNL     1      50.178  50.661  17.646  1.00  0.00     0.014 C 
HETATM    3  C8  UNL     1      49.977  51.788  18.595  1.00  0.00     0.026 C 
HETATM    4  C9  UNL     1      49.213  52.945  17.976  1.00  0.00     0.084 C 
HETATM    5  C17 UNL     1      48.135  52.505  17.050  1.00  0.00     0.026 C 
HETATM    6  C18 UNL     1      47.772  51.066  17.085  1.00  0.00     0.014 C 
ENDROOT
BRANCH   4   7
HETATM    7  N1  UNL     1      48.781  53.860  19.008  1.00  0.00    -0.356 N 
HETATM    8  C10 UNL     1      49.650  54.858  19.510  1.00  0.00     0.222 C 
HETATM    9  O4  UNL     1      50.821  54.958  19.046  1.00  0.00    -0.273 OA
ATOM     10  H1  UNL     1      47.834  53.786  19.381  1.00  0.00     0.162 HD
BRANCH   8  11
HETATM   11  C11 UNL     1      49.249  55.813  20.574  1.00  0.00     0.078 C 
HETATM   12  C12 UNL     1      50.465  56.700  20.808  1.00  0.00     0.014 C 
HETATM   13  C13 UNL     1      50.197  57.891  21.659  1.00  0.00     0.001 C 
HETATM   14  C14 UNL     1      48.753  58.219  21.848  1.00  0.00     0.000 C 
HETATM   15  C15 UNL     1      48.069  58.045  20.519  1.00  0.00     0.001 C 
HETATM   16  C16 UNL     1      48.080  56.625  20.070  1.00  0.00     0.014 C 
ENDBRANCH   8  11
ENDBRANCH   4   7
BRANCH   1  17
HETATM   17  C4  UNL     1      49.254  49.500  15.767  1.00  0.00     0.122 C 
BRANCH  17  18
HETATM   18  C3  UNL     1      48.177  49.188  14.841  1.00  0.00     0.259 C 
HETATM   19  O2  UNL     1      47.967  49.926  13.817  1.00  0.00    -0.265 OA
BRANCH  18  20
HETATM   20  O1  UNL     1      47.314  48.115  14.978  1.00  0.00    -0.322 OA
BRANCH  20  21
HETATM   21  C2  UNL     1      45.913  48.174  14.822  1.00  0.00     0.174 C 
HETATM   22  C1  UNL     1      45.294  48.485  16.161  1.00  0.00     0.034 C 
ENDBRANCH  20  21
ENDBRANCH  18  20
ENDBRANCH  17  18
ENDBRANCH   1  17
BRANCH   1  23
HETATM   23  C6  UNL     1      48.495  48.957  18.045  1.00  0.00     0.174 C 
BRANCH  23  24
HETATM   24  O3  UNL     1      49.593  48.103  18.270  1.00  0.00    -0.400 OA
ATOM     25  H3  UNL     1      49.405  47.503  18.982  1.00  0.00     0.209 HD
ENDBRANCH  23  24
ENDBRANCH   1  23
TORSDOF 8
ENDMDL
MODEL 2
REMARK VINA RESULT: -7.595678582      2.871      8.139
REMARK  8 active torsions:
REMARK  status: ('A' for Active; 'I' for Inactive)
REMARK    1  A    between atoms: C2_2  and  O1_3 
REMARK    2  A    between atoms: O1_3  and  C3_4 
REMARK    3  A    between atoms: C3_4  and  C4_6 
REMARK    4  A    between atoms: C4_6  and  C5_7 
REMARK    5  A    between atoms: C5_7  and  C6_8 
REMARK    6  A    between atoms: C6_8  and  O3_9 
REMARK    7  A    between atoms: C9_13  and  N1_14 
REMARK       I    between atoms: N1_14  and  C10_16 
REMARK    8  A    between atoms: C10_16  and  C11_18 
ROOT
HETATM    1  C5  UNL     1      51.729  50.589  19.952  1.00  0.00    -0.010 C 
HETATM    2  C7  UNL     1      50.770  49.452  20.280  1.00  0.00     0.014 C 
HETATM    3  C8  UNL     1      49.756  49.193  19.222  1.00  0.00     0.026 C 
HETATM    4  C9  UNL     1      48.904  50.412  18.918  1.00  0.00     0.084 C 
HETATM    5  C17 UNL     1      49.667  51.687  18.967  1.00  0.00     0.026 C 
HETATM    6  C18 UNL     1      51.147  51.578  19.011  1.00  0.00     0.014 C 
ENDROOT
BRANCH   4   7
HETATM    7  N1  UNL     1      48.164  50.203  17.693  1.00  0.00    -0.356 N 
HETATM    8  C10 UNL     1      46.992  49.409  17.674  1.00  0.00     0.222 C 
HETATM    9  O4  UNL     1      46.580  48.879  18.743  1.00  0.00    -0.273 OA
ATOM     10  H1  UNL     1      48.492  50.635  16.828  1.00  0.00     0.162 HD
BRANCH   8  11
HETATM   11  C11 UNL     1      46.208  49.164  16.437  1.00  0.00     0.078 C 
HETATM   12  C12 UNL     1      47.082  48.271  15.568  1.00  0.00     0.014 C 
HETATM   13  C13 UNL     1      46.384  47.695  14.386  1.00  0.00     0.001 C 
HETATM   14  C14 UNL     1      44.894  47.785  14.430  1.00  0.00     0.000 C 
HETATM   15  C15 UNL     1      44.458  47.448  15.829  1.00  0.00     0.001 C 
HETATM   16  C16 UNL     1      44.927  48.458  16.817  1.00  0.00     0.014 C 
ENDBRANCH   8  11
ENDBRANCH   4   7
BRANCH   1  17
HETATM   17  C4  UNL     1      52.175  51.116  21.272  1.00  0.00     0.122 C 
BRANCH  17  18
HETATM   18  C3  UNL     1      51.584  52.361  21.737  1.00  0.00     0.259 C 
HETATM   19  O2  UNL     1      50.440  52.363  22.310  1.00  0.00    -0.265 OA
BRANCH  18  20
HETATM   20  O1  UNL     1      52.176  53.605  21.605  1.00  0.00    -0.322 OA
BRANCH  20  21
HETATM   21  C2  UNL     1      51.491  54.804  21.316  1.00  0.00     0.174 C 
HETATM   22  C1  UNL     1      51.618  55.726  22.503  1.00  0.00     0.034 C 
ENDBRANCH  20  21
ENDBRANCH  18  20
ENDBRANCH  17  18
ENDBRANCH   1  17
BRANCH   1  23
HETATM   23  C6  UNL     1      52.915  49.930  19.246  1.00  0.00     0.174 C 
BRANCH  23  24
HETATM   24  O3  UNL     1      53.685  49.192  20.167  1.00  0.00    -0.400 OA
ATOM     25  H3  UNL     1      54.593  49.160  19.887  1.00  0.00     0.209 HD
ENDBRANCH  23  24
ENDBRANCH   1  23
TORSDOF 8
ENDMDL
MODEL 3
REMARK VINA RESULT: -7.524132435      2.390      8.246
REMARK  8 active torsions:
REMARK  status: ('A' for Active; 'I' for Inactive)
REMARK    1  A    between atoms: C2_2  and  O1_3 
REMARK    2  A    between atoms: O1_3  and  C3_4 
REMARK    3  A    between atoms: C3_4  and  C4_6 
REMARK    4  A    between atoms: C4_6  and  C5_7 
REMARK    5  A    between atoms: C5_7  and  C6_8 
REMARK    6  A    between atoms: C6_8  and  O3_9 
REMARK    7  A    between atoms: C9_13  and  N1_14 
REMARK       I    between atoms: N1_14  and  C10_16 
REMARK    8  A    between atoms: C10_16  and  C11_18 
ROOT
HETATM    1  C5  UNL     1      51.610  54.259  20.660  1.00  0.00    -0.010 C 
HETATM    2  C7  UNL     1      50.180  54.560  20.231  1.00  0.00     0.014 C 
HETATM    3  C8  UNL     1      49.460  53.388  19.666  1.00  0.00     0.026 C 
HETATM    4  C9  UNL     1      50.163  52.795  18.459  1.00  0.00     0.084 C 
HETATM    5  C17 UNL     1      51.645  52.813  18.578  1.00  0.00     0.026 C 
HETATM    6  C18 UNL     1      52.203  53.117  19.920  1.00  0.00     0.014 C 
ENDROOT
BRANCH   4   7
HETATM    7  N1  UNL     1      49.602  51.498  18.148  1.00  0.00    -0.356 N 
HETATM    8  C10 UNL     1      48.662  51.342  17.101  1.00  0.00     0.222 C 
HETATM    9  O4  UNL     1      48.311  52.347  16.422  1.00  0.00    -0.273 OA
ATOM     10  H1  UNL     1      49.889  50.684  18.691  1.00  0.00     0.162 HD
BRANCH   8  11
HETATM   11  C11 UNL     1      48.057  50.031  16.754  1.00  0.00     0.078 C 
HETATM   12  C12 UNL     1      49.077  48.984  17.178  1.00  0.00     0.014 C 
HETATM   13  C13 UNL     1      48.565  47.586  17.152  1.00  0.00     0.001 C 
HETATM   14  C14 UNL     1      47.080  47.461  17.066  1.00  0.00     0.000 C 
HETATM   15  C15 UNL     1      46.482  48.490  17.986  1.00  0.00     0.001 C 
HETATM   16  C16 UNL     1      46.772  49.878  17.533  1.00  0.00     0.014 C 
ENDBRANCH   8  11
ENDBRANCH   4   7
BRANCH   1  17
HETATM   17  C4  UNL     1      52.331  55.559  20.557  1.00  0.00     0.122 C 
BRANCH  17  18
HETATM   18  C3  UNL     1      52.243  56.472  21.686  1.00  0.00     0.259 C 
HETATM   19  O2  UNL     1      53.273  56.717  22.405  1.00  0.00    -0.265 OA
BRANCH  18  20
HETATM   20  O1  UNL     1      51.088  57.127  22.074  1.00  0.00    -0.322 OA
BRANCH  20  21
HETATM   21  C2  UNL     1      50.318  57.974  21.249  1.00  0.00     0.174 C 
HETATM   22  C1  UNL     1      48.873  57.870  21.670  1.00  0.00     0.034 C 
ENDBRANCH  20  21
ENDBRANCH  18  20
ENDBRANCH  17  18
ENDBRANCH   1  17
BRANCH   1  23
HETATM   23  C6  UNL     1      51.517  53.850  22.130  1.00  0.00     0.174 C 
BRANCH  23  24
HETATM   24  O3  UNL     1      51.901  52.504  22.289  1.00  0.00    -0.400 OA
ATOM     25  H3  UNL     1      51.990  52.293  23.211  1.00  0.00     0.209 HD
ENDBRANCH  23  24
ENDBRANCH   1  23
TORSDOF 8
ENDMDL
MODEL 4
REMARK VINA RESULT: -7.475777849      2.590      8.044
REMARK  8 active torsions:
REMARK  status: ('A' for Active; 'I' for Inactive)
REMARK    1  A    between atoms: C2_2  and  O1_3 
REMARK    2  A    between atoms: O1_3  and  C3_4 
REMARK    3  A    between atoms: C3_4  and  C4_6 
REMARK    4  A    between atoms: C4_6  and  C5_7 
REMARK    5  A    between atoms: C5_7  and  C6_8 
REMARK    6  A    between atoms: C6_8  and  O3_9 
REMARK    7  A    between atoms: C9_13  and  N1_14 
REMARK       I    between atoms: N1_14  and  C10_16 
REMARK    8  A    between atoms: C10_16  and  C11_18 
ROOT
HETATM    1  C5  UNL     1      51.195  50.859  19.829  1.00  0.00    -0.010 C 
HETATM    2  C7  UNL     1      50.444  49.656  20.383  1.00  0.00     0.014 C 
HETATM    3  C8  UNL     1      49.673  48.901  19.360  1.00  0.00     0.026 C 
HETATM    4  C9  UNL     1      48.649  49.764  18.645  1.00  0.00     0.084 C 
HETATM    5  C17 UNL     1      49.126  51.150  18.393  1.00  0.00     0.026 C 
HETATM    6  C18 UNL     1      50.575  51.405  18.595  1.00  0.00     0.014 C 
ENDROOT
BRANCH   4   7
HETATM    7  N1  UNL     1      48.158  49.077  17.471  1.00  0.00    -0.356 N 
HETATM    8  C10 UNL     1      46.928  48.376  17.497  1.00  0.00     0.222 C 
HETATM    9  O4  UNL     1      46.243  48.355  18.558  1.00  0.00    -0.273 OA
ATOM     10  H1  UNL     1      48.706  49.097  16.611  1.00  0.00     0.162 HD
BRANCH   8  11
HETATM   11  C11 UNL     1      46.391  47.652  16.317  1.00  0.00     0.078 C 
HETATM   12  C12 UNL     1      44.895  47.936  16.308  1.00  0.00     0.014 C 
HETATM   13  C13 UNL     1      44.200  47.511  15.063  1.00  0.00     0.001 C 
HETATM   14  C14 UNL     1      45.100  47.213  13.910  1.00  0.00     0.000 C 
HETATM   15  C15 UNL     1      46.168  48.271  13.879  1.00  0.00     0.001 C 
HETATM   16  C16 UNL     1      47.051  48.204  15.077  1.00  0.00     0.014 C 
ENDBRANCH   8  11
ENDBRANCH   4   7
BRANCH   1  17
HETATM   17  C4  UNL     1      51.325  51.802  20.976  1.00  0.00     0.122 C 
BRANCH  17  18
HETATM   18  C3  UNL     1      51.148  53.221  20.707  1.00  0.00     0.259 C 
HETATM   19  O2  UNL     1      52.108  53.915  20.223  1.00  0.00    -0.265 OA
BRANCH  18  20
HETATM   20  O1  UNL     1      49.979  53.922  20.944  1.00  0.00    -0.322 OA
BRANCH  20  21
HETATM   21  C2  UNL     1      49.592  55.106  20.281  1.00  0.00     0.174 C 
HETATM   22  C1  UNL     1      48.518  54.765  19.278  1.00  0.00     0.034 C 
ENDBRANCH  20  21
ENDBRANCH  18  20
ENDBRANCH  17  18
ENDBRANCH   1  17
BRANCH   1  23
HETATM   23  C6  UNL     1      52.581  50.336  19.449  1.00  0.00     0.174 C 
BRANCH  23  24
HETATM   24  O3  UNL     1      53.341  50.077  20.607  1.00  0.00    -0.400 OA
ATOM     25  H3  UNL     1      54.034  50.720  20.697  1.00  0.00     0.209 HD
ENDBRANCH  23  24
ENDBRANCH   1  23
TORSDOF 8
ENDMDL
MODEL 5
REMARK VINA RESULT: -7.471322782      2.291      8.344
REMARK  8 active torsions:
REMARK  status: ('A' for Active; 'I' for Inactive)
REMARK    1  A    between atoms: C2_2  and  O1_3 
REMARK    2  A    between atoms: O1_3  and  C3_4 
REMARK    3  A    between atoms: C3_4  and  C4_6 
REMARK    4  A    between atoms: C4_6  and  C5_7 
REMARK    5  A    between atoms: C5_7  and  C6_8 
REMARK    6  A    between atoms: C6_8  and  O3_9 
REMARK    7  A    between atoms: C9_13  and  N1_14 
REMARK       I    between atoms: N1_14  and  C10_16 
REMARK    8  A    between atoms: C10_16  and  C11_18 
ROOT
HETATM    1  C5  UNL     1      51.597  54.293  20.676  1.00  0.00    -0.010 C 
HETATM    2  C7  UNL     1      50.167  54.573  20.235  1.00  0.00     0.014 C 
HETATM    3  C8  UNL     1      49.456  53.381  19.700  1.00  0.00     0.026 C 
HETATM    4  C9  UNL     1      50.166  52.760  18.512  1.00  0.00     0.084 C 
HETATM    5  C17 UNL     1      51.648  52.791  18.635  1.00  0.00     0.026 C 
HETATM    6  C18 UNL     1      52.200  53.135  19.970  1.00  0.00     0.014 C 
ENDROOT
BRANCH   4   7
HETATM    7  N1  UNL     1      49.615  51.452  18.235  1.00  0.00    -0.356 N 
HETATM    8  C10 UNL     1      48.719  51.251  17.157  1.00  0.00     0.222 C 
HETATM    9  O4  UNL     1      48.399  52.226  16.421  1.00  0.00    -0.273 OA
ATOM     10  H1  UNL     1      49.875  50.662  18.825  1.00  0.00     0.162 HD
BRANCH   8  11
HETATM   11  C11 UNL     1      48.124  49.928  16.843  1.00  0.00     0.078 C 
HETATM   12  C12 UNL     1      46.643  50.056  17.172  1.00  0.00     0.014 C 
HETATM   13  C13 UNL     1      45.810  48.920  16.692  1.00  0.00     0.001 C 
HETATM   14  C14 UNL     1      46.469  48.037  15.684  1.00  0.00     0.000 C 
HETATM   15  C15 UNL     1      47.206  48.922  14.716  1.00  0.00     0.001 C 
HETATM   16  C16 UNL     1      48.327  49.651  15.372  1.00  0.00     0.014 C 
ENDBRANCH   8  11
ENDBRANCH   4   7
BRANCH   1  17
HETATM   17  C4  UNL     1      52.310  55.595  20.540  1.00  0.00     0.122 C 
BRANCH  17  18
HETATM   18  C3  UNL     1      52.261  56.514  21.667  1.00  0.00     0.259 C 
HETATM   19  O2  UNL     1      53.297  56.709  22.391  1.00  0.00    -0.265 OA
BRANCH  18  20
HETATM   20  O1  UNL     1      51.137  57.227  22.045  1.00  0.00    -0.322 OA
BRANCH  20  21
HETATM   21  C2  UNL     1      50.304  57.955  21.170  1.00  0.00     0.174 C 
HETATM   22  C1  UNL     1      48.884  57.859  21.669  1.00  0.00     0.034 C 
ENDBRANCH  20  21
ENDBRANCH  18  20
ENDBRANCH  17  18
ENDBRANCH   1  17
BRANCH   1  23
HETATM   23  C6  UNL     1      51.502  53.924  22.157  1.00  0.00     0.174 C 
BRANCH  23  24
HETATM   24  O3  UNL     1      51.879  52.581  22.352  1.00  0.00    -0.400 OA
ATOM     25  H3  UNL     1      52.644  52.530  22.914  1.00  0.00     0.209 HD
ENDBRANCH  23  24
ENDBRANCH   1  23
TORSDOF 8
ENDMDL
