MODEL 1
REMARK VINA RESULT: -8.578172635      0.000      0.000
REMARK  2 active torsions:
REMARK  status: ('A' for Active; 'I' for Inactive)
REMARK    1  A    between atoms: C2_2  and  N1_4 
REMARK    2  A    between atoms: N1_4  and  C4_6 
ROOT
HETATM    1  C4  UNL     1     -16.278  -3.428 -28.748  1.00  0.00     0.027 C 
HETATM    2  C5  UNL     1     -15.298  -4.428 -28.194  1.00  0.00     0.035 C 
HETATM    3  C6  UNL     1     -15.030  -4.298 -26.733  1.00  0.00    -0.012 C 
HETATM    4  C7  UNL     1     -14.922  -2.864 -26.260  1.00  0.00     0.009 C 
HETATM    5  C8  UNL     1     -16.034  -1.996 -26.769  1.00  0.00    -0.012 C 
HETATM    6  C9  UNL     1     -17.320  -2.495 -26.192  1.00  0.00     0.010 C 
HETATM    7  C10 UNL     1     -17.825  -3.764 -26.818  1.00  0.00    -0.008 C 
HETATM    8  C11 UNL     1     -17.648  -3.831 -28.299  1.00  0.00     0.035 C 
HETATM    9  C12 UNL     1     -17.375  -4.982 -26.070  1.00  0.00    -0.014 C 
HETATM   10  C13 UNL     1     -18.066  -6.208 -26.651  1.00  0.00     0.010 C 
HETATM   11  C14 UNL     1     -15.921  -5.144 -25.881  1.00  0.00     0.009 C 
HETATM   12  C15 UNL     1     -16.030  -2.022 -28.268  1.00  0.00     0.035 C 
ENDROOT
BRANCH   1  13
HETATM   13  N1  UNL     1     -16.080  -3.446 -30.158  1.00  0.00    -0.409 N 
ATOM     14  H1  UNL     1     -15.912  -4.320 -30.656  1.00  0.00     0.154 HD
BRANCH  13  15
HETATM   15  C2  UNL     1     -16.125  -2.211 -30.846  1.00  0.00     0.069 C 
HETATM   16  C1  UNL     1     -14.841  -2.077 -31.659  1.00  0.00     0.031 C 
HETATM   17  C3  UNL     1     -17.258  -2.285 -31.866  1.00  0.00     0.031 C 
ENDBRANCH  13  15
ENDBRANCH   1  13
TORSDOF 2
ENDMDL
MODEL 2
REMARK VINA RESULT: -8.326191731      0.777      2.800
REMARK  2 active torsions:
REMARK  status: ('A' for Active; 'I' for Inactive)
REMARK    1  A    between atoms: C2_2  and  N1_4 
REMARK    2  A    between atoms: N1_4  and  C4_6 
ROOT
HETATM    1  C4  UNL     1     -16.054  -3.613 -28.948  1.00  0.00     0.027 C 
HETATM    2  C5  UNL     1     -17.452  -3.133 -28.658  1.00  0.00     0.035 C 
HETATM    3  C6  UNL     1     -17.993  -3.545 -27.331  1.00  0.00    -0.012 C 
HETATM    4  C7  UNL     1     -17.637  -4.964 -26.944  1.00  0.00     0.009 C 
HETATM    5  C8  UNL     1     -16.184  -5.279 -27.150  1.00  0.00    -0.012 C 
HETATM    6  C9  UNL     1     -15.383  -4.417 -26.229  1.00  0.00     0.010 C 
HETATM    7  C10 UNL     1     -15.285  -2.980 -26.658  1.00  0.00    -0.008 C 
HETATM    8  C11 UNL     1     -15.108  -2.790 -28.129  1.00  0.00     0.035 C 
HETATM    9  C12 UNL     1     -16.346  -2.129 -26.031  1.00  0.00    -0.014 C 
HETATM   10  C13 UNL     1     -16.077  -0.668 -26.368  1.00  0.00     0.010 C 
HETATM   11  C14 UNL     1     -17.744  -2.548 -26.246  1.00  0.00     0.009 C 
HETATM   12  C15 UNL     1     -15.835  -5.059 -28.591  1.00  0.00     0.035 C 
ENDROOT
BRANCH   1  13
HETATM   13  N1  UNL     1     -15.893  -3.484 -30.357  1.00  0.00    -0.409 N 
ATOM     14  H1  UNL     1     -15.743  -4.301 -30.948  1.00  0.00     0.154 HD
BRANCH  13  15
HETATM   15  C2  UNL     1     -15.949  -2.184 -30.910  1.00  0.00     0.069 C 
HETATM   16  C1  UNL     1     -14.639  -1.929 -31.649  1.00  0.00     0.031 C 
HETATM   17  C3  UNL     1     -17.038  -2.177 -31.979  1.00  0.00     0.031 C 
ENDBRANCH  13  15
ENDBRANCH   1  13
TORSDOF 2
ENDMDL
MODEL 3
REMARK VINA RESULT: -7.825507530      1.112      2.546
REMARK  2 active torsions:
REMARK  status: ('A' for Active; 'I' for Inactive)
REMARK    1  A    between atoms: C2_2  and  N1_4 
REMARK    2  A    between atoms: N1_4  and  C4_6 
ROOT
HETATM    1  C4  UNL     1     -15.678  -2.416 -28.937  1.00  0.00     0.027 C 
HETATM    2  C5  UNL     1     -16.964  -3.185 -29.088  1.00  0.00     0.035 C 
HETATM    3  C6  UNL     1     -17.103  -4.358 -28.179  1.00  0.00    -0.012 C 
HETATM    4  C7  UNL     1     -15.823  -5.147 -28.005  1.00  0.00     0.009 C 
HETATM    5  C8  UNL     1     -14.634  -4.276 -27.722  1.00  0.00    -0.012 C 
HETATM    6  C9  UNL     1     -14.850  -3.601 -26.407  1.00  0.00     0.010 C 
HETATM    7  C10 UNL     1     -15.849  -2.478 -26.447  1.00  0.00    -0.008 C 
HETATM    8  C11 UNL     1     -15.764  -1.624 -27.669  1.00  0.00     0.035 C 
HETATM    9  C12 UNL     1     -17.229  -2.936 -26.088  1.00  0.00    -0.014 C 
HETATM   10  C13 UNL     1     -18.144  -1.724 -25.976  1.00  0.00     0.010 C 
HETATM   11  C14 UNL     1     -17.790  -4.041 -26.890  1.00  0.00     0.009 C 
HETATM   12  C15 UNL     1     -14.463  -3.301 -28.847  1.00  0.00     0.035 C 
ENDROOT
BRANCH   1  13
HETATM   13  N1  UNL     1     -15.561  -1.636 -30.123  1.00  0.00    -0.409 N 
ATOM     14  H1  UNL     1     -15.464  -0.622 -30.080  1.00  0.00     0.154 HD
BRANCH  13  15
HETATM   15  C2  UNL     1     -15.585  -2.316 -31.363  1.00  0.00     0.069 C 
HETATM   16  C1  UNL     1     -16.835  -1.874 -32.119  1.00  0.00     0.031 C 
HETATM   17  C3  UNL     1     -14.402  -1.821 -32.190  1.00  0.00     0.031 C 
ENDBRANCH  13  15
ENDBRANCH   1  13
TORSDOF 2
ENDMDL
MODEL 4
REMARK VINA RESULT: -7.667891192      1.724      4.380
REMARK  2 active torsions:
REMARK  status: ('A' for Active; 'I' for Inactive)
REMARK    1  A    between atoms: C2_2  and  N1_4 
REMARK    2  A    between atoms: N1_4  and  C4_6 
ROOT
HETATM    1  C4  UNL     1     -15.904  -4.198 -26.728  1.00  0.00     0.027 C 
HETATM    2  C5  UNL     1     -17.158  -4.548 -27.486  1.00  0.00     0.035 C 
HETATM    3  C6  UNL     1     -17.987  -3.379 -27.898  1.00  0.00    -0.012 C 
HETATM    4  C7  UNL     1     -18.075  -2.295 -26.846  1.00  0.00     0.009 C 
HETATM    5  C8  UNL     1     -16.739  -1.937 -26.262  1.00  0.00    -0.012 C 
HETATM    6  C9  UNL     1     -15.896  -1.351 -27.348  1.00  0.00     0.010 C 
HETATM    7  C10 UNL     1     -15.363  -2.359 -28.328  1.00  0.00    -0.008 C 
HETATM    8  C11 UNL     1     -14.917  -3.642 -27.706  1.00  0.00     0.035 C 
HETATM    9  C12 UNL     1     -16.252  -2.509 -29.524  1.00  0.00    -0.014 C 
HETATM   10  C13 UNL     1     -15.566  -3.405 -30.547  1.00  0.00     0.010 C 
HETATM   11  C14 UNL     1     -17.661  -2.864 -29.263  1.00  0.00     0.009 C 
HETATM   12  C15 UNL     1     -16.126  -3.163 -25.657  1.00  0.00     0.035 C 
ENDROOT
BRANCH   1  13
HETATM   13  N1  UNL     1     -15.499  -5.405 -26.089  1.00  0.00    -0.409 N 
ATOM     14  H1  UNL     1     -14.895  -5.390 -25.268  1.00  0.00     0.154 HD
BRANCH  13  15
HETATM   15  C2  UNL     1     -15.963  -6.625 -26.632  1.00  0.00     0.069 C 
HETATM   16  C1  UNL     1     -14.857  -7.664 -26.470  1.00  0.00     0.031 C 
HETATM   17  C3  UNL     1     -17.121  -7.112 -25.764  1.00  0.00     0.031 C 
ENDBRANCH  13  15
ENDBRANCH   1  13
TORSDOF 2
ENDMDL
MODEL 5
REMARK VINA RESULT: -7.255388508      0.943      2.377
REMARK  2 active torsions:
REMARK  status: ('A' for Active; 'I' for Inactive)
REMARK    1  A    between atoms: C2_2  and  N1_4 
REMARK    2  A    between atoms: N1_4  and  C4_6 
ROOT
HETATM    1  C4  UNL     1     -16.526  -3.409 -29.522  1.00  0.00     0.027 C 
HETATM    2  C5  UNL     1     -15.878  -2.218 -28.866  1.00  0.00     0.035 C 
HETATM    3  C6  UNL     1     -16.247  -2.014 -27.436  1.00  0.00    -0.012 C 
HETATM    4  C7  UNL     1     -17.708  -2.276 -27.142  1.00  0.00     0.009 C 
HETATM    5  C8  UNL     1     -18.202  -3.563 -27.735  1.00  0.00    -0.012 C 
HETATM    6  C9  UNL     1     -17.471  -4.691 -27.082  1.00  0.00     0.010 C 
HETATM    7  C10 UNL     1     -16.049  -4.852 -27.541  1.00  0.00    -0.008 C 
HETATM    8  C11 UNL     1     -15.850  -4.641 -29.007  1.00  0.00     0.035 C 
HETATM    9  C12 UNL     1     -15.082  -4.123 -26.659  1.00  0.00    -0.014 C 
HETATM   10  C13 UNL     1     -13.661  -4.475 -27.076  1.00  0.00     0.010 C 
HETATM   11  C14 UNL     1     -15.315  -2.678 -26.474  1.00  0.00     0.009 C 
HETATM   12  C15 UNL     1     -17.996  -3.529 -29.219  1.00  0.00     0.035 C 
ENDROOT
BRANCH   1  13
HETATM   13  N1  UNL     1     -16.388  -3.191 -30.923  1.00  0.00    -0.409 N 
ATOM     14  H1  UNL     1     -16.459  -3.963 -31.586  1.00  0.00     0.154 HD
BRANCH  13  15
HETATM   15  C2  UNL     1     -16.148  -1.869 -31.363  1.00  0.00     0.069 C 
HETATM   16  C1  UNL     1     -14.780  -1.839 -32.039  1.00  0.00     0.031 C 
HETATM   17  C3  UNL     1     -17.160  -1.551 -32.459  1.00  0.00     0.031 C 
ENDBRANCH  13  15
ENDBRANCH   1  13
TORSDOF 2
ENDMDL
