MODEL 1
REMARK VINA RESULT: -5.967270201      0.000      0.000
REMARK  13 active torsions:
REMARK  status: ('A' for Active; 'I' for Inactive)
REMARK    1  A    between atoms: C2_2  and  C3_3 
REMARK    2  A    between atoms: C3_3  and  S1_4 
REMARK    3  A    between atoms: S1_4  and  C4_5 
REMARK    4  A    between atoms: C4_5  and  C5_6 
REMARK    5  A    between atoms: C5_6  and  N1_7 
REMARK       I    between atoms: N1_7  and  C6_9 
REMARK    6  A    between atoms: C8_13  and  N3_14 
REMARK    7  A    between atoms: C10_19  and  N4_20 
REMARK    8  A    between atoms: C11_24  and  C12_25 
REMARK    9  A    between atoms: C12_25  and  S2_26 
REMARK   10  A    between atoms: S2_26  and  C13_27 
REMARK   11  A    between atoms: C16_31  and  O3_32 
REMARK   12  A    between atoms: C17_34  and  O4_35 
REMARK   13  A    between atoms: C18_37  and  O5_38 
ROOT
HETATM    1  C5  UNL     1     -13.443  75.378 120.019  1.00  0.00     0.051 C 
HETATM    2  C7  UNL     1     -14.158  76.219 118.967  1.00  0.00     0.065 C 
HETATM    3  C8  UNL     1     -14.194  77.678 119.189  1.00  0.00     0.188 C 
HETATM    4  C9  UNL     1     -12.876  78.294 119.591  1.00  0.00     0.066 C 
HETATM    5  C10 UNL     1     -12.353  77.408 120.733  1.00  0.00     0.192 C 
HETATM    6  C11 UNL     1     -12.098  76.080 120.125  1.00  0.00     0.054 C 
ENDROOT
BRANCH   6   7
HETATM    7  C12 UNL     1     -11.021  75.315 120.760  1.00  0.00     0.085 C 
BRANCH   7   8
HETATM    8  S2  UNL     1      -9.745  74.923 119.492  1.00  0.00    -0.134 SA
BRANCH   8   9
HETATM    9  C13 UNL     1      -9.060  73.269 119.779  1.00  0.00     0.214 C 
HETATM   10  O2  UNL     1      -8.019  72.941 118.956  1.00  0.00    -0.365 OA
HETATM   11  C14 UNL     1      -8.307  72.554 117.685  1.00  0.00     0.150 C 
HETATM   12  C15 UNL     1      -7.284  71.487 117.276  1.00  0.00     0.042 C 
HETATM   13  C16 UNL     1      -9.666  71.971 117.466  1.00  0.00     0.178 C 
HETATM   14  C17 UNL     1     -10.101  71.235 118.718  1.00  0.00     0.181 C 
HETATM   15  C18 UNL     1     -10.191  72.271 119.813  1.00  0.00     0.188 C 
BRANCH  13  16
HETATM   16  O3  UNL     1      -9.715  71.077 116.401  1.00  0.00    -0.390 OA
ATOM     17  H3  UNL     1      -9.510  70.184 116.651  1.00  0.00     0.210 HD
ENDBRANCH  13  16
BRANCH  14  18
HETATM   18  O4  UNL     1      -9.153  70.260 119.014  1.00  0.00    -0.390 OA
ATOM     19  H4  UNL     1      -9.198  70.062 119.942  1.00  0.00     0.210 HD
ENDBRANCH  14  18
BRANCH  15  20
HETATM   20  O5  UNL     1     -10.299  71.602 121.029  1.00  0.00    -0.389 OA
ATOM     21  H5  UNL     1     -11.037  71.004 121.064  1.00  0.00     0.210 HD
ENDBRANCH  15  20
ENDBRANCH   8   9
ENDBRANCH   7   8
ENDBRANCH   6   7
BRANCH   1  22
HETATM   22  C4  UNL     1     -13.357  74.030 119.334  1.00  0.00     0.105 C 
BRANCH  22  23
HETATM   23  S1  UNL     1     -13.269  73.903 117.649  1.00  0.00    -0.167 SA
BRANCH  23  24
HETATM   24  C3  UNL     1     -12.030  74.365 116.566  1.00  0.00     0.073 C 
BRANCH  24  25
HETATM   25  C2  UNL     1     -12.137  75.718 115.919  1.00  0.00     0.006 C 
HETATM   26  C1  UNL     1     -11.319  76.806 116.494  1.00  0.00     0.006 C 
ENDBRANCH  24  25
ENDBRANCH  23  24
ENDBRANCH  22  23
ENDBRANCH   1  22
BRANCH   1  27
HETATM   27  N1  UNL     1     -14.186  75.416 121.223  1.00  0.00    -0.335 N 
HETATM   28  C6  UNL     1     -15.476  74.871 121.423  1.00  0.00     0.329 C 
HETATM   29  N2  UNL     1     -16.126  74.977 122.711  1.00  0.00    -0.040 NA
HETATM   30  O1  UNL     1     -16.170  74.268 120.576  1.00  0.00    -0.251 OA
ATOM     31  H1  UNL     1     -13.751  75.880 122.021  1.00  0.00     0.164 HD
ENDBRANCH   1  27
BRANCH   5  32
HETATM   32  N4  UNL     1     -11.307  78.092 121.366  1.00  0.00    -0.074 N 
ATOM     33  H43 UNL     1     -10.519  77.486 121.593  1.00  0.00     0.274 HD
ATOM     34  H42 UNL     1     -10.814  78.728 120.739  1.00  0.00     0.274 HD
ATOM     35  H41 UNL     1     -11.690  78.565 122.185  1.00  0.00     0.274 HD
ENDBRANCH   5  32
BRANCH   3  36
HETATM   36  N3  UNL     1     -15.208  78.187 120.047  1.00  0.00    -0.075 N 
ATOM     37  H33 UNL     1     -16.010  78.476 119.488  1.00  0.00     0.274 HD
ATOM     38  H32 UNL     1     -15.614  77.418 120.582  1.00  0.00     0.274 HD
ATOM     39  H31 UNL     1     -14.951  78.941 120.684  1.00  0.00     0.274 HD
ENDBRANCH   3  36
TORSDOF 13
ENDMDL
MODEL 2
REMARK VINA RESULT: -5.895746948      2.377      3.392
REMARK  13 active torsions:
REMARK  status: ('A' for Active; 'I' for Inactive)
REMARK    1  A    between atoms: C2_2  and  C3_3 
REMARK    2  A    between atoms: C3_3  and  S1_4 
REMARK    3  A    between atoms: S1_4  and  C4_5 
REMARK    4  A    between atoms: C4_5  and  C5_6 
REMARK    5  A    between atoms: C5_6  and  N1_7 
REMARK       I    between atoms: N1_7  and  C6_9 
REMARK    6  A    between atoms: C8_13  and  N3_14 
REMARK    7  A    between atoms: C10_19  and  N4_20 
REMARK    8  A    between atoms: C11_24  and  C12_25 
REMARK    9  A    between atoms: C12_25  and  S2_26 
REMARK   10  A    between atoms: S2_26  and  C13_27 
REMARK   11  A    between atoms: C16_31  and  O3_32 
REMARK   12  A    between atoms: C17_34  and  O4_35 
REMARK   13  A    between atoms: C18_37  and  O5_38 
ROOT
HETATM    1  C5  UNL     1     -11.497  75.833 119.741  1.00  0.00     0.051 C 
HETATM    2  C7  UNL     1     -10.382  76.640 119.084  1.00  0.00     0.065 C 
HETATM    3  C8  UNL     1      -9.030  76.504 119.661  1.00  0.00     0.188 C 
HETATM    4  C9  UNL     1      -8.598  75.086 119.942  1.00  0.00     0.066 C 
HETATM    5  C10 UNL     1      -9.771  74.455 120.710  1.00  0.00     0.192 C 
HETATM    6  C11 UNL     1     -10.907  74.432 119.757  1.00  0.00     0.054 C 
ENDROOT
BRANCH   6   7
HETATM    7  C12 UNL     1     -11.857  73.336 119.966  1.00  0.00     0.085 C 
BRANCH   7   8
HETATM    8  S2  UNL     1     -11.666  72.117 118.600  1.00  0.00    -0.134 SA
BRANCH   8   9
HETATM    9  C13 UNL     1     -10.156  71.139 118.834  1.00  0.00     0.214 C 
HETATM   10  O2  UNL     1      -9.006  71.792 118.492  1.00  0.00    -0.365 OA
HETATM   11  C14 UNL     1      -8.691  71.881 117.173  1.00  0.00     0.150 C 
HETATM   12  C15 UNL     1      -7.164  71.806 117.048  1.00  0.00     0.042 C 
HETATM   13  C16 UNL     1      -9.259  70.820 116.285  1.00  0.00     0.178 C 
HETATM   14  C17 UNL     1      -9.372  69.526 117.065  1.00  0.00     0.181 C 
HETATM   15  C18 UNL     1     -10.346  69.788 118.190  1.00  0.00     0.188 C 
BRANCH  13  16
HETATM   16  O3  UNL     1      -8.486  70.577 115.155  1.00  0.00    -0.390 OA
ATOM     17  H3  UNL     1      -8.929  70.044 114.506  1.00  0.00     0.210 HD
ENDBRANCH  13  16
BRANCH  14  18
HETATM   18  O4  UNL     1      -8.112  69.185 117.549  1.00  0.00    -0.390 OA
ATOM     19  H4  UNL     1      -8.186  68.386 118.057  1.00  0.00     0.210 HD
ENDBRANCH  14  18
BRANCH  15  20
HETATM   20  O5  UNL     1     -10.255  68.730 119.091  1.00  0.00    -0.389 OA
ATOM     21  H5  UNL     1      -9.370  68.577 119.402  1.00  0.00     0.210 HD
ENDBRANCH  15  20
ENDBRANCH   8   9
ENDBRANCH   7   8
ENDBRANCH   6   7
BRANCH   1  22
HETATM   22  C4  UNL     1     -12.625  75.992 118.742  1.00  0.00     0.105 C 
BRANCH  22  23
HETATM   23  S1  UNL     1     -12.318  76.134 117.085  1.00  0.00    -0.167 SA
BRANCH  23  24
HETATM   24  C3  UNL     1     -12.285  77.516 116.078  1.00  0.00     0.073 C 
BRANCH  24  25
HETATM   25  C2  UNL     1     -11.427  77.460 114.844  1.00  0.00     0.006 C 
HETATM   26  C1  UNL     1      -9.982  77.712 115.018  1.00  0.00     0.006 C 
ENDBRANCH  24  25
ENDBRANCH  23  24
ENDBRANCH  22  23
ENDBRANCH   1  22
BRANCH   1  27
HETATM   27  N1  UNL     1     -11.739  76.350 121.037  1.00  0.00    -0.335 N 
HETATM   28  C6  UNL     1     -12.430  77.546 121.341  1.00  0.00     0.329 C 
HETATM   29  N2  UNL     1     -12.611  77.960 122.716  1.00  0.00    -0.040 NA
HETATM   30  O1  UNL     1     -12.939  78.341 120.522  1.00  0.00    -0.251 OA
ATOM     31  H1  UNL     1     -11.381  75.808 121.824  1.00  0.00     0.164 HD
ENDBRANCH   1  27
BRANCH   5  32
HETATM   32  N4  UNL     1      -9.320  73.256 121.279  1.00  0.00    -0.074 N 
ATOM     33  H43 UNL     1     -10.084  72.635 121.547  1.00  0.00     0.274 HD
ATOM     34  H42 UNL     1      -8.874  72.640 120.600  1.00  0.00     0.274 HD
ATOM     35  H41 UNL     1      -8.709  73.490 122.062  1.00  0.00     0.274 HD
ENDBRANCH   5  32
BRANCH   3  36
HETATM   36  N3  UNL     1      -8.716  77.302 120.795  1.00  0.00    -0.075 N 
ATOM     37  H33 UNL     1      -8.200  78.129 120.494  1.00  0.00     0.274 HD
ATOM     38  H32 UNL     1      -9.571  77.730 121.153  1.00  0.00     0.274 HD
ATOM     39  H31 UNL     1      -8.217  76.853 121.563  1.00  0.00     0.274 HD
ENDBRANCH   3  36
TORSDOF 13
ENDMDL
MODEL 3
REMARK VINA RESULT: -5.888827416      2.152      3.211
REMARK  13 active torsions:
REMARK  status: ('A' for Active; 'I' for Inactive)
REMARK    1  A    between atoms: C2_2  and  C3_3 
REMARK    2  A    between atoms: C3_3  and  S1_4 
REMARK    3  A    between atoms: S1_4  and  C4_5 
REMARK    4  A    between atoms: C4_5  and  C5_6 
REMARK    5  A    between atoms: C5_6  and  N1_7 
REMARK       I    between atoms: N1_7  and  C6_9 
REMARK    6  A    between atoms: C8_13  and  N3_14 
REMARK    7  A    between atoms: C10_19  and  N4_20 
REMARK    8  A    between atoms: C11_24  and  C12_25 
REMARK    9  A    between atoms: C12_25  and  S2_26 
REMARK   10  A    between atoms: S2_26  and  C13_27 
REMARK   11  A    between atoms: C16_31  and  O3_32 
REMARK   12  A    between atoms: C17_34  and  O4_35 
REMARK   13  A    between atoms: C18_37  and  O5_38 
ROOT
HETATM    1  C5  UNL     1     -12.354  77.140 118.291  1.00  0.00     0.051 C 
HETATM    2  C7  UNL     1     -11.181  78.001 118.749  1.00  0.00     0.065 C 
HETATM    3  C8  UNL     1     -10.710  77.806 120.134  1.00  0.00     0.188 C 
HETATM    4  C9  UNL     1     -10.538  76.366 120.551  1.00  0.00     0.066 C 
HETATM    5  C10 UNL     1     -11.844  75.670 120.135  1.00  0.00     0.192 C 
HETATM    6  C11 UNL     1     -11.881  75.741 118.654  1.00  0.00     0.054 C 
ENDROOT
BRANCH   6   7
HETATM    7  C12 UNL     1     -12.591  74.634 118.008  1.00  0.00     0.085 C 
BRANCH   7   8
HETATM    8  S2  UNL     1     -11.359  73.534 117.194  1.00  0.00    -0.134 SA
BRANCH   8   9
HETATM    9  C13 UNL     1     -10.173  72.906 118.413  1.00  0.00     0.214 C 
HETATM   10  O2  UNL     1      -8.879  72.874 117.974  1.00  0.00    -0.365 OA
HETATM   11  C14 UNL     1      -8.508  71.857 117.153  1.00  0.00     0.150 C 
HETATM   12  C15 UNL     1      -7.053  71.497 117.479  1.00  0.00     0.042 C 
HETATM   13  C16 UNL     1      -9.309  70.598 117.259  1.00  0.00     0.178 C 
HETATM   14  C17 UNL     1      -9.788  70.431 118.687  1.00  0.00     0.181 C 
HETATM   15  C18 UNL     1     -10.693  71.606 118.974  1.00  0.00     0.188 C 
BRANCH  13  16
HETATM   16  O3  UNL     1      -8.591  69.460 116.908  1.00  0.00    -0.390 OA
ATOM     17  H3  UNL     1      -8.970  68.988 116.177  1.00  0.00     0.210 HD
ENDBRANCH  13  16
BRANCH  14  18
HETATM   18  O4  UNL     1      -8.681  70.421 119.531  1.00  0.00    -0.390 OA
ATOM     19  H4  UNL     1      -8.348  69.533 119.586  1.00  0.00     0.210 HD
ENDBRANCH  14  18
BRANCH  15  20
HETATM   20  O5  UNL     1     -10.917  71.648 120.348  1.00  0.00    -0.389 OA
ATOM     21  H5  UNL     1     -11.470  70.941 120.661  1.00  0.00     0.210 HD
ENDBRANCH  15  20
ENDBRANCH   8   9
ENDBRANCH   7   8
ENDBRANCH   6   7
BRANCH   1  22
HETATM   22  C4  UNL     1     -12.364  77.396 116.798  1.00  0.00     0.105 C 
BRANCH  22  23
HETATM   23  S1  UNL     1     -11.050  76.966 115.824  1.00  0.00    -0.167 SA
BRANCH  23  24
HETATM   24  C3  UNL     1      -9.905  77.943 115.013  1.00  0.00     0.073 C 
BRANCH  24  25
HETATM   25  C2  UNL     1      -8.483  77.902 115.500  1.00  0.00     0.006 C 
HETATM   26  C1  UNL     1      -8.267  77.557 116.920  1.00  0.00     0.006 C 
ENDBRANCH  24  25
ENDBRANCH  23  24
ENDBRANCH  22  23
ENDBRANCH   1  22
BRANCH   1  27
HETATM   27  N1  UNL     1     -13.518  77.533 118.996  1.00  0.00    -0.335 N 
HETATM   28  C6  UNL     1     -14.239  78.736 118.808  1.00  0.00     0.329 C 
HETATM   29  N2  UNL     1     -15.419  79.016 119.596  1.00  0.00    -0.040 NA
HETATM   30  O1  UNL     1     -13.970  79.646 117.993  1.00  0.00    -0.251 OA
ATOM     31  H1  UNL     1     -13.869  76.890 119.705  1.00  0.00     0.164 HD
ENDBRANCH   1  27
BRANCH   5  32
HETATM   32  N4  UNL     1     -11.891  74.422 120.770  1.00  0.00    -0.074 N 
ATOM     33  H43 UNL     1     -10.965  74.047 120.971  1.00  0.00     0.274 HD
ATOM     34  H42 UNL     1     -12.226  74.481 121.732  1.00  0.00     0.274 HD
ATOM     35  H41 UNL     1     -12.454  73.797 120.193  1.00  0.00     0.274 HD
ENDBRANCH   5  32
BRANCH   3  36
HETATM   36  N3  UNL     1     -11.405  78.493 121.167  1.00  0.00    -0.075 N 
ATOM     37  H33 UNL     1     -11.262  79.497 121.060  1.00  0.00     0.274 HD
ATOM     38  H32 UNL     1     -12.409  78.424 121.002  1.00  0.00     0.274 HD
ATOM     39  H31 UNL     1     -11.202  78.224 122.130  1.00  0.00     0.274 HD
ENDBRANCH   3  36
TORSDOF 13
ENDMDL
MODEL 4
REMARK VINA RESULT: -5.828698318      2.515      3.698
REMARK  13 active torsions:
REMARK  status: ('A' for Active; 'I' for Inactive)
REMARK    1  A    between atoms: C2_2  and  C3_3 
REMARK    2  A    between atoms: C3_3  and  S1_4 
REMARK    3  A    between atoms: S1_4  and  C4_5 
REMARK    4  A    between atoms: C4_5  and  C5_6 
REMARK    5  A    between atoms: C5_6  and  N1_7 
REMARK       I    between atoms: N1_7  and  C6_9 
REMARK    6  A    between atoms: C8_13  and  N3_14 
REMARK    7  A    between atoms: C10_19  and  N4_20 
REMARK    8  A    between atoms: C11_24  and  C12_25 
REMARK    9  A    between atoms: C12_25  and  S2_26 
REMARK   10  A    between atoms: S2_26  and  C13_27 
REMARK   11  A    between atoms: C16_31  and  O3_32 
REMARK   12  A    between atoms: C17_34  and  O4_35 
REMARK   13  A    between atoms: C18_37  and  O5_38 
ROOT
HETATM    1  C5  UNL     1     -11.524  75.955 119.617  1.00  0.00     0.051 C 
HETATM    2  C7  UNL     1     -10.385  76.769 119.011  1.00  0.00     0.065 C 
HETATM    3  C8  UNL     1      -9.054  76.620 119.630  1.00  0.00     0.188 C 
HETATM    4  C9  UNL     1      -8.634  75.197 119.903  1.00  0.00     0.066 C 
HETATM    5  C10 UNL     1      -9.834  74.557 120.622  1.00  0.00     0.192 C 
HETATM    6  C11 UNL     1     -10.937  74.552 119.631  1.00  0.00     0.054 C 
ENDROOT
BRANCH   6   7
HETATM    7  C12 UNL     1     -11.896  73.456 119.792  1.00  0.00     0.085 C 
BRANCH   7   8
HETATM    8  S2  UNL     1     -11.141  71.907 119.143  1.00  0.00    -0.134 SA
BRANCH   8   9
HETATM    9  C13 UNL     1     -10.259  72.237 117.593  1.00  0.00     0.214 C 
HETATM   10  O2  UNL     1     -10.740  71.548 116.516  1.00  0.00    -0.365 OA
HETATM   11  C14 UNL     1     -10.389  70.242 116.386  1.00  0.00     0.150 C 
HETATM   12  C15 UNL     1     -10.244  69.941 114.888  1.00  0.00     0.042 C 
HETATM   13  C16 UNL     1      -9.110  69.833 117.045  1.00  0.00     0.178 C 
HETATM   14  C17 UNL     1      -8.142  70.998 117.019  1.00  0.00     0.181 C 
HETATM   15  C18 UNL     1      -8.777  72.099 117.836  1.00  0.00     0.188 C 
BRANCH  13  16
HETATM   16  O3  UNL     1      -8.496  68.748 116.427  1.00  0.00    -0.390 OA
ATOM     17  H3  UNL     1      -8.086  68.150 117.041  1.00  0.00     0.210 HD
ENDBRANCH  13  16
BRANCH  14  18
HETATM   18  O4  UNL     1      -7.949  71.390 115.697  1.00  0.00    -0.390 OA
ATOM     19  H4  UNL     1      -7.095  71.088 115.411  1.00  0.00     0.210 HD
ENDBRANCH  14  18
BRANCH  15  20
HETATM   20  O5  UNL     1      -8.067  73.273 117.598  1.00  0.00    -0.389 OA
ATOM     21  H5  UNL     1      -7.361  73.418 118.218  1.00  0.00     0.210 HD
ENDBRANCH  15  20
ENDBRANCH   8   9
ENDBRANCH   7   8
ENDBRANCH   6   7
BRANCH   1  22
HETATM   22  C4  UNL     1     -12.617  76.132 118.584  1.00  0.00     0.105 C 
BRANCH  22  23
HETATM   23  S1  UNL     1     -12.347  77.001 117.157  1.00  0.00    -0.167 SA
BRANCH  23  24
HETATM   24  C3  UNL     1     -11.737  76.487 115.645  1.00  0.00     0.073 C 
BRANCH  24  25
HETATM   25  C2  UNL     1     -10.774  77.398 114.935  1.00  0.00     0.006 C 
HETATM   26  C1  UNL     1     -11.338  78.600 114.287  1.00  0.00     0.006 C 
ENDBRANCH  24  25
ENDBRANCH  23  24
ENDBRANCH  22  23
ENDBRANCH   1  22
BRANCH   1  27
HETATM   27  N1  UNL     1     -11.807  76.452 120.912  1.00  0.00    -0.335 N 
HETATM   28  C6  UNL     1     -12.435  77.684 121.212  1.00  0.00     0.329 C 
HETATM   29  N2  UNL     1     -12.669  78.073 122.586  1.00  0.00    -0.040 NA
HETATM   30  O1  UNL     1     -12.840  78.533 120.390  1.00  0.00    -0.251 OA
ATOM     31  H1  UNL     1     -11.534  75.867 121.702  1.00  0.00     0.164 HD
ENDBRANCH   1  27
BRANCH   5  32
HETATM   32  N4  UNL     1      -9.406  73.349 121.187  1.00  0.00    -0.074 N 
ATOM     33  H43 UNL     1      -8.743  72.849 120.595  1.00  0.00     0.274 HD
ATOM     34  H42 UNL     1      -8.794  73.485 121.992  1.00  0.00     0.274 HD
ATOM     35  H41 UNL     1     -10.233  72.795 121.409  1.00  0.00     0.274 HD
ENDBRANCH   5  32
BRANCH   3  36
HETATM   36  N3  UNL     1      -8.776  77.400 120.787  1.00  0.00    -0.075 N 
ATOM     37  H33 UNL     1      -8.041  78.073 120.572  1.00  0.00     0.274 HD
ATOM     38  H32 UNL     1      -9.562  78.027 120.967  1.00  0.00     0.274 HD
ATOM     39  H31 UNL     1      -8.539  76.902 121.644  1.00  0.00     0.274 HD
ENDBRANCH   3  36
TORSDOF 13
ENDMDL
MODEL 5
REMARK VINA RESULT: -5.789003661      3.208      5.152
REMARK  13 active torsions:
REMARK  status: ('A' for Active; 'I' for Inactive)
REMARK    1  A    between atoms: C2_2  and  C3_3 
REMARK    2  A    between atoms: C3_3  and  S1_4 
REMARK    3  A    between atoms: S1_4  and  C4_5 
REMARK    4  A    between atoms: C4_5  and  C5_6 
REMARK    5  A    between atoms: C5_6  and  N1_7 
REMARK       I    between atoms: N1_7  and  C6_9 
REMARK    6  A    between atoms: C8_13  and  N3_14 
REMARK    7  A    between atoms: C10_19  and  N4_20 
REMARK    8  A    between atoms: C11_24  and  C12_25 
REMARK    9  A    between atoms: C12_25  and  S2_26 
REMARK   10  A    between atoms: S2_26  and  C13_27 
REMARK   11  A    between atoms: C16_31  and  O3_32 
REMARK   12  A    between atoms: C17_34  and  O4_35 
REMARK   13  A    between atoms: C18_37  and  O5_38 
ROOT
HETATM    1  C5  UNL     1     -10.824  77.170 117.890  1.00  0.00     0.051 C 
HETATM    2  C7  UNL     1     -12.090  78.020 117.878  1.00  0.00     0.065 C 
HETATM    3  C8  UNL     1     -13.011  77.830 116.740  1.00  0.00     0.188 C 
HETATM    4  C9  UNL     1     -13.305  76.392 116.391  1.00  0.00     0.066 C 
HETATM    5  C10 UNL     1     -11.929  75.709 116.320  1.00  0.00     0.192 C 
HETATM    6  C11 UNL     1     -11.382  75.768 117.697  1.00  0.00     0.054 C 
ENDROOT
BRANCH   6   7
HETATM    7  C12 UNL     1     -10.482  74.664 118.043  1.00  0.00     0.085 C 
BRANCH   7   8
HETATM    8  S2  UNL     1     -11.389  73.476 119.119  1.00  0.00    -0.134 SA
BRANCH   8   9
HETATM    9  C13 UNL     1     -11.358  71.816 118.390  1.00  0.00     0.214 C 
HETATM   10  O2  UNL     1     -10.863  70.848 119.217  1.00  0.00    -0.365 OA
HETATM   11  C14 UNL     1      -9.515  70.761 119.363  1.00  0.00     0.150 C 
HETATM   12  C15 UNL     1      -9.155  69.279 119.529  1.00  0.00     0.042 C 
HETATM   13  C16 UNL     1      -8.693  71.291 118.231  1.00  0.00     0.178 C 
HETATM   14  C17 UNL     1      -9.441  71.079 116.930  1.00  0.00     0.181 C 
HETATM   15  C18 UNL     1     -10.710  71.893 117.029  1.00  0.00     0.188 C 
BRANCH  13  16
HETATM   16  O3  UNL     1      -7.451  70.676 118.119  1.00  0.00    -0.390 OA
ATOM     17  H3  UNL     1      -7.355  70.166 117.324  1.00  0.00     0.210 HD
ENDBRANCH  13  16
BRANCH  14  18
HETATM   18  O4  UNL     1      -9.715  69.721 116.789  1.00  0.00    -0.390 OA
ATOM     19  H4  UNL     1      -9.970  69.554 115.889  1.00  0.00     0.210 HD
ENDBRANCH  14  18
BRANCH  15  20
HETATM   20  O5  UNL     1     -11.554  71.500 115.994  1.00  0.00    -0.389 OA
ATOM     21  H5  UNL     1     -12.381  71.145 116.297  1.00  0.00     0.210 HD
ENDBRANCH  15  20
ENDBRANCH   8   9
ENDBRANCH   7   8
ENDBRANCH   6   7
BRANCH   1  22
HETATM   22  C4  UNL     1     -10.299  77.413 119.290  1.00  0.00     0.105 C 
BRANCH  22  23
HETATM   23  S1  UNL     1     -11.279  78.091 120.491  1.00  0.00    -0.167 SA
BRANCH  23  24
HETATM   24  C3  UNL     1     -12.330  77.346 121.614  1.00  0.00     0.073 C 
BRANCH  24  25
HETATM   25  C2  UNL     1     -13.643  78.023 121.896  1.00  0.00     0.006 C 
HETATM   26  C1  UNL     1     -14.207  77.862 123.252  1.00  0.00     0.006 C 
ENDBRANCH  24  25
ENDBRANCH  23  24
ENDBRANCH  22  23
ENDBRANCH   1  22
BRANCH   1  27
HETATM   27  N1  UNL     1      -9.980  77.583 116.830  1.00  0.00    -0.335 N 
HETATM   28  C6  UNL     1      -8.575  77.429 116.776  1.00  0.00     0.329 C 
HETATM   29  N2  UNL     1      -7.829  77.895 115.627  1.00  0.00    -0.040 NA
HETATM   30  O1  UNL     1      -7.849  76.905 117.648  1.00  0.00    -0.251 OA
ATOM     31  H1  UNL     1     -10.428  78.034 116.032  1.00  0.00     0.164 HD
ENDBRANCH   1  27
BRANCH   5  32
HETATM   32  N4  UNL     1     -12.095  74.467 115.693  1.00  0.00    -0.074 N 
ATOM     33  H43 UNL     1     -12.298  74.551 114.698  1.00  0.00     0.274 HD
ATOM     34  H42 UNL     1     -11.222  73.946 115.611  1.00  0.00     0.274 HD
ATOM     35  H41 UNL     1     -12.815  73.952 116.201  1.00  0.00     0.274 HD
ENDBRANCH   5  32
BRANCH   3  36
HETATM   36  N3  UNL     1     -12.724  78.535 115.538  1.00  0.00    -0.075 N 
ATOM     37  H33 UNL     1     -11.844  79.040 115.645  1.00  0.00     0.274 HD
ATOM     38  H32 UNL     1     -12.475  77.868 114.808  1.00  0.00     0.274 HD
ATOM     39  H31 UNL     1     -13.438  79.172 115.184  1.00  0.00     0.274 HD
ENDBRANCH   3  36
TORSDOF 13
ENDMDL
