MODEL 1
REMARK VINA RESULT: -6.821652270      0.000      0.000
REMARK  6 active torsions:
REMARK  status: ('A' for Active; 'I' for Inactive)
REMARK    1  A    between atoms: N3_13  and  C9_14 
REMARK    2  A    between atoms: C9_14  and  C10_15 
REMARK    3  A    between atoms: C10_15  and  C11_16 
REMARK    4  A    between atoms: C11_16  and  N4_17 
REMARK    5  A    between atoms: N4_17  and  C12_20 
REMARK    6  A    between atoms: C12_20  and  C13_21 
ROOT
HETATM    1  C1  UNL     1      67.198  48.476  20.161  1.00  0.00     0.052 C 
HETATM    2  C2  UNL     1      67.462  49.937  20.009  1.00  0.00    -0.016 A 
HETATM    3  C3  UNL     1      68.638  50.408  20.551  1.00  0.00     0.055 A 
HETATM    4  C4  UNL     1      68.928  51.768  20.416  1.00  0.00     0.053 A 
HETATM    5  C5  UNL     1      68.031  52.575  19.751  1.00  0.00     0.046 A 
HETATM    6  C6  UNL     1      66.847  52.087  19.208  1.00  0.00     0.012 A 
HETATM    7  C7  UNL     1      65.792  52.647  18.509  1.00  0.00     0.120 A 
HETATM    8  N1  UNL     1      64.910  51.678  18.235  1.00  0.00    -0.311 N 
ATOM      9  H1  UNL     1      64.032  51.794  17.729  1.00  0.00     0.186 HD
HETATM   10  N2  UNL     1      65.377  50.540  18.736  1.00  0.00    -0.300 N 
ATOM     11  H2  UNL     1      64.903  49.639  18.670  1.00  0.00     0.187 HD
HETATM   12  C8  UNL     1      66.559  50.740  19.342  1.00  0.00     0.066 A 
HETATM   13  N3  UNL     1      70.173  52.038  21.035  1.00  0.00    -0.310 N 
HETATM   14  C17 UNL     1      70.678  50.807  21.571  1.00  0.00     0.299 A 
HETATM   15  O1  UNL     1      71.748  50.582  22.200  1.00  0.00    -0.263 OA
HETATM   16  C18 UNL     1      69.721  49.744  21.281  1.00  0.00     0.252 A 
HETATM   17  O2  UNL     1      69.795  48.513  21.588  1.00  0.00    -0.281 OA
ENDROOT
BRANCH  13  18
HETATM   18  C9  UNL     1      70.847  53.281  21.136  1.00  0.00     0.134 C 
BRANCH  18  19
HETATM   19  C10 UNL     1      70.460  54.145  22.308  1.00  0.00     0.048 C 
BRANCH  19  20
HETATM   20  C11 UNL     1      71.425  53.955  23.442  1.00  0.00     0.234 C 
BRANCH  20  21
HETATM   21  N4  UNL     1      70.827  53.282  24.571  1.00  0.00    -0.074 N 
ATOM     22  H42 UNL     1      71.181  52.337  24.715  1.00  0.00     0.277 HD
ATOM     23  H41 UNL     1      71.118  53.662  25.473  1.00  0.00     0.277 HD
BRANCH  21  24
HETATM   24  C12 UNL     1      69.374  53.338  24.353  1.00  0.00     0.240 C 
BRANCH  24  25
HETATM   25  C13 UNL     1      68.709  52.091  24.916  1.00  0.00    -0.028 C 
HETATM   26  C14 UNL     1      67.977  52.501  26.181  1.00  0.00     0.016 C 
HETATM   27  C15 UNL     1      69.722  51.024  25.199  1.00  0.00     0.016 C 
HETATM   28  C16 UNL     1      67.676  51.589  23.889  1.00  0.00     0.016 C 
ENDBRANCH  24  25
ENDBRANCH  21  24
ENDBRANCH  20  21
ENDBRANCH  19  20
ENDBRANCH  18  19
ENDBRANCH  13  18
TORSDOF 6
ENDMDL
MODEL 2
REMARK VINA RESULT: -6.736932236      1.772      4.720
REMARK  6 active torsions:
REMARK  status: ('A' for Active; 'I' for Inactive)
REMARK    1  A    between atoms: N3_13  and  C9_14 
REMARK    2  A    between atoms: C9_14  and  C10_15 
REMARK    3  A    between atoms: C10_15  and  C11_16 
REMARK    4  A    between atoms: C11_16  and  N4_17 
REMARK    5  A    between atoms: N4_17  and  C12_20 
REMARK    6  A    between atoms: C12_20  and  C13_21 
ROOT
HETATM    1  C1  UNL     1      72.095  50.145  23.218  1.00  0.00     0.052 C 
HETATM    2  C2  UNL     1      71.423  51.303  22.560  1.00  0.00    -0.016 A 
HETATM    3  C3  UNL     1      70.406  51.005  21.680  1.00  0.00     0.055 A 
HETATM    4  C4  UNL     1      69.742  52.063  21.055  1.00  0.00     0.053 A 
HETATM    5  C5  UNL     1      70.131  53.353  21.344  1.00  0.00     0.046 A 
HETATM    6  C6  UNL     1      71.160  53.641  22.235  1.00  0.00     0.012 A 
HETATM    7  C7  UNL     1      71.746  54.805  22.702  1.00  0.00     0.120 A 
HETATM    8  N1  UNL     1      72.713  54.468  23.565  1.00  0.00    -0.311 N 
ATOM      9  H1  UNL     1      73.317  55.117  24.069  1.00  0.00     0.186 HD
HETATM   10  N2  UNL     1      72.749  53.143  23.650  1.00  0.00    -0.300 N 
ATOM     11  H2  UNL     1      73.394  52.617  24.239  1.00  0.00     0.187 HD
HETATM   12  C8  UNL     1      71.817  52.593  22.853  1.00  0.00     0.066 A 
HETATM   13  N3  UNL     1      68.739  51.540  20.202  1.00  0.00    -0.310 N 
HETATM   14  C17 UNL     1      68.776  50.109  20.299  1.00  0.00     0.299 A 
HETATM   15  O1  UNL     1      68.066  49.245  19.717  1.00  0.00    -0.263 OA
HETATM   16  C18 UNL     1      69.831  49.732  21.235  1.00  0.00     0.252 A 
HETATM   17  O2  UNL     1      70.185  48.565  21.592  1.00  0.00    -0.281 OA
ENDROOT
BRANCH  13  18
HETATM   18  C9  UNL     1      67.834  52.254  19.377  1.00  0.00     0.134 C 
BRANCH  18  19
HETATM   19  C10 UNL     1      66.424  52.367  19.895  1.00  0.00     0.048 C 
BRANCH  19  20
HETATM   20  C11 UNL     1      66.348  53.384  20.995  1.00  0.00     0.234 C 
BRANCH  20  21
HETATM   21  N4  UNL     1      66.116  52.785  22.289  1.00  0.00    -0.074 N 
ATOM     22  H42 UNL     1      65.129  52.722  22.537  1.00  0.00     0.277 HD
ATOM     23  H41 UNL     1      66.314  51.785  22.316  1.00  0.00     0.277 HD
BRANCH  21  24
HETATM   24  C12 UNL     1      66.913  53.567  23.245  1.00  0.00     0.240 C 
BRANCH  24  25
HETATM   25  C13 UNL     1      67.390  52.677  24.384  1.00  0.00    -0.028 C 
HETATM   26  C14 UNL     1      66.328  52.725  25.468  1.00  0.00     0.016 C 
HETATM   27  C15 UNL     1      68.717  53.137  24.905  1.00  0.00     0.016 C 
HETATM   28  C16 UNL     1      67.492  51.233  23.858  1.00  0.00     0.016 C 
ENDBRANCH  24  25
ENDBRANCH  21  24
ENDBRANCH  20  21
ENDBRANCH  19  20
ENDBRANCH  18  19
ENDBRANCH  13  18
TORSDOF 6
ENDMDL
MODEL 3
REMARK VINA RESULT: -6.603354210      2.511      5.713
REMARK  6 active torsions:
REMARK  status: ('A' for Active; 'I' for Inactive)
REMARK    1  A    between atoms: N3_13  and  C9_14 
REMARK    2  A    between atoms: C9_14  and  C10_15 
REMARK    3  A    between atoms: C10_15  and  C11_16 
REMARK    4  A    between atoms: C11_16  and  N4_17 
REMARK    5  A    between atoms: N4_17  and  C12_20 
REMARK    6  A    between atoms: C12_20  and  C13_21 
ROOT
HETATM    1  C1  UNL     1      72.340  54.112  22.917  1.00  0.00     0.052 C 
HETATM    2  C2  UNL     1      71.994  52.697  22.593  1.00  0.00    -0.016 A 
HETATM    3  C3  UNL     1      70.878  52.502  21.809  1.00  0.00     0.055 A 
HETATM    4  C4  UNL     1      70.530  51.192  21.471  1.00  0.00     0.053 A 
HETATM    5  C5  UNL     1      71.312  50.157  21.935  1.00  0.00     0.046 A 
HETATM    6  C6  UNL     1      72.437  50.368  22.726  1.00  0.00     0.012 A 
HETATM    7  C7  UNL     1      73.380  49.545  23.317  1.00  0.00     0.120 A 
HETATM    8  N1  UNL     1      74.254  50.317  23.975  1.00  0.00    -0.311 N 
ATOM      9  H1  UNL     1      75.061  49.988  24.506  1.00  0.00     0.186 HD
HETATM   10  N2  UNL     1      73.889  51.584  23.817  1.00  0.00    -0.300 N 
ATOM     11  H2  UNL     1      74.381  52.384  24.214  1.00  0.00     0.187 HD
HETATM   12  C8  UNL     1      72.782  51.665  23.061  1.00  0.00     0.066 A 
HETATM   13  N3  UNL     1      69.365  51.216  20.665  1.00  0.00    -0.310 N 
HETATM   14  C17 UNL     1      68.974  52.586  20.491  1.00  0.00     0.299 A 
HETATM   15  O1  UNL     1      68.002  53.070  19.851  1.00  0.00    -0.263 OA
HETATM   16  C18 UNL     1      69.919  53.435  21.210  1.00  0.00     0.252 A 
HETATM   17  O2  UNL     1      69.922  54.702  21.307  1.00  0.00    -0.281 OA
ENDROOT
BRANCH  13  18
HETATM   18  C9  UNL     1      68.668  50.117  20.104  1.00  0.00     0.134 C 
BRANCH  18  19
HETATM   19  C10 UNL     1      67.258  49.913  20.596  1.00  0.00     0.048 C 
BRANCH  19  20
HETATM   20  C11 UNL     1      67.242  49.737  22.086  1.00  0.00     0.234 C 
BRANCH  20  21
HETATM   21  N4  UNL     1      66.641  50.858  22.770  1.00  0.00    -0.074 N 
ATOM     22  H42 UNL     1      66.397  51.630  22.149  1.00  0.00     0.277 HD
ATOM     23  H41 UNL     1      65.697  50.670  23.109  1.00  0.00     0.277 HD
BRANCH  21  24
HETATM   24  C12 UNL     1      67.582  51.234  23.834  1.00  0.00     0.240 C 
BRANCH  24  25
HETATM   25  C13 UNL     1      67.324  52.665  24.284  1.00  0.00    -0.028 C 
HETATM   26  C14 UNL     1      66.402  52.600  25.489  1.00  0.00     0.016 C 
HETATM   27  C15 UNL     1      66.714  53.473  23.179  1.00  0.00     0.016 C 
HETATM   28  C16 UNL     1      68.665  53.283  24.722  1.00  0.00     0.016 C 
ENDBRANCH  24  25
ENDBRANCH  21  24
ENDBRANCH  20  21
ENDBRANCH  19  20
ENDBRANCH  18  19
ENDBRANCH  13  18
TORSDOF 6
ENDMDL
MODEL 4
REMARK VINA RESULT: -6.556711684      2.554      5.731
REMARK  6 active torsions:
REMARK  status: ('A' for Active; 'I' for Inactive)
REMARK    1  A    between atoms: N3_13  and  C9_14 
REMARK    2  A    between atoms: C9_14  and  C10_15 
REMARK    3  A    between atoms: C10_15  and  C11_16 
REMARK    4  A    between atoms: C11_16  and  N4_17 
REMARK    5  A    between atoms: N4_17  and  C12_20 
REMARK    6  A    between atoms: C12_20  and  C13_21 
ROOT
HETATM    1  C1  UNL     1      68.151  53.481  25.279  1.00  0.00     0.052 C 
HETATM    2  C2  UNL     1      68.748  53.237  23.934  1.00  0.00    -0.016 A 
HETATM    3  C3  UNL     1      67.863  53.024  22.899  1.00  0.00     0.055 A 
HETATM    4  C4  UNL     1      68.383  52.806  21.621  1.00  0.00     0.053 A 
HETATM    5  C5  UNL     1      69.750  52.813  21.451  1.00  0.00     0.046 A 
HETATM    6  C6  UNL     1      70.633  53.029  22.504  1.00  0.00     0.012 A 
HETATM    7  C7  UNL     1      72.010  53.088  22.623  1.00  0.00     0.120 A 
HETATM    8  N1  UNL     1      72.308  53.331  23.906  1.00  0.00    -0.311 N 
ATOM      9  H1  UNL     1      73.247  53.428  24.294  1.00  0.00     0.186 HD
HETATM   10  N2  UNL     1      71.171  53.423  24.585  1.00  0.00    -0.300 N 
ATOM     11  H2  UNL     1      71.106  53.604  25.587  1.00  0.00     0.187 HD
HETATM   12  C8  UNL     1      70.118  53.244  23.769  1.00  0.00     0.066 A 
HETATM   13  N3  UNL     1      67.312  52.615  20.713  1.00  0.00    -0.310 N 
HETATM   14  C17 UNL     1      66.084  52.720  21.448  1.00  0.00     0.299 A 
HETATM   15  O1  UNL     1      64.894  52.618  21.043  1.00  0.00    -0.263 OA
HETATM   16  C18 UNL     1      66.399  52.980  22.849  1.00  0.00     0.252 A 
HETATM   17  O2  UNL     1      65.594  53.134  23.821  1.00  0.00    -0.281 OA
ENDROOT
BRANCH  13  18
HETATM   18  C9  UNL     1      67.382  52.363  19.320  1.00  0.00     0.134 C 
BRANCH  18  19
HETATM   19  C10 UNL     1      67.896  51.003  18.924  1.00  0.00     0.048 C 
BRANCH  19  20
HETATM   20  C11 UNL     1      66.905  49.938  19.292  1.00  0.00     0.234 C 
BRANCH  20  21
HETATM   21  N4  UNL     1      67.495  48.881  20.079  1.00  0.00    -0.074 N 
ATOM     22  H42 UNL     1      67.185  47.949  19.805  1.00  0.00     0.277 HD
ATOM     23  H41 UNL     1      68.488  48.741  19.894  1.00  0.00     0.277 HD
BRANCH  21  24
HETATM   24  C12 UNL     1      67.200  49.209  21.482  1.00  0.00     0.240 C 
BRANCH  24  25
HETATM   25  C13 UNL     1      68.376  48.831  22.369  1.00  0.00    -0.028 C 
HETATM   26  C14 UNL     1      68.136  49.462  23.729  1.00  0.00     0.016 C 
HETATM   27  C15 UNL     1      69.669  49.302  21.775  1.00  0.00     0.016 C 
HETATM   28  C16 UNL     1      68.387  47.300  22.531  1.00  0.00     0.016 C 
ENDBRANCH  24  25
ENDBRANCH  21  24
ENDBRANCH  20  21
ENDBRANCH  19  20
ENDBRANCH  18  19
ENDBRANCH  13  18
TORSDOF 6
ENDMDL
MODEL 5
REMARK VINA RESULT: -6.554106221      2.655      6.262
REMARK  6 active torsions:
REMARK  status: ('A' for Active; 'I' for Inactive)
REMARK    1  A    between atoms: N3_13  and  C9_14 
REMARK    2  A    between atoms: C9_14  and  C10_15 
REMARK    3  A    between atoms: C10_15  and  C11_16 
REMARK    4  A    between atoms: C11_16  and  N4_17 
REMARK    5  A    between atoms: N4_17  and  C12_20 
REMARK    6  A    between atoms: C12_20  and  C13_21 
ROOT
HETATM    1  C1  UNL     1      71.525  54.249  21.608  1.00  0.00     0.052 C 
HETATM    2  C2  UNL     1      71.107  53.240  22.624  1.00  0.00    -0.016 A 
HETATM    3  C3  UNL     1      69.772  53.227  22.964  1.00  0.00     0.055 A 
HETATM    4  C4  UNL     1      69.338  52.286  23.901  1.00  0.00     0.053 A 
HETATM    5  C5  UNL     1      70.259  51.416  24.442  1.00  0.00     0.046 A 
HETATM    6  C6  UNL     1      71.604  51.438  24.090  1.00  0.00     0.012 A 
HETATM    7  C7  UNL     1      72.720  50.708  24.460  1.00  0.00     0.120 A 
HETATM    8  N1  UNL     1      73.773  51.181  23.781  1.00  0.00    -0.311 N 
ATOM      9  H1  UNL     1      74.731  50.837  23.848  1.00  0.00     0.186 HD
HETATM   10  N2  UNL     1      73.354  52.176  23.007  1.00  0.00    -0.300 N 
ATOM     11  H2  UNL     1      73.952  52.716  22.382  1.00  0.00     0.187 HD
HETATM   12  C8  UNL     1      72.034  52.371  23.163  1.00  0.00     0.066 A 
HETATM   13  N3  UNL     1      67.944  52.442  24.102  1.00  0.00    -0.310 N 
HETATM   14  C17 UNL     1      67.492  53.514  23.261  1.00  0.00     0.299 A 
HETATM   15  O1  UNL     1      66.334  53.991  23.120  1.00  0.00    -0.263 OA
HETATM   16  C18 UNL     1      68.635  54.040  22.521  1.00  0.00     0.252 A 
HETATM   17  O2  UNL     1      68.656  54.990  21.678  1.00  0.00    -0.281 OA
ENDROOT
BRANCH  13  18
HETATM   18  C9  UNL     1      67.097  51.702  24.964  1.00  0.00     0.134 C 
BRANCH  18  19
HETATM   19  C10 UNL     1      66.881  50.259  24.592  1.00  0.00     0.048 C 
BRANCH  19  20
HETATM   20  C11 UNL     1      66.130  50.156  23.297  1.00  0.00     0.234 C 
BRANCH  20  21
HETATM   21  N4  UNL     1      66.968  49.727  22.203  1.00  0.00    -0.074 N 
ATOM     22  H42 UNL     1      67.935  49.552  22.476  1.00  0.00     0.277 HD
ATOM     23  H41 UNL     1      66.759  48.784  21.875  1.00  0.00     0.277 HD
BRANCH  21  24
HETATM   24  C12 UNL     1      66.829  50.754  21.160  1.00  0.00     0.240 C 
BRANCH  24  25
HETATM   25  C13 UNL     1      67.998  50.680  20.189  1.00  0.00    -0.028 C 
HETATM   26  C14 UNL     1      69.182  50.114  20.952  1.00  0.00     0.016 C 
HETATM   27  C15 UNL     1      68.314  52.032  19.626  1.00  0.00     0.016 C 
HETATM   28  C16 UNL     1      67.627  49.702  19.059  1.00  0.00     0.016 C 
ENDBRANCH  24  25
ENDBRANCH  21  24
ENDBRANCH  20  21
ENDBRANCH  19  20
ENDBRANCH  18  19
ENDBRANCH  13  18
TORSDOF 6
ENDMDL
