MODEL 1
REMARK VINA RESULT: -9.342914186      0.000      0.000
REMARK  14 active torsions:
REMARK  status: ('A' for Active; 'I' for Inactive)
REMARK    1  A    between atoms: N1_2  and  N2_4 
REMARK    2  A    between atoms: C2_5  and  C3_6 
REMARK    3  A    between atoms: C5_20  and  C6_21 
REMARK    4  A    between atoms: C6_21  and  O2_22 
REMARK    5  A    between atoms: C6_21  and  C7_24 
REMARK    6  A    between atoms: C7_24  and  N8_25 
REMARK    7  A    between atoms: N11_30  and  C8_31 
REMARK    8  A    between atoms: C8_31  and  C9_32 
REMARK    9  A    between atoms: C9_32  and  O3_33 
REMARK   10  A    between atoms: C9_32  and  C10_35 
REMARK   11  A    between atoms: C12_37  and  O4_38 
REMARK   12  A    between atoms: C13_40  and  O5_41 
REMARK   13  A    between atoms: C14_43  and  O6_44 
REMARK   14  A    between atoms: C16_47  and  N12_48 
REMARK       I    between atoms: N12_48  and  C17_50 
REMARK       I    between atoms: C17_50  and  N13_51 
REMARK       I    between atoms: C17_50  and  N14_55 
ROOT
HETATM    1  N8  UNL     1      18.531  25.305  -1.662  1.00  0.00    -0.104 N 
HETATM    2  N9  UNL     1      17.771  25.119  -0.611  1.00  0.00    -0.211 N 
ATOM      3  H9  UNL     1      16.759  24.987  -0.625  1.00  0.00     0.210 HD
HETATM    4  N10 UNL     1      18.528  25.129   0.468  1.00  0.00    -0.211 N 
ATOM      5  H10 UNL     1      18.214  25.007   1.431  1.00  0.00     0.210 HD
HETATM    6  N11 UNL     1      19.803  25.330   0.057  1.00  0.00    -0.104 N 
HETATM    7  C16 UNL     1      19.847  25.446  -1.272  1.00  0.00     0.717 A 
ENDROOT
BRANCH   1   8
HETATM    8  C7  UNL     1      18.089  25.360  -3.038  1.00  0.00     0.209 C 
BRANCH   8   9
HETATM    9  C6  UNL     1      16.651  25.804  -3.026  1.00  0.00     0.209 C 
BRANCH   9  10
HETATM   10  C5  UNL     1      16.282  26.735  -4.094  1.00  0.00     0.150 A 
HETATM   11  N2  UNL     1      15.608  27.942  -4.065  1.00  0.00    -0.223 N 
HETATM   12  C2  UNL     1      15.543  28.398  -5.311  1.00  0.00     0.189 A 
HETATM   13  N6  UNL     1      16.189  27.455  -6.109  1.00  0.00    -0.279 N 
HETATM   14  N7  UNL     1      16.607  26.500  -5.373  1.00  0.00    -0.283 N 
ATOM     15  H6  UNL     1      16.308  27.517  -7.120  1.00  0.00     0.189 HD
ATOM     16  H7  UNL     1      17.113  25.680  -5.707  1.00  0.00     0.188 HD
BRANCH  11  17
HETATM   17  N1  UNL     1      15.166  28.471  -2.877  1.00  0.00    -0.331 N 
HETATM   18  C1  UNL     1      14.654  29.727  -2.476  1.00  0.00     0.168 C 
ATOM     19  H1  UNL     1      15.221  27.806  -2.106  1.00  0.00     0.180 HD
ENDBRANCH  11  17
BRANCH  12  20
HETATM   20  C3  UNL     1      14.942  29.598  -5.853  1.00  0.00     0.177 A 
HETATM   21  N3  UNL     1      14.979  30.898  -5.623  1.00  0.00    -0.302 N 
HETATM   22  C4  UNL     1      14.190  31.610  -6.437  1.00  0.00     0.242 A 
ATOM     23  H3  UNL     1      15.555  31.320  -4.893  1.00  0.00     0.171 HD
HETATM   24  N4  UNL     1      14.000  32.886  -6.474  1.00  0.00    -0.364 N 
HETATM   25  O1  UNL     1      13.630  30.717  -7.215  1.00  0.00    -0.199 OA
ATOM     26  H42 UNL     1      14.436  33.581  -5.868  1.00  0.00     0.159 HD
ATOM     27  H41 UNL     1      13.398  33.429  -7.094  1.00  0.00     0.159 HD
HETATM   28  N5  UNL     1      14.048  29.523  -6.901  1.00  0.00    -0.238 N 
ATOM     29  H5  UNL     1      13.758  28.660  -7.362  1.00  0.00     0.197 HD
ENDBRANCH  12  20
ENDBRANCH   9  10
BRANCH   9  30
HETATM   30  O2  UNL     1      15.815  24.694  -3.076  1.00  0.00    -0.386 OA
ATOM     31  H2  UNL     1      16.318  23.936  -3.352  1.00  0.00     0.210 HD
ENDBRANCH   9  30
ENDBRANCH   8   9
ENDBRANCH   1   8
BRANCH   7  32
HETATM   32  N12 UNL     1      20.743  25.642  -2.049  1.00  0.00    -0.171 N 
HETATM   33  C17 UNL     1      22.021  25.939  -2.397  1.00  0.00     0.494 C 
HETATM   34  N13 UNL     1      22.980  24.944  -1.907  1.00  0.00    -0.032 N 
HETATM   35  N14 UNL     1      22.519  27.255  -2.003  1.00  0.00    -0.032 N 
ATOM     36 3H13 UNL     1      22.894  24.815  -0.899  1.00  0.00     0.278 HD
ATOM     37 2H13 UNL     1      22.725  24.005  -2.214  1.00  0.00     0.278 HD
ATOM     38 1H13 UNL     1      23.941  25.167  -2.169  1.00  0.00     0.278 HD
ATOM     39 3H14 UNL     1      21.891  27.977  -2.356  1.00  0.00     0.278 HD
ATOM     40 2H14 UNL     1      22.400  27.379  -0.998  1.00  0.00     0.278 HD
ATOM     41 1H14 UNL     1      23.480  27.478  -2.265  1.00  0.00     0.278 HD
ATOM     42  H12 UNL     1      20.288  25.512  -2.953  1.00  0.00     0.181 HD
ENDBRANCH   7  32
BRANCH   6  43
HETATM   43  C8  UNL     1      20.871  25.364   1.009  1.00  0.00     0.206 C 
BRANCH  43  44
HETATM   44  C9  UNL     1      20.942  26.675   1.791  1.00  0.00     0.171 C 
BRANCH  44  45
HETATM   45  O3  UNL     1      20.000  27.590   1.267  1.00  0.00    -0.389 OA
ATOM     46  H3  UNL     1      20.403  28.103   0.576  1.00  0.00     0.210 HD
ENDBRANCH  44  45
BRANCH  44  47
HETATM   47  C10 UNL     1      22.306  27.220   1.665  1.00  0.00    -0.022 A 
HETATM   48  C11 UNL     1      22.492  28.591   1.748  1.00  0.00     0.049 A 
HETATM   49  C12 UNL     1      23.765  29.102   1.631  1.00  0.00     0.102 A 
HETATM   50  C13 UNL     1      24.881  28.312   1.431  1.00  0.00     0.132 A 
HETATM   51  C14 UNL     1      24.677  26.956   1.351  1.00  0.00     0.102 A 
HETATM   52  C15 UNL     1      23.415  26.408   1.465  1.00  0.00     0.049 A 
BRANCH  49  53
HETATM   53  O4  UNL     1      23.963  30.490   1.714  1.00  0.00    -0.358 OA
ATOM     54  H4  UNL     1      24.683  30.888   1.239  1.00  0.00     0.217 HD
ENDBRANCH  49  53
BRANCH  50  55
HETATM   55  O5  UNL     1      26.153  28.883   1.318  1.00  0.00    -0.356 OA
ATOM     56  H5  UNL     1      26.876  28.570   1.850  1.00  0.00     0.218 HD
ENDBRANCH  50  55
BRANCH  51  57
HETATM   57  O6  UNL     1      25.797  26.141   1.149  1.00  0.00    -0.358 OA
ATOM     58  H6  UNL     1      26.007  25.893   0.257  1.00  0.00     0.217 HD
ENDBRANCH  51  57
ENDBRANCH  44  47
ENDBRANCH  43  44
ENDBRANCH   6  43
TORSDOF 14
ENDMDL
MODEL 2
REMARK VINA RESULT: -9.281797752      0.035      1.352
REMARK  14 active torsions:
REMARK  status: ('A' for Active; 'I' for Inactive)
REMARK    1  A    between atoms: N1_2  and  N2_4 
REMARK    2  A    between atoms: C2_5  and  C3_6 
REMARK    3  A    between atoms: C5_20  and  C6_21 
REMARK    4  A    between atoms: C6_21  and  O2_22 
REMARK    5  A    between atoms: C6_21  and  C7_24 
REMARK    6  A    between atoms: C7_24  and  N8_25 
REMARK    7  A    between atoms: N11_30  and  C8_31 
REMARK    8  A    between atoms: C8_31  and  C9_32 
REMARK    9  A    between atoms: C9_32  and  O3_33 
REMARK   10  A    between atoms: C9_32  and  C10_35 
REMARK   11  A    between atoms: C12_37  and  O4_38 
REMARK   12  A    between atoms: C13_40  and  O5_41 
REMARK   13  A    between atoms: C14_43  and  O6_44 
REMARK   14  A    between atoms: C16_47  and  N12_48 
REMARK       I    between atoms: N12_48  and  C17_50 
REMARK       I    between atoms: C17_50  and  N13_51 
REMARK       I    between atoms: C17_50  and  N14_55 
ROOT
HETATM    1  N8  UNL     1      18.535  25.304  -1.661  1.00  0.00    -0.104 N 
HETATM    2  N9  UNL     1      17.779  25.125  -0.605  1.00  0.00    -0.211 N 
ATOM      3  H9  UNL     1      16.767  24.992  -0.615  1.00  0.00     0.210 HD
HETATM    4  N10 UNL     1      18.540  25.144   0.470  1.00  0.00    -0.211 N 
ATOM      5  H10 UNL     1      18.229  25.030   1.435  1.00  0.00     0.210 HD
HETATM    6  N11 UNL     1      19.813  25.344   0.053  1.00  0.00    -0.104 N 
HETATM    7  C16 UNL     1      19.852  25.450  -1.277  1.00  0.00     0.717 A 
ENDROOT
BRANCH   1   8
HETATM    8  C7  UNL     1      18.088  25.347  -3.036  1.00  0.00     0.209 C 
BRANCH   8   9
HETATM    9  C6  UNL     1      16.652  25.798  -3.022  1.00  0.00     0.209 C 
BRANCH   9  10
HETATM   10  C5  UNL     1      16.286  26.733  -4.089  1.00  0.00     0.150 A 
HETATM   11  N2  UNL     1      15.606  27.935  -4.060  1.00  0.00    -0.223 N 
HETATM   12  C2  UNL     1      15.549  28.397  -5.303  1.00  0.00     0.189 A 
HETATM   13  N6  UNL     1      16.207  27.462  -6.101  1.00  0.00    -0.279 N 
HETATM   14  N7  UNL     1      16.624  26.506  -5.366  1.00  0.00    -0.283 N 
ATOM     15  H6  UNL     1      16.335  27.531  -7.110  1.00  0.00     0.189 HD
ATOM     16  H7  UNL     1      17.138  25.691  -5.700  1.00  0.00     0.188 HD
BRANCH  11  17
HETATM   17  N1  UNL     1      15.150  28.455  -2.872  1.00  0.00    -0.331 N 
HETATM   18  C1  UNL     1      14.676  29.722  -2.457  1.00  0.00     0.168 C 
ATOM     19  H1  UNL     1      15.155  27.771  -2.116  1.00  0.00     0.180 HD
ENDBRANCH  11  17
BRANCH  12  20
HETATM   20  C3  UNL     1      14.946  29.597  -5.844  1.00  0.00     0.177 A 
HETATM   21  N3  UNL     1      14.983  30.898  -5.614  1.00  0.00    -0.302 N 
HETATM   22  C4  UNL     1      14.191  31.608  -6.426  1.00  0.00     0.242 A 
ATOM     23  H3  UNL     1      15.560  31.320  -4.887  1.00  0.00     0.171 HD
HETATM   24  N4  UNL     1      14.000  32.884  -6.464  1.00  0.00    -0.364 N 
HETATM   25  O1  UNL     1      13.629  30.714  -7.203  1.00  0.00    -0.199 OA
ATOM     26  H42 UNL     1      14.437  33.580  -5.859  1.00  0.00     0.159 HD
ATOM     27  H41 UNL     1      13.396  33.426  -7.082  1.00  0.00     0.159 HD
HETATM   28  N5  UNL     1      14.049  29.521  -6.890  1.00  0.00    -0.238 N 
ATOM     29  H5  UNL     1      13.758  28.658  -7.350  1.00  0.00     0.197 HD
ENDBRANCH  12  20
ENDBRANCH   9  10
BRANCH   9  30
HETATM   30  O2  UNL     1      15.811  24.692  -3.075  1.00  0.00    -0.386 OA
ATOM     31  H2  UNL     1      16.059  24.077  -2.394  1.00  0.00     0.210 HD
ENDBRANCH   9  30
ENDBRANCH   8   9
ENDBRANCH   1   8
BRANCH   7  32
HETATM   32  N12 UNL     1      20.745  25.640  -2.059  1.00  0.00    -0.171 N 
HETATM   33  C17 UNL     1      22.019  25.946  -2.414  1.00  0.00     0.494 C 
HETATM   34  N13 UNL     1      22.991  24.974  -1.905  1.00  0.00    -0.032 N 
HETATM   35  N14 UNL     1      22.501  27.276  -2.049  1.00  0.00    -0.032 N 
ATOM     36 3H13 UNL     1      22.907  24.865  -0.894  1.00  0.00     0.278 HD
ATOM     37 2H13 UNL     1      22.747  24.025  -2.192  1.00  0.00     0.278 HD
ATOM     38 1H13 UNL     1      23.948  25.203  -2.172  1.00  0.00     0.278 HD
ATOM     39 3H14 UNL     1      21.863  27.983  -2.417  1.00  0.00     0.278 HD
ATOM     40 2H14 UNL     1      22.381  27.420  -1.046  1.00  0.00     0.278 HD
ATOM     41 1H14 UNL     1      23.458  27.505  -2.316  1.00  0.00     0.278 HD
ATOM     42  H12 UNL     1      20.291  25.486  -2.959  1.00  0.00     0.181 HD
ENDBRANCH   7  32
BRANCH   6  43
HETATM   43  C8  UNL     1      20.885  25.386   1.000  1.00  0.00     0.206 C 
BRANCH  43  44
HETATM   44  C9  UNL     1      20.926  26.683   1.808  1.00  0.00     0.171 C 
BRANCH  44  45
HETATM   45  O3  UNL     1      19.953  27.582   1.312  1.00  0.00    -0.389 OA
ATOM     46  H3  UNL     1      19.124  27.429   1.752  1.00  0.00     0.210 HD
ENDBRANCH  44  45
BRANCH  44  47
HETATM   47  C10 UNL     1      22.272  27.270   1.682  1.00  0.00    -0.022 A 
HETATM   48  C11 UNL     1      23.355  26.429   1.474  1.00  0.00     0.049 A 
HETATM   49  C12 UNL     1      24.612  26.975   1.356  1.00  0.00     0.102 A 
HETATM   50  C13 UNL     1      24.857  28.333   1.436  1.00  0.00     0.132 A 
HETATM   51  C14 UNL     1      23.773  29.150   1.642  1.00  0.00     0.102 A 
HETATM   52  C15 UNL     1      22.496  28.637   1.765  1.00  0.00     0.049 A 
BRANCH  49  53
HETATM   53  O4  UNL     1      25.715  26.132   1.145  1.00  0.00    -0.358 OA
ATOM     54  H4  UNL     1      26.422  26.120   1.780  1.00  0.00     0.217 HD
ENDBRANCH  49  53
BRANCH  50  55
HETATM   55  O5  UNL     1      26.157  28.837   1.310  1.00  0.00    -0.356 OA
ATOM     56  H5  UNL     1      26.718  28.934   2.071  1.00  0.00     0.218 HD
ENDBRANCH  50  55
BRANCH  51  57
HETATM   57  O6  UNL     1      24.003  30.528   1.726  1.00  0.00    -0.358 OA
ATOM     58  H6  UNL     1      23.311  31.110   1.434  1.00  0.00     0.217 HD
ENDBRANCH  51  57
ENDBRANCH  44  47
ENDBRANCH  43  44
ENDBRANCH   6  43
TORSDOF 14
ENDMDL
MODEL 3
REMARK VINA RESULT: -8.724404437      3.589      5.516
REMARK  14 active torsions:
REMARK  status: ('A' for Active; 'I' for Inactive)
REMARK    1  A    between atoms: N1_2  and  N2_4 
REMARK    2  A    between atoms: C2_5  and  C3_6 
REMARK    3  A    between atoms: C5_20  and  C6_21 
REMARK    4  A    between atoms: C6_21  and  O2_22 
REMARK    5  A    between atoms: C6_21  and  C7_24 
REMARK    6  A    between atoms: C7_24  and  N8_25 
REMARK    7  A    between atoms: N11_30  and  C8_31 
REMARK    8  A    between atoms: C8_31  and  C9_32 
REMARK    9  A    between atoms: C9_32  and  O3_33 
REMARK   10  A    between atoms: C9_32  and  C10_35 
REMARK   11  A    between atoms: C12_37  and  O4_38 
REMARK   12  A    between atoms: C13_40  and  O5_41 
REMARK   13  A    between atoms: C14_43  and  O6_44 
REMARK   14  A    between atoms: C16_47  and  N12_48 
REMARK       I    between atoms: N12_48  and  C17_50 
REMARK       I    between atoms: C17_50  and  N13_51 
REMARK       I    between atoms: C17_50  and  N14_55 
ROOT
HETATM    1  N8  UNL     1      21.042  25.621   2.518  1.00  0.00    -0.104 N 
HETATM    2  N9  UNL     1      20.802  26.388   3.554  1.00  0.00    -0.211 N 
ATOM      3  H9  UNL     1      19.924  26.870   3.745  1.00  0.00     0.210 HD
HETATM    4  N10 UNL     1      21.883  26.435   4.307  1.00  0.00    -0.211 N 
ATOM      5  H10 UNL     1      21.992  26.953   5.178  1.00  0.00     0.210 HD
HETATM    6  N11 UNL     1      22.820  25.665   3.705  1.00  0.00    -0.104 N 
HETATM    7  C16 UNL     1      22.333  25.136   2.580  1.00  0.00     0.717 A 
ENDROOT
BRANCH   1   8
HETATM    8  C7  UNL     1      20.116  25.308   1.453  1.00  0.00     0.209 C 
BRANCH   8   9
HETATM    9  C6  UNL     1      20.454  26.205   0.292  1.00  0.00     0.209 C 
BRANCH   9  10
HETATM   10  C5  UNL     1      19.745  25.901  -0.953  1.00  0.00     0.150 A 
HETATM   11  N2  UNL     1      20.175  25.858  -2.266  1.00  0.00    -0.223 N 
HETATM   12  C2  UNL     1      19.137  25.516  -3.020  1.00  0.00     0.189 A 
HETATM   13  N6  UNL     1      18.059  25.346  -2.152  1.00  0.00    -0.279 N 
HETATM   14  N7  UNL     1      18.444  25.577  -0.957  1.00  0.00    -0.283 N 
ATOM     15  H6  UNL     1      17.114  25.079  -2.427  1.00  0.00     0.189 HD
ATOM     16  H7  UNL     1      17.851  25.523  -0.130  1.00  0.00     0.188 HD
BRANCH  11  17
HETATM   17  N1  UNL     1      21.486  26.118  -2.583  1.00  0.00    -0.331 N 
HETATM   18  C1  UNL     1      22.716  25.463  -2.346  1.00  0.00     0.168 C 
ATOM     19  H1  UNL     1      21.598  26.983  -3.112  1.00  0.00     0.180 HD
ENDBRANCH  11  17
BRANCH  12  20
HETATM   20  C3  UNL     1      19.020  25.340  -4.451  1.00  0.00     0.177 A 
HETATM   21  N3  UNL     1      19.770  24.896  -5.445  1.00  0.00    -0.302 N 
HETATM   22  C4  UNL     1      19.169  24.960  -6.640  1.00  0.00     0.242 A 
ATOM     23  H3  UNL     1      20.717  24.540  -5.314  1.00  0.00     0.171 HD
HETATM   24  N4  UNL     1      19.621  24.610  -7.797  1.00  0.00    -0.364 N 
HETATM   25  O1  UNL     1      17.987  25.466  -6.387  1.00  0.00    -0.199 OA
ATOM     26  H42 UNL     1      20.541  24.215  -7.994  1.00  0.00     0.159 HD
ATOM     27  H41 UNL     1      19.163  24.658  -8.708  1.00  0.00     0.159 HD
HETATM   28  N5  UNL     1      17.864  25.702  -5.111  1.00  0.00    -0.238 N 
ATOM     29  H5  UNL     1      17.035  26.096  -4.665  1.00  0.00     0.197 HD
ENDBRANCH  12  20
ENDBRANCH   9  10
BRANCH   9  30
HETATM   30  O2  UNL     1      20.222  27.531   0.639  1.00  0.00    -0.386 OA
ATOM     31  H2  UNL     1      20.144  27.599   1.583  1.00  0.00     0.210 HD
ENDBRANCH   9  30
ENDBRANCH   8   9
ENDBRANCH   1   8
BRANCH   7  32
HETATM   32  N12 UNL     1      22.804  24.418   1.740  1.00  0.00    -0.171 N 
HETATM   33  C17 UNL     1      23.818  23.786   1.096  1.00  0.00     0.494 C 
HETATM   34  N13 UNL     1      24.529  22.842   1.963  1.00  0.00    -0.032 N 
HETATM   35  N14 UNL     1      24.822  24.635   0.460  1.00  0.00    -0.032 N 
ATOM     36 3H13 UNL     1      24.862  23.301   2.811  1.00  0.00     0.278 HD
ATOM     37 2H13 UNL     1      23.885  22.171   2.382  1.00  0.00     0.278 HD
ATOM     38 1H13 UNL     1      25.291  22.366   1.479  1.00  0.00     0.278 HD
ATOM     39 3H14 UNL     1      24.364  25.286  -0.179  1.00  0.00     0.278 HD
ATOM     40 2H14 UNL     1      25.205  25.285   1.146  1.00  0.00     0.278 HD
ATOM     41 1H14 UNL     1      25.583  24.159  -0.024  1.00  0.00     0.278 HD
ATOM     42  H12 UNL     1      21.982  24.113   1.219  1.00  0.00     0.181 HD
ENDBRANCH   7  32
BRANCH   6  43
HETATM   43  C8  UNL     1      24.108  25.494   4.306  1.00  0.00     0.206 C 
BRANCH  43  44
HETATM   44  C9  UNL     1      25.218  26.252   3.580  1.00  0.00     0.171 C 
BRANCH  44  45
HETATM   45  O3  UNL     1      26.471  25.907   4.139  1.00  0.00    -0.389 OA
ATOM     46  H3  UNL     1      26.502  24.970   4.298  1.00  0.00     0.210 HD
ENDBRANCH  44  45
BRANCH  44  47
HETATM   47  C10 UNL     1      24.973  27.698   3.732  1.00  0.00    -0.022 A 
HETATM   48  C11 UNL     1      24.709  28.457   2.603  1.00  0.00     0.049 A 
HETATM   49  C12 UNL     1      24.481  29.807   2.743  1.00  0.00     0.102 A 
HETATM   50  C13 UNL     1      24.501  30.454   3.963  1.00  0.00     0.132 A 
HETATM   51  C14 UNL     1      24.764  29.686   5.071  1.00  0.00     0.102 A 
HETATM   52  C15 UNL     1      24.999  28.329   4.968  1.00  0.00     0.049 A 
BRANCH  49  53
HETATM   53  O4  UNL     1      24.212  30.584   1.604  1.00  0.00    -0.358 OA
ATOM     54  H4  UNL     1      24.297  30.195   0.742  1.00  0.00     0.217 HD
ENDBRANCH  49  53
BRANCH  50  55
HETATM   55  O5  UNL     1      24.262  31.830   4.050  1.00  0.00    -0.356 OA
ATOM     56  H5  UNL     1      24.103  32.347   3.269  1.00  0.00     0.218 HD
ENDBRANCH  50  55
BRANCH  51  57
HETATM   57  O6  UNL     1      24.790  30.325   6.316  1.00  0.00    -0.358 OA
ATOM     58  H6  UNL     1      25.186  29.861   7.043  1.00  0.00     0.217 HD
ENDBRANCH  51  57
ENDBRANCH  44  47
ENDBRANCH  43  44
ENDBRANCH   6  43
TORSDOF 14
ENDMDL
MODEL 4
REMARK VINA RESULT: -8.718941959      3.716      6.714
REMARK  14 active torsions:
REMARK  status: ('A' for Active; 'I' for Inactive)
REMARK    1  A    between atoms: N1_2  and  N2_4 
REMARK    2  A    between atoms: C2_5  and  C3_6 
REMARK    3  A    between atoms: C5_20  and  C6_21 
REMARK    4  A    between atoms: C6_21  and  O2_22 
REMARK    5  A    between atoms: C6_21  and  C7_24 
REMARK    6  A    between atoms: C7_24  and  N8_25 
REMARK    7  A    between atoms: N11_30  and  C8_31 
REMARK    8  A    between atoms: C8_31  and  C9_32 
REMARK    9  A    between atoms: C9_32  and  O3_33 
REMARK   10  A    between atoms: C9_32  and  C10_35 
REMARK   11  A    between atoms: C12_37  and  O4_38 
REMARK   12  A    between atoms: C13_40  and  O5_41 
REMARK   13  A    between atoms: C14_43  and  O6_44 
REMARK   14  A    between atoms: C16_47  and  N12_48 
REMARK       I    between atoms: N12_48  and  C17_50 
REMARK       I    between atoms: C17_50  and  N13_51 
REMARK       I    between atoms: C17_50  and  N14_55 
ROOT
HETATM    1  N8  UNL     1      22.177  23.837   3.687  1.00  0.00    -0.104 N 
HETATM    2  N9  UNL     1      23.338  23.236   3.599  1.00  0.00    -0.211 N 
ATOM      3  H9  UNL     1      23.512  22.249   3.792  1.00  0.00     0.210 HD
HETATM    4  N10 UNL     1      24.243  24.115   3.219  1.00  0.00    -0.211 N 
ATOM      5  H10 UNL     1      25.236  23.936   3.066  1.00  0.00     0.210 HD
HETATM    6  N11 UNL     1      23.608  25.301   3.071  1.00  0.00    -0.104 N 
HETATM    7  C16 UNL     1      22.310  25.170   3.355  1.00  0.00     0.717 A 
ENDROOT
BRANCH   1   8
HETATM    8  C7  UNL     1      20.924  23.225   4.072  1.00  0.00     0.209 C 
BRANCH   8   9
HETATM    9  C6  UNL     1      20.580  22.213   3.012  1.00  0.00     0.209 C 
BRANCH   9  10
HETATM   10  C5  UNL     1      20.310  22.773   1.686  1.00  0.00     0.150 A 
HETATM   11  N2  UNL     1      19.208  23.435   1.177  1.00  0.00    -0.223 N 
HETATM   12  C2  UNL     1      19.473  23.749  -0.085  1.00  0.00     0.189 A 
HETATM   13  N6  UNL     1      20.757  23.274  -0.348  1.00  0.00    -0.279 N 
HETATM   14  N7  UNL     1      21.217  22.711   0.701  1.00  0.00    -0.283 N 
ATOM     15  H6  UNL     1      21.250  23.362  -1.237  1.00  0.00     0.189 HD
ATOM     16  H7  UNL     1      22.137  22.278   0.778  1.00  0.00     0.188 HD
BRANCH  11  17
HETATM   17  N1  UNL     1      18.111  23.680   1.967  1.00  0.00    -0.331 N 
HETATM   18  C1  UNL     1      17.769  24.673   2.915  1.00  0.00     0.168 C 
ATOM     19  H1  UNL     1      17.373  22.987   1.841  1.00  0.00     0.180 HD
ENDBRANCH  11  17
BRANCH  12  20
HETATM   20  C3  UNL     1      18.673  24.428  -1.083  1.00  0.00     0.177 A 
HETATM   21  N3  UNL     1      17.589  24.183  -1.797  1.00  0.00    -0.302 N 
HETATM   22  C4  UNL     1      17.256  25.181  -2.625  1.00  0.00     0.242 A 
ATOM     23  H3  UNL     1      17.056  23.316  -1.724  1.00  0.00     0.171 HD
HETATM   24  N4  UNL     1      16.264  25.258  -3.448  1.00  0.00    -0.364 N 
HETATM   25  O1  UNL     1      18.172  26.095  -2.423  1.00  0.00    -0.199 OA
ATOM     26  H42 UNL     1      15.551  24.545  -3.605  1.00  0.00     0.159 HD
ATOM     27  H41 UNL     1      16.010  26.018  -4.079  1.00  0.00     0.159 HD
HETATM   28  N5  UNL     1      19.022  25.688  -1.523  1.00  0.00    -0.238 N 
ATOM     29  H5  UNL     1      19.827  26.221  -1.193  1.00  0.00     0.197 HD
ENDBRANCH  12  20
ENDBRANCH   9  10
BRANCH   9  30
HETATM   30  O2  UNL     1      21.597  21.271   2.913  1.00  0.00    -0.386 OA
ATOM     31  H2  UNL     1      21.257  20.416   3.149  1.00  0.00     0.210 HD
ENDBRANCH   9  30
ENDBRANCH   8   9
ENDBRANCH   1   8
BRANCH   7  32
HETATM   32  N12 UNL     1      21.391  25.943   3.370  1.00  0.00    -0.171 N 
HETATM   33  C17 UNL     1      20.652  26.979   2.896  1.00  0.00     0.494 C 
HETATM   34  N13 UNL     1      20.090  26.705   1.570  1.00  0.00    -0.032 N 
HETATM   35  N14 UNL     1      21.313  28.280   2.829  1.00  0.00    -0.032 N 
ATOM     36 3H13 UNL     1      20.820  26.441   0.909  1.00  0.00     0.278 HD
ATOM     37 2H13 UNL     1      19.550  25.839   1.572  1.00  0.00     0.278 HD
ATOM     38 1H13 UNL     1      19.534  27.483   1.214  1.00  0.00     0.278 HD
ATOM     39 3H14 UNL     1      21.691  28.520   3.746  1.00  0.00     0.278 HD
ATOM     40 2H14 UNL     1      22.175  28.198   2.288  1.00  0.00     0.278 HD
ATOM     41 1H14 UNL     1      20.758  29.058   2.473  1.00  0.00     0.278 HD
ATOM     42  H12 UNL     1      20.880  25.668   4.209  1.00  0.00     0.181 HD
ENDBRANCH   7  32
BRANCH   6  43
HETATM   43  C8  UNL     1      24.329  26.457   2.634  1.00  0.00     0.206 C 
BRANCH  43  44
HETATM   44  C9  UNL     1      25.173  26.206   1.384  1.00  0.00     0.171 C 
BRANCH  44  45
HETATM   45  O3  UNL     1      26.081  27.275   1.203  1.00  0.00    -0.389 OA
ATOM     46  H3  UNL     1      26.934  27.029   1.541  1.00  0.00     0.210 HD
ENDBRANCH  44  45
BRANCH  44  47
HETATM   47  C10 UNL     1      24.269  26.102   0.224  1.00  0.00    -0.022 A 
HETATM   48  C11 UNL     1      24.524  25.141  -0.742  1.00  0.00     0.049 A 
HETATM   49  C12 UNL     1      23.681  25.043  -1.826  1.00  0.00     0.102 A 
HETATM   50  C13 UNL     1      22.582  25.862  -2.006  1.00  0.00     0.132 A 
HETATM   51  C14 UNL     1      22.346  26.808  -1.038  1.00  0.00     0.102 A 
HETATM   52  C15 UNL     1      23.170  26.935   0.063  1.00  0.00     0.049 A 
BRANCH  49  53
HETATM   53  O4  UNL     1      23.930  24.072  -2.809  1.00  0.00    -0.358 OA
ATOM     54  H4  UNL     1      23.204  23.711  -3.304  1.00  0.00     0.217 HD
ENDBRANCH  49  53
BRANCH  50  55
HETATM   55  O5  UNL     1      21.758  25.720  -3.127  1.00  0.00    -0.356 OA
ATOM     56  H5  UNL     1      21.881  26.266  -3.895  1.00  0.00     0.218 HD
ENDBRANCH  50  55
BRANCH  51  57
HETATM   57  O6  UNL     1      21.238  27.646  -1.205  1.00  0.00    -0.358 OA
ATOM     58  H6  UNL     1      21.351  28.570  -1.018  1.00  0.00     0.217 HD
ENDBRANCH  51  57
ENDBRANCH  44  47
ENDBRANCH  43  44
ENDBRANCH   6  43
TORSDOF 14
ENDMDL
MODEL 5
REMARK VINA RESULT: -8.641761872      5.133      9.341
REMARK  14 active torsions:
REMARK  status: ('A' for Active; 'I' for Inactive)
REMARK    1  A    between atoms: N1_2  and  N2_4 
REMARK    2  A    between atoms: C2_5  and  C3_6 
REMARK    3  A    between atoms: C5_20  and  C6_21 
REMARK    4  A    between atoms: C6_21  and  O2_22 
REMARK    5  A    between atoms: C6_21  and  C7_24 
REMARK    6  A    between atoms: C7_24  and  N8_25 
REMARK    7  A    between atoms: N11_30  and  C8_31 
REMARK    8  A    between atoms: C8_31  and  C9_32 
REMARK    9  A    between atoms: C9_32  and  O3_33 
REMARK   10  A    between atoms: C9_32  and  C10_35 
REMARK   11  A    between atoms: C12_37  and  O4_38 
REMARK   12  A    between atoms: C13_40  and  O5_41 
REMARK   13  A    between atoms: C14_43  and  O6_44 
REMARK   14  A    between atoms: C16_47  and  N12_48 
REMARK       I    between atoms: N12_48  and  C17_50 
REMARK       I    between atoms: C17_50  and  N13_51 
REMARK       I    between atoms: C17_50  and  N14_55 
ROOT
HETATM    1  N8  UNL     1      22.507  24.525   1.302  1.00  0.00    -0.104 N 
HETATM    2  N9  UNL     1      23.539  25.264   0.977  1.00  0.00    -0.211 N 
ATOM      3  H9  UNL     1      24.258  25.596   1.620  1.00  0.00     0.210 HD
HETATM    4  N10 UNL     1      23.496  25.509  -0.317  1.00  0.00    -0.211 N 
ATOM      5  H10 UNL     1      24.167  26.058  -0.853  1.00  0.00     0.210 HD
HETATM    6  N11 UNL     1      22.391  24.893  -0.801  1.00  0.00    -0.104 N 
HETATM    7  C16 UNL     1      21.743  24.265   0.182  1.00  0.00     0.717 A 
ENDROOT
BRANCH   1   8
HETATM    8  C7  UNL     1      22.187  24.036   2.625  1.00  0.00     0.209 C 
BRANCH   8   9
HETATM    9  C6  UNL     1      21.317  25.073   3.284  1.00  0.00     0.209 C 
BRANCH   9  10
HETATM   10  C5  UNL     1      21.807  26.450   3.177  1.00  0.00     0.150 A 
HETATM   11  N2  UNL     1      22.938  27.062   3.685  1.00  0.00    -0.223 N 
HETATM   12  C2  UNL     1      22.924  28.328   3.288  1.00  0.00     0.189 A 
HETATM   13  N6  UNL     1      21.767  28.489   2.526  1.00  0.00    -0.279 N 
HETATM   14  N7  UNL     1      21.139  27.380   2.480  1.00  0.00    -0.283 N 
ATOM     15  H6  UNL     1      21.471  29.356   2.076  1.00  0.00     0.189 HD
ATOM     16  H7  UNL     1      20.261  27.223   1.987  1.00  0.00     0.188 HD
BRANCH  11  17
HETATM   17  N1  UNL     1      23.847  26.350   4.429  1.00  0.00    -0.331 N 
HETATM   18  C1  UNL     1      25.217  26.030   4.287  1.00  0.00     0.168 C 
ATOM     19  H1  UNL     1      23.440  25.962   5.280  1.00  0.00     0.180 HD
ENDBRANCH  11  17
BRANCH  12  20
HETATM   20  C3  UNL     1      23.847  29.413   3.542  1.00  0.00     0.177 A 
HETATM   21  N3  UNL     1      24.076  30.298   4.496  1.00  0.00    -0.302 N 
HETATM   22  C4  UNL     1      25.089  31.131   4.224  1.00  0.00     0.242 A 
ATOM     23  H3  UNL     1      23.533  30.343   5.358  1.00  0.00     0.171 HD
HETATM   24  N4  UNL     1      25.562  32.096   4.938  1.00  0.00    -0.364 N 
HETATM   25  O1  UNL     1      25.517  30.753   3.044  1.00  0.00    -0.199 OA
ATOM     26  H42 UNL     1      25.229  32.390   5.856  1.00  0.00     0.159 HD
ATOM     27  H41 UNL     1      26.334  32.731   4.730  1.00  0.00     0.159 HD
HETATM   28  N5  UNL     1      24.811  29.746   2.612  1.00  0.00    -0.238 N 
ATOM     29  H5  UNL     1      24.950  29.273   1.719  1.00  0.00     0.197 HD
ENDBRANCH  12  20
ENDBRANCH   9  10
BRANCH   9  30
HETATM   30  O2  UNL     1      20.029  25.004   2.766  1.00  0.00    -0.386 OA
ATOM     31  H2  UNL     1      20.064  24.654   1.883  1.00  0.00     0.210 HD
ENDBRANCH   9  30
ENDBRANCH   8   9
ENDBRANCH   1   8
BRANCH   7  32
HETATM   32  N12 UNL     1      20.732  23.617   0.215  1.00  0.00    -0.171 N 
HETATM   33  C17 UNL     1      20.013  22.465   0.219  1.00  0.00     0.494 C 
HETATM   34  N13 UNL     1      20.309  21.624   1.383  1.00  0.00    -0.032 N 
HETATM   35  N14 UNL     1      20.122  21.620  -0.968  1.00  0.00    -0.032 N 
ATOM     36 3H13 UNL     1      21.309  21.434   1.454  1.00  0.00     0.278 HD
ATOM     37 2H13 UNL     1      20.178  22.141   2.252  1.00  0.00     0.278 HD
ATOM     38 1H13 UNL     1      19.769  20.758   1.385  1.00  0.00     0.278 HD
ATOM     39 3H14 UNL     1      19.891  22.166  -1.799  1.00  0.00     0.278 HD
ATOM     40 2H14 UNL     1      21.104  21.411  -1.150  1.00  0.00     0.278 HD
ATOM     41 1H14 UNL     1      19.582  20.755  -0.965  1.00  0.00     0.278 HD
ATOM     42  H12 UNL     1      20.008  24.333   0.273  1.00  0.00     0.181 HD
ENDBRANCH   7  32
BRANCH   6  43
HETATM   43  C8  UNL     1      22.084  24.955  -2.198  1.00  0.00     0.206 C 
BRANCH  43  44
HETATM   44  C9  UNL     1      21.334  26.225  -2.596  1.00  0.00     0.171 C 
BRANCH  44  45
HETATM   45  O3  UNL     1      21.356  27.145  -1.521  1.00  0.00    -0.389 OA
ATOM     46  H3  UNL     1      21.433  28.029  -1.861  1.00  0.00     0.210 HD
ENDBRANCH  44  45
BRANCH  44  47
HETATM   47  C10 UNL     1      19.944  25.862  -2.928  1.00  0.00    -0.022 A 
HETATM   48  C11 UNL     1      19.058  25.585  -1.898  1.00  0.00     0.049 A 
HETATM   49  C12 UNL     1      17.760  25.246  -2.207  1.00  0.00     0.102 A 
HETATM   50  C13 UNL     1      17.287  25.166  -3.503  1.00  0.00     0.132 A 
HETATM   51  C14 UNL     1      18.179  25.445  -4.509  1.00  0.00     0.102 A 
HETATM   52  C15 UNL     1      19.489  25.788  -4.237  1.00  0.00     0.049 A 
BRANCH  49  53
HETATM   53  O4  UNL     1      16.855  24.963  -1.171  1.00  0.00    -0.358 OA
ATOM     54  H4  UNL     1      16.080  25.502  -1.067  1.00  0.00     0.217 HD
ENDBRANCH  49  53
BRANCH  50  55
HETATM   55  O5  UNL     1      15.957  24.817  -3.761  1.00  0.00    -0.356 OA
ATOM     56  H5  UNL     1      15.399  24.479  -3.070  1.00  0.00     0.218 HD
ENDBRANCH  50  55
BRANCH  51  57
HETATM   57  O6  UNL     1      17.718  25.368  -5.828  1.00  0.00    -0.358 OA
ATOM     58  H6  UNL     1      17.520  24.508  -6.178  1.00  0.00     0.217 HD
ENDBRANCH  51  57
ENDBRANCH  44  47
ENDBRANCH  43  44
ENDBRANCH   6  43
TORSDOF 14
ENDMDL
