MODEL 1
REMARK VINA RESULT: -5.501686543      0.000      0.000
REMARK  3 active torsions:
REMARK  status: ('A' for Active; 'I' for Inactive)
REMARK    1  A    between atoms: C2_2  and  C3_3 
REMARK    2  A    between atoms: C2_2  and  C4_5 
REMARK       I    between atoms: C4_5  and  N1_7 
REMARK    3  A    between atoms: N2_9  and  C5_11 
ROOT
HETATM    1  C4  UNL     1     102.883  98.912  80.703  1.00  0.00     0.240 C 
HETATM    2  O1  UNL     1     103.514  97.837  80.840  1.00  0.00    -0.271 OA
HETATM    3  N1  UNL     1     101.542  98.885  80.298  1.00  0.00    -0.272 N 
ATOM      4  H1  UNL     1     100.952  99.684  80.527  1.00  0.00     0.189 HD
HETATM    5  N2  UNL     1     101.018  97.906  79.653  1.00  0.00    -0.303 N 
ATOM      6  H2  UNL     1     101.578  97.090  79.405  1.00  0.00     0.182 HD
ENDROOT
BRANCH   5   7
HETATM    7  C5  UNL     1      99.624  97.980  79.282  1.00  0.00     0.298 C 
HETATM    8  C6  UNL     1      98.694  97.694  80.427  1.00  0.00     0.057 C 
HETATM    9  C7  UNL     1      97.777  96.622  79.897  1.00  0.00     0.031 C 
HETATM   10  C8  UNL     1      97.880  96.873  78.393  1.00  0.00     0.235 C 
HETATM   11  N3  UNL     1      99.337  96.957  78.264  1.00  0.00    -0.053 N 
ATOM     12  H32 UNL     1      99.690  97.152  77.327  1.00  0.00     0.279 HD
ATOM     13  H31 UNL     1      99.843  96.077  78.361  1.00  0.00     0.279 HD
ENDBRANCH   5   7
BRANCH   1  14
HETATM   14  C2  UNL     1     103.567 100.193  80.970  1.00  0.00     0.085 C 
HETATM   15  C1  UNL     1     105.062  99.959  81.187  1.00  0.00     0.020 C 
BRANCH  14  16
HETATM   16  C3  UNL     1     103.415 101.110  79.757  1.00  0.00     0.099 C 
HETATM   17  S1  UNL     1     104.992 101.960  79.460  1.00  0.00    -0.097 SA
ENDBRANCH  14  16
ENDBRANCH   1  14
TORSDOF 3
ENDMDL
MODEL 2
REMARK VINA RESULT: -5.386141848      5.120      6.992
REMARK  3 active torsions:
REMARK  status: ('A' for Active; 'I' for Inactive)
REMARK    1  A    between atoms: C2_2  and  C3_3 
REMARK    2  A    between atoms: C2_2  and  C4_5 
REMARK       I    between atoms: C4_5  and  N1_7 
REMARK    3  A    between atoms: N2_9  and  C5_11 
ROOT
HETATM    1  C4  UNL     1     101.439 103.534  76.401  1.00  0.00     0.240 C 
HETATM    2  O1  UNL     1     100.678 102.827  75.700  1.00  0.00    -0.271 OA
HETATM    3  N1  UNL     1     102.475 102.933  77.129  1.00  0.00    -0.272 N 
ATOM      4  H1  UNL     1     103.276 103.505  77.392  1.00  0.00     0.189 HD
HETATM    5  N2  UNL     1     102.465 101.698  77.481  1.00  0.00    -0.303 N 
ATOM      6  H2  UNL     1     101.680 101.095  77.236  1.00  0.00     0.182 HD
ENDROOT
BRANCH   5   7
HETATM    7  C5  UNL     1     103.585 101.177  78.230  1.00  0.00     0.298 C 
HETATM    8  C6  UNL     1     103.171 100.422  79.461  1.00  0.00     0.057 C 
HETATM    9  C7  UNL     1     103.972 101.056  80.569  1.00  0.00     0.031 C 
HETATM   10  C8  UNL     1     105.150 101.627  79.781  1.00  0.00     0.235 C 
HETATM   11  N3  UNL     1     104.417 102.295  78.704  1.00  0.00    -0.053 N 
ATOM     12  H32 UNL     1     104.988 102.754  77.995  1.00  0.00     0.279 HD
ATOM     13  H31 UNL     1     103.914 103.143  78.967  1.00  0.00     0.279 HD
ENDBRANCH   5   7
BRANCH   1  14
HETATM   14  C2  UNL     1     101.230 104.995  76.450  1.00  0.00     0.085 C 
HETATM   15  C1  UNL     1     101.626 105.631  75.118  1.00  0.00     0.020 C 
BRANCH  14  16
HETATM   16  C3  UNL     1      99.748 105.286  76.678  1.00  0.00     0.099 C 
HETATM   17  S1  UNL     1      99.026 105.910  75.132  1.00  0.00    -0.097 SA
ENDBRANCH  14  16
ENDBRANCH   1  14
TORSDOF 3
ENDMDL
MODEL 3
REMARK VINA RESULT: -5.326600086      0.957      1.337
REMARK  3 active torsions:
REMARK  status: ('A' for Active; 'I' for Inactive)
REMARK    1  A    between atoms: C2_2  and  C3_3 
REMARK    2  A    between atoms: C2_2  and  C4_5 
REMARK       I    between atoms: C4_5  and  N1_7 
REMARK    3  A    between atoms: N2_9  and  C5_11 
ROOT
HETATM    1  C4  UNL     1     103.022  98.813  80.328  1.00  0.00     0.240 C 
HETATM    2  O1  UNL     1     103.459  97.816  80.948  1.00  0.00    -0.271 OA
HETATM    3  N1  UNL     1     101.681  98.849  79.922  1.00  0.00    -0.272 N 
ATOM      4  H1  UNL     1     101.251  99.758  79.753  1.00  0.00     0.189 HD
HETATM    5  N2  UNL     1     100.967  97.795  79.752  1.00  0.00    -0.303 N 
ATOM      6  H2  UNL     1     101.363  96.869  79.911  1.00  0.00     0.182 HD
ENDROOT
BRANCH   5   7
HETATM    7  C5  UNL     1      99.593  97.944  79.331  1.00  0.00     0.298 C 
HETATM    8  C6  UNL     1      98.607  97.681  80.433  1.00  0.00     0.057 C 
HETATM    9  C7  UNL     1      97.661  96.666  79.846  1.00  0.00     0.031 C 
HETATM   10  C8  UNL     1      97.834  96.940  78.353  1.00  0.00     0.235 C 
HETATM   11  N3  UNL     1      99.297  96.956  78.281  1.00  0.00    -0.053 N 
ATOM     12  H32 UNL     1      99.695  97.151  77.362  1.00  0.00     0.279 HD
ATOM     13  H31 UNL     1      99.756  96.051  78.378  1.00  0.00     0.279 HD
ENDBRANCH   5   7
BRANCH   1  14
HETATM   14  C2  UNL     1     103.931  99.938  80.033  1.00  0.00     0.085 C 
HETATM   15  C1  UNL     1     103.174 101.059  79.321  1.00  0.00     0.020 C 
BRANCH  14  16
HETATM   16  C3  UNL     1     104.472 100.508  81.344  1.00  0.00     0.099 C 
HETATM   17  S1  UNL     1     106.214 100.024  81.521  1.00  0.00    -0.097 SA
ENDBRANCH  14  16
ENDBRANCH   1  14
TORSDOF 3
ENDMDL
MODEL 4
REMARK VINA RESULT: -5.294032933      2.249      2.679
REMARK  3 active torsions:
REMARK  status: ('A' for Active; 'I' for Inactive)
REMARK    1  A    between atoms: C2_2  and  C3_3 
REMARK    2  A    between atoms: C2_2  and  C4_5 
REMARK       I    between atoms: C4_5  and  N1_7 
REMARK    3  A    between atoms: N2_9  and  C5_11 
ROOT
HETATM    1  C4  UNL     1     101.752  99.212  79.465  1.00  0.00     0.240 C 
HETATM    2  O1  UNL     1     101.444  99.176  78.251  1.00  0.00    -0.271 OA
HETATM    3  N1  UNL     1     101.290  98.213  80.332  1.00  0.00    -0.272 N 
ATOM      4  H1  UNL     1     101.808  98.043  81.193  1.00  0.00     0.189 HD
HETATM    5  N2  UNL     1     100.247  97.501  80.097  1.00  0.00    -0.303 N 
ATOM      6  H2  UNL     1      99.704  97.643  79.245  1.00  0.00     0.182 HD
ENDROOT
BRANCH   5   7
HETATM    7  C5  UNL     1      99.857  96.496  81.057  1.00  0.00     0.298 C 
HETATM    8  C6  UNL     1      99.632  97.051  82.435  1.00  0.00     0.057 C 
HETATM    9  C7  UNL     1     100.483  96.183  83.325  1.00  0.00     0.031 C 
HETATM   10  C8  UNL     1     100.578  94.912  82.482  1.00  0.00     0.235 C 
HETATM   11  N3  UNL     1     100.938  95.506  81.193  1.00  0.00    -0.053 N 
ATOM     12  H32 UNL     1     101.043  94.854  80.416  1.00  0.00     0.279 HD
ATOM     13  H31 UNL     1     101.887  95.872  81.122  1.00  0.00     0.279 HD
ENDBRANCH   5   7
BRANCH   1  14
HETATM   14  C2  UNL     1     102.599 100.314  79.965  1.00  0.00     0.085 C 
HETATM   15  C1  UNL     1     103.671  99.771  80.909  1.00  0.00     0.020 C 
BRANCH  14  16
HETATM   16  C3  UNL     1     103.313 100.976  78.787  1.00  0.00     0.099 C 
HETATM   17  S1  UNL     1     104.760 101.881  79.409  1.00  0.00    -0.097 SA
ENDBRANCH  14  16
ENDBRANCH   1  14
TORSDOF 3
ENDMDL
MODEL 5
REMARK VINA RESULT: -5.281635479      5.835      6.983
REMARK  3 active torsions:
REMARK  status: ('A' for Active; 'I' for Inactive)
REMARK    1  A    between atoms: C2_2  and  C3_3 
REMARK    2  A    between atoms: C2_2  and  C4_5 
REMARK       I    between atoms: C4_5  and  N1_7 
REMARK    3  A    between atoms: N2_9  and  C5_11 
ROOT
HETATM    1  C4  UNL     1      99.521  93.971  82.858  1.00  0.00     0.240 C 
HETATM    2  O1  UNL     1     100.204  93.267  83.638  1.00  0.00    -0.271 OA
HETATM    3  N1  UNL     1      98.137  94.078  83.047  1.00  0.00    -0.272 N 
ATOM      4  H1  UNL     1      97.658  94.892  82.664  1.00  0.00     0.189 HD
HETATM    5  N2  UNL     1      97.441  93.202  83.678  1.00  0.00    -0.303 N 
ATOM      6  H2  UNL     1      97.885  92.374  84.075  1.00  0.00     0.182 HD
ENDROOT
BRANCH   5   7
HETATM    7  C5  UNL     1      96.018  93.409  83.817  1.00  0.00     0.298 C 
HETATM    8  C6  UNL     1      95.375  92.455  84.783  1.00  0.00     0.057 C 
HETATM    9  C7  UNL     1      94.231  91.858  84.005  1.00  0.00     0.031 C 
HETATM   10  C8  UNL     1      93.986  92.953  82.968  1.00  0.00     0.235 C 
HETATM   11  N3  UNL     1      95.363  93.172  82.520  1.00  0.00    -0.053 N 
ATOM     12  H32 UNL     1      95.492  93.899  81.818  1.00  0.00     0.279 HD
ATOM     13  H31 UNL     1      95.767  92.431  81.946  1.00  0.00     0.279 HD
ENDBRANCH   5   7
BRANCH   1  14
HETATM   14  C2  UNL     1     100.189  94.678  81.747  1.00  0.00     0.085 C 
HETATM   15  C1  UNL     1      99.193  95.577  81.016  1.00  0.00     0.020 C 
BRANCH  14  16
HETATM   16  C3  UNL     1     101.292  95.574  82.310  1.00  0.00     0.099 C 
HETATM   17  S1  UNL     1     100.528  96.961  83.198  1.00  0.00    -0.097 SA
ENDBRANCH  14  16
ENDBRANCH   1  14
TORSDOF 3
ENDMDL
