MODEL 1
REMARK VINA RESULT: -5.966414491      0.000      0.000
REMARK  5 active torsions:
REMARK  status: ('A' for Active; 'I' for Inactive)
REMARK    1  A    between atoms: C2_2  and  C3_3 
REMARK    2  A    between atoms: C2_2  and  C4_6 
REMARK    3  A    between atoms: C2_2  and  C6_9 
REMARK    4  A    between atoms: C3_3  and  O1_4 
REMARK    5  A    between atoms: N2_15  and  O2_17 
ROOT
HETATM    1  C4  UNL     1      98.936  95.923  82.177  1.00  0.00     0.136 C 
HETATM    2  C5  UNL     1      98.886  94.801  83.052  1.00  0.00     0.060 C 
HETATM    3  N1  UNL     1      98.824  93.898  83.756  1.00  0.00    -0.197 NA
ENDROOT
BRANCH   1   4
HETATM    4  C2  UNL     1     100.148  96.715  82.059  1.00  0.00    -0.002 C 
HETATM    5  C1  UNL     1     100.482  97.170  83.500  1.00  0.00     0.019 C 
BRANCH   4   6
HETATM    6  C3  UNL     1     101.332  95.824  81.657  1.00  0.00     0.175 C 
BRANCH   6   7
HETATM    7  O1  UNL     1     102.281  95.775  82.675  1.00  0.00    -0.400 OA
ATOM      8  H1  UNL     1     103.135  96.036  82.351  1.00  0.00     0.209 HD
ENDBRANCH   6   7
ENDBRANCH   4   6
BRANCH   4   9
HETATM    9  C6  UNL     1     100.218  97.933  81.249  1.00  0.00     0.044 C 
HETATM   10  C7  UNL     1     101.510  98.709  81.256  1.00  0.00     0.011 C 
HETATM   11  C8  UNL     1     102.098  98.644  79.857  1.00  0.00     0.001 C 
HETATM   12  C9  UNL     1     101.230  99.454  78.922  1.00  0.00     0.006 C 
HETATM   13  C10 UNL     1      99.755  99.112  79.074  1.00  0.00     0.055 C 
HETATM   14  C11 UNL     1      99.733  97.808  79.834  1.00  0.00     0.015 C 
HETATM   15  N2  UNL     1      99.339  96.763  79.261  1.00  0.00    -0.277 N 
ATOM     16  H2  UNL     1      99.331  95.883  79.775  1.00  0.00     0.193 HD
BRANCH  15  17
HETATM   17  O2  UNL     1      98.924  96.784  77.972  1.00  0.00    -0.290 OA
ATOM     18  H2  UNL     1      98.364  96.101  77.625  1.00  0.00     0.244 HD
ENDBRANCH  15  17
ENDBRANCH   4   9
ENDBRANCH   1   4
TORSDOF 5
ENDMDL
MODEL 2
REMARK VINA RESULT: -5.958268095      3.269      4.653
REMARK  5 active torsions:
REMARK  status: ('A' for Active; 'I' for Inactive)
REMARK    1  A    between atoms: C2_2  and  C3_3 
REMARK    2  A    between atoms: C2_2  and  C4_6 
REMARK    3  A    between atoms: C2_2  and  C6_9 
REMARK    4  A    between atoms: C3_3  and  O1_4 
REMARK    5  A    between atoms: N2_15  and  O2_17 
ROOT
HETATM    1  C4  UNL     1     101.235  98.672  79.117  1.00  0.00     0.136 C 
HETATM    2  C5  UNL     1      99.874  99.088  79.113  1.00  0.00     0.060 C 
HETATM    3  N1  UNL     1      98.775  99.417  79.090  1.00  0.00    -0.197 NA
ENDROOT
BRANCH   1   4
HETATM    4  C2  UNL     1     102.134  99.090  80.179  1.00  0.00    -0.002 C 
HETATM    5  C1  UNL     1     101.284  99.056  81.471  1.00  0.00     0.019 C 
BRANCH   4   6
HETATM    6  C3  UNL     1     103.220  98.029  80.409  1.00  0.00     0.175 C 
BRANCH   6   7
HETATM    7  O1  UNL     1     102.768  96.769  80.026  1.00  0.00    -0.400 OA
ATOM      8  H1  UNL     1     103.234  96.087  80.496  1.00  0.00     0.209 HD
ENDBRANCH   6   7
ENDBRANCH   4   6
BRANCH   4   9
HETATM    9  C6  UNL     1     102.788 100.400  80.188  1.00  0.00     0.044 C 
HETATM   10  C7  UNL     1     104.011 100.569  81.052  1.00  0.00     0.011 C 
HETATM   11  C8  UNL     1     105.196 100.820  80.135  1.00  0.00     0.001 C 
HETATM   12  C9  UNL     1     105.046 102.184  79.502  1.00  0.00     0.006 C 
HETATM   13  C10 UNL     1     103.657 102.391  78.916  1.00  0.00     0.055 C 
HETATM   14  C11 UNL     1     103.055 101.009  78.842  1.00  0.00     0.015 C 
HETATM   15  N2  UNL     1     102.836 100.488  77.721  1.00  0.00    -0.277 N 
ATOM     16  H2  UNL     1     102.435  99.552  77.674  1.00  0.00     0.193 HD
BRANCH  15  17
HETATM   17  O2  UNL     1     103.123 101.147  76.574  1.00  0.00    -0.290 OA
ATOM     18  H2  UNL     1     102.488 101.208  75.870  1.00  0.00     0.244 HD
ENDBRANCH  15  17
ENDBRANCH   4   9
ENDBRANCH   1   4
TORSDOF 5
ENDMDL
MODEL 3
REMARK VINA RESULT: -5.950701834      1.632      2.238
REMARK  5 active torsions:
REMARK  status: ('A' for Active; 'I' for Inactive)
REMARK    1  A    between atoms: C2_2  and  C3_3 
REMARK    2  A    between atoms: C2_2  and  C4_6 
REMARK    3  A    between atoms: C2_2  and  C6_9 
REMARK    4  A    between atoms: C3_3  and  O1_4 
REMARK    5  A    between atoms: N2_15  and  O2_17 
ROOT
HETATM    1  C4  UNL     1     100.712  95.167  81.864  1.00  0.00     0.136 C 
HETATM    2  C5  UNL     1     100.393  94.213  82.871  1.00  0.00     0.060 C 
HETATM    3  N1  UNL     1     100.139  93.428  83.668  1.00  0.00    -0.197 NA
ENDROOT
BRANCH   1   4
HETATM    4  C2  UNL     1     100.342  96.563  82.024  1.00  0.00    -0.002 C 
HETATM    5  C1  UNL     1     100.534  96.868  83.529  1.00  0.00     0.019 C 
BRANCH   4   6
HETATM    6  C3  UNL     1     101.361  97.470  81.319  1.00  0.00     0.175 C 
BRANCH   6   7
HETATM    7  O1  UNL     1     102.219  96.720  80.518  1.00  0.00    -0.400 OA
ATOM      8  H1  UNL     1     103.111  97.038  80.592  1.00  0.00     0.209 HD
ENDBRANCH   6   7
ENDBRANCH   4   6
BRANCH   4   9
HETATM    9  C6  UNL     1      99.006  97.067  81.701  1.00  0.00     0.044 C 
HETATM   10  C7  UNL     1      98.584  98.381  82.306  1.00  0.00     0.011 C 
HETATM   11  C8  UNL     1      98.415  99.380  81.175  1.00  0.00     0.001 C 
HETATM   12  C9  UNL     1      97.207  98.991  80.353  1.00  0.00     0.006 C 
HETATM   13  C10 UNL     1      97.222  97.515  79.982  1.00  0.00     0.055 C 
HETATM   14  C11 UNL     1      98.637  97.061  80.246  1.00  0.00     0.015 C 
HETATM   15  N2  UNL     1      99.373  96.733  79.282  1.00  0.00    -0.277 N 
ATOM     16  H2  UNL     1     100.330  96.432  79.463  1.00  0.00     0.193 HD
BRANCH  15  17
HETATM   17  O2  UNL     1      98.917  96.771  78.008  1.00  0.00    -0.290 OA
ATOM     18  H2  UNL     1      98.907  97.582  77.514  1.00  0.00     0.244 HD
ENDBRANCH  15  17
ENDBRANCH   4   9
ENDBRANCH   1   4
TORSDOF 5
ENDMDL
MODEL 4
REMARK VINA RESULT: -5.759973542      2.350      4.059
REMARK  5 active torsions:
REMARK  status: ('A' for Active; 'I' for Inactive)
REMARK    1  A    between atoms: C2_2  and  C3_3 
REMARK    2  A    between atoms: C2_2  and  C4_6 
REMARK    3  A    between atoms: C2_2  and  C6_9 
REMARK    4  A    between atoms: C3_3  and  O1_4 
REMARK    5  A    between atoms: N2_15  and  O2_17 
ROOT
HETATM    1  C4  UNL     1      98.757  98.540  81.076  1.00  0.00     0.136 C 
HETATM    2  C5  UNL     1      97.337  98.532  81.168  1.00  0.00     0.060 C 
HETATM    3  N1  UNL     1      96.194  98.524  81.264  1.00  0.00    -0.197 NA
ENDROOT
BRANCH   1   4
HETATM    4  C2  UNL     1      99.416  98.339  79.797  1.00  0.00    -0.002 C 
HETATM    5  C1  UNL     1      98.881  96.987  79.268  1.00  0.00     0.019 C 
BRANCH   4   6
HETATM    6  C3  UNL     1      98.922  99.371  78.773  1.00  0.00     0.175 C 
BRANCH   6   7
HETATM    7  O1  UNL     1      98.136  98.761  77.798  1.00  0.00    -0.400 OA
ATOM      8  H1  UNL     1      97.213  98.843  78.010  1.00  0.00     0.209 HD
ENDBRANCH   6   7
ENDBRANCH   4   6
BRANCH   4   9
HETATM    9  C6  UNL     1     100.871  98.250  79.665  1.00  0.00     0.044 C 
HETATM   10  C7  UNL     1     101.630  99.518  79.370  1.00  0.00     0.011 C 
HETATM   11  C8  UNL     1     102.510  99.823  80.569  1.00  0.00     0.001 C 
HETATM   12  C9  UNL     1     103.610  98.789  80.647  1.00  0.00     0.006 C 
HETATM   13  C10 UNL     1     103.070  97.372  80.522  1.00  0.00     0.055 C 
HETATM   14  C11 UNL     1     101.583  97.500  80.752  1.00  0.00     0.015 C 
HETATM   15  N2  UNL     1     101.072  97.002  81.785  1.00  0.00    -0.277 N 
ATOM     16  H2  UNL     1     100.069  97.094  81.941  1.00  0.00     0.193 HD
BRANCH  15  17
HETATM   17  O2  UNL     1     101.829  96.344  82.695  1.00  0.00    -0.290 OA
ATOM     18  H2  UNL     1     102.744  96.155  82.528  1.00  0.00     0.244 HD
ENDBRANCH  15  17
ENDBRANCH   4   9
ENDBRANCH   1   4
TORSDOF 5
ENDMDL
MODEL 5
REMARK VINA RESULT: -5.710064504      2.371      4.429
REMARK  5 active torsions:
REMARK  status: ('A' for Active; 'I' for Inactive)
REMARK    1  A    between atoms: C2_2  and  C3_3 
REMARK    2  A    between atoms: C2_2  and  C4_6 
REMARK    3  A    between atoms: C2_2  and  C6_9 
REMARK    4  A    between atoms: C3_3  and  O1_4 
REMARK    5  A    between atoms: N2_15  and  O2_17 
ROOT
HETATM    1  C4  UNL     1     102.795  98.169  80.007  1.00  0.00     0.136 C 
HETATM    2  C5  UNL     1     103.978  98.404  80.763  1.00  0.00     0.060 C 
HETATM    3  N1  UNL     1     104.937  98.574  81.370  1.00  0.00    -0.197 NA
ENDROOT
BRANCH   1   4
HETATM    4  C2  UNL     1     101.669  99.083  80.091  1.00  0.00    -0.002 C 
HETATM    5  C1  UNL     1     102.292 100.478  80.338  1.00  0.00     0.019 C 
BRANCH   4   6
HETATM    6  C3  UNL     1     100.982  99.210  78.724  1.00  0.00     0.175 C 
BRANCH   6   7
HETATM    7  O1  UNL     1     100.882  97.967  78.103  1.00  0.00    -0.400 OA
ATOM      8  H1  UNL     1     101.625  97.817  77.530  1.00  0.00     0.209 HD
ENDBRANCH   6   7
ENDBRANCH   4   6
BRANCH   4   9
HETATM    9  C6  UNL     1     100.619  98.950  81.101  1.00  0.00     0.044 C 
HETATM   10  C7  UNL     1      99.462  99.913  81.045  1.00  0.00     0.011 C 
HETATM   11  C8  UNL     1      98.210  99.117  80.722  1.00  0.00     0.001 C 
HETATM   12  C9  UNL     1      97.860  98.249  81.910  1.00  0.00     0.006 C 
HETATM   13  C10 UNL     1      99.065  97.474  82.423  1.00  0.00     0.055 C 
HETATM   14  C11 UNL     1     100.087  97.563  81.315  1.00  0.00     0.015 C 
HETATM   15  N2  UNL     1     100.400  96.528  80.678  1.00  0.00    -0.277 N 
ATOM     16  H2  UNL     1     101.086  96.591  79.926  1.00  0.00     0.193 HD
BRANCH  15  17
HETATM   17  O2  UNL     1      99.844  95.328  80.971  1.00  0.00    -0.290 OA
ATOM     18  H2  UNL     1     100.183  94.525  80.596  1.00  0.00     0.244 HD
ENDBRANCH  15  17
ENDBRANCH   4   9
ENDBRANCH   1   4
TORSDOF 5
ENDMDL
