MODEL 1
REMARK VINA RESULT: -7.535481242      0.000      0.000
REMARK  15 active torsions:
REMARK  status: ('A' for Active; 'I' for Inactive)
REMARK    1  A    between atoms: C2_2  and  O2_4 
REMARK    2  A    between atoms: O2_4  and  C3_5 
REMARK    3  A    between atoms: C3_5  and  C4_6 
REMARK    4  A    between atoms: C4_6  and  C21_30 
REMARK    5  A    between atoms: C5_7  and  C6_8 
REMARK    6  A    between atoms: C6_8  and  C7_9 
REMARK    7  A    between atoms: C6_8  and  C8_11 
REMARK    8  A    between atoms: C8_11  and  O4_12 
REMARK    9  A    between atoms: C8_11  and  C9_14 
REMARK   10  A    between atoms: C10_15  and  C11_16 
REMARK   11  A    between atoms: C13_18  and  O5_19 
REMARK   12  A    between atoms: C14_21  and  O6_22 
REMARK   13  A    between atoms: C15_24  and  C16_25 
REMARK   14  A    between atoms: C21_30  and  C22_31 
REMARK   15  A    between atoms: C22_31  and  C23_32 
ROOT
HETATM    1  C8  UNL     1      21.826  32.325  11.910  1.00  0.00     0.155 C 
ENDROOT
BRANCH   1   2
HETATM    2  C6  UNL     1      22.024  33.825  11.684  1.00  0.00     0.102 C 
BRANCH   2   3
HETATM    3  C5  UNL     1      22.907  34.323  12.749  1.00  0.00    -0.007 C 
HETATM    4  C4  UNL     1      24.206  34.497  12.707  1.00  0.00    -0.059 C 
BRANCH   4   5
HETATM    5  C3  UNL     1      24.928  35.013  13.894  1.00  0.00     0.212 C 
BRANCH   5   6
HETATM    6  O2  UNL     1      24.585  36.353  14.184  1.00  0.00    -0.317 OA
BRANCH   6   7
HETATM    7  C2  UNL     1      25.529  37.268  14.604  1.00  0.00     0.255 C 
HETATM    8  C1  UNL     1      25.928  37.395  16.040  1.00  0.00     0.126 C 
HETATM    9  O1  UNL     1      26.064  38.009  13.758  1.00  0.00    -0.266 OA
ENDBRANCH   6   7
ENDBRANCH   5   6
ENDBRANCH   4   5
BRANCH   4  10
HETATM   10  C21 UNL     1      24.990  34.192  11.500  1.00  0.00     0.040 C 
BRANCH  10  11
HETATM   11  C22 UNL     1      26.076  33.200  11.893  1.00  0.00     0.031 C 
BRANCH  11  12
HETATM   12  C23 UNL     1      25.584  31.819  11.651  1.00  0.00    -0.024 C 
HETATM   13  C24 UNL     1      25.609  30.931  12.612  1.00  0.00    -0.091 C 
HETATM   14  C25 UNL     1      25.115  29.558  12.356  1.00  0.00     0.042 C 
HETATM   15  C26 UNL     1      26.128  31.290  13.950  1.00  0.00     0.042 C 
ENDBRANCH  11  12
ENDBRANCH  10  11
ENDBRANCH   4  10
ENDBRANCH   2   3
BRANCH   2  16
HETATM   16  C7  UNL     1      20.654  34.428  11.867  1.00  0.00     0.242 C 
HETATM   17  O3  UNL     1      20.529  35.387  12.580  1.00  0.00    -0.306 OA
ENDBRANCH   2  16
ENDBRANCH   1   2
BRANCH   1  18
HETATM   18  O4  UNL     1      20.597  31.886  11.471  1.00  0.00    -0.391 OA
ATOM     19  H4  UNL     1      20.067  31.533  12.175  1.00  0.00     0.210 HD
ENDBRANCH   1  18
BRANCH   1  20
HETATM   20  C9  UNL     1      21.943  32.031  13.376  1.00  0.00     0.006 C 
HETATM   21  C10 UNL     1      21.955  30.806  13.766  1.00  0.00     0.010 C 
BRANCH  21  22
HETATM   22  C11 UNL     1      22.064  30.416  15.157  1.00  0.00    -0.033 A 
HETATM   23  C12 UNL     1      21.084  30.699  16.069  1.00  0.00     0.051 A 
HETATM   24  C13 UNL     1      21.244  30.301  17.381  1.00  0.00     0.100 A 
HETATM   25  C14 UNL     1      22.374  29.631  17.762  1.00  0.00     0.105 A 
HETATM   26  C15 UNL     1      23.394  29.318  16.890  1.00  0.00    -0.014 A 
HETATM   27  C20 UNL     1      23.209  29.726  15.591  1.00  0.00     0.022 A 
BRANCH  24  28
HETATM   28  O5  UNL     1      20.253  30.580  18.327  1.00  0.00    -0.358 OA
ATOM     29  H5  UNL     1      20.438  31.164  19.053  1.00  0.00     0.217 HD
ENDBRANCH  24  28
BRANCH  25  30
HETATM   30  O6  UNL     1      22.491  29.253  19.086  1.00  0.00    -0.357 OA
ATOM     31  H6  UNL     1      23.069  28.528  19.294  1.00  0.00     0.217 HD
ENDBRANCH  25  30
BRANCH  26  32
HETATM   32  C16 UNL     1      24.603  28.601  17.305  1.00  0.00    -0.021 C 
HETATM   33  C17 UNL     1      24.312  27.292  17.997  1.00  0.00     0.019 C 
HETATM   34  C18 UNL     1      25.486  29.497  18.146  1.00  0.00     0.019 C 
HETATM   35  C19 UNL     1      25.431  28.244  16.064  1.00  0.00     0.019 C 
ENDBRANCH  26  32
ENDBRANCH  21  22
ENDBRANCH   1  20
TORSDOF 15
ENDMDL
MODEL 2
REMARK VINA RESULT: -7.080462712      1.959      3.458
REMARK  15 active torsions:
REMARK  status: ('A' for Active; 'I' for Inactive)
REMARK    1  A    between atoms: C2_2  and  O2_4 
REMARK    2  A    between atoms: O2_4  and  C3_5 
REMARK    3  A    between atoms: C3_5  and  C4_6 
REMARK    4  A    between atoms: C4_6  and  C21_30 
REMARK    5  A    between atoms: C5_7  and  C6_8 
REMARK    6  A    between atoms: C6_8  and  C7_9 
REMARK    7  A    between atoms: C6_8  and  C8_11 
REMARK    8  A    between atoms: C8_11  and  O4_12 
REMARK    9  A    between atoms: C8_11  and  C9_14 
REMARK   10  A    between atoms: C10_15  and  C11_16 
REMARK   11  A    between atoms: C13_18  and  O5_19 
REMARK   12  A    between atoms: C14_21  and  O6_22 
REMARK   13  A    between atoms: C15_24  and  C16_25 
REMARK   14  A    between atoms: C21_30  and  C22_31 
REMARK   15  A    between atoms: C22_31  and  C23_32 
ROOT
HETATM    1  C8  UNL     1      21.859  32.117  11.778  1.00  0.00     0.155 C 
ENDROOT
BRANCH   1   2
HETATM    2  C6  UNL     1      22.094  33.612  11.559  1.00  0.00     0.102 C 
BRANCH   2   3
HETATM    3  C5  UNL     1      23.399  33.949  12.147  1.00  0.00    -0.007 C 
HETATM    4  C4  UNL     1      24.228  34.897  11.785  1.00  0.00    -0.059 C 
BRANCH   4   5
HETATM    5  C3  UNL     1      25.510  35.083  12.507  1.00  0.00     0.212 C 
BRANCH   5   6
HETATM    6  O2  UNL     1      25.316  35.271  13.894  1.00  0.00    -0.317 OA
BRANCH   6   7
HETATM    7  C2  UNL     1      25.436  36.515  14.480  1.00  0.00     0.255 C 
HETATM    8  C1  UNL     1      25.977  37.694  13.735  1.00  0.00     0.126 C 
HETATM    9  O1  UNL     1      25.081  36.657  15.665  1.00  0.00    -0.266 OA
ENDBRANCH   6   7
ENDBRANCH   5   6
ENDBRANCH   4   5
BRANCH   4  10
HETATM   10  C21 UNL     1      23.929  35.803  10.665  1.00  0.00     0.040 C 
BRANCH  10  11
HETATM   11  C22 UNL     1      23.370  37.092  11.251  1.00  0.00     0.031 C 
BRANCH  11  12
HETATM   12  C23 UNL     1      22.111  37.442  10.543  1.00  0.00    -0.024 C 
HETATM   13  C24 UNL     1      21.997  38.590   9.926  1.00  0.00    -0.091 C 
HETATM   14  C25 UNL     1      20.736  38.925   9.225  1.00  0.00     0.042 C 
HETATM   15  C26 UNL     1      23.119  39.554   9.923  1.00  0.00     0.042 C 
ENDBRANCH  11  12
ENDBRANCH  10  11
ENDBRANCH   4  10
ENDBRANCH   2   3
BRANCH   2  16
HETATM   16  C7  UNL     1      21.010  34.295  12.355  1.00  0.00     0.242 C 
HETATM   17  O3  UNL     1      19.948  34.505  11.833  1.00  0.00    -0.306 OA
ENDBRANCH   2  16
ENDBRANCH   1   2
BRANCH   1  18
HETATM   18  O4  UNL     1      20.685  31.681  11.206  1.00  0.00    -0.391 OA
ATOM     19  H4  UNL     1      19.923  31.908  11.726  1.00  0.00     0.210 HD
ENDBRANCH   1  18
BRANCH   1  20
HETATM   20  C9  UNL     1      21.804  31.841  13.251  1.00  0.00     0.006 C 
HETATM   21  C10 UNL     1      22.208  30.701  13.686  1.00  0.00     0.010 C 
BRANCH  21  22
HETATM   22  C11 UNL     1      22.196  30.336  15.088  1.00  0.00    -0.033 A 
HETATM   23  C12 UNL     1      21.147  30.647  15.910  1.00  0.00     0.051 A 
HETATM   24  C13 UNL     1      21.194  30.271  17.238  1.00  0.00     0.100 A 
HETATM   25  C14 UNL     1      22.279  29.597  17.723  1.00  0.00     0.105 A 
HETATM   26  C15 UNL     1      23.364  29.256  16.945  1.00  0.00    -0.014 A 
HETATM   27  C20 UNL     1      23.293  29.642  15.628  1.00  0.00     0.022 A 
BRANCH  24  28
HETATM   28  O5  UNL     1      20.131  30.579  18.093  1.00  0.00    -0.358 OA
ATOM     29  H5  UNL     1      20.298  30.803  19.001  1.00  0.00     0.217 HD
ENDBRANCH  24  28
BRANCH  25  30
HETATM   30  O6  UNL     1      22.281  29.242  19.059  1.00  0.00    -0.357 OA
ATOM     31  H6  UNL     1      21.457  28.985  19.455  1.00  0.00     0.217 HD
ENDBRANCH  25  30
BRANCH  26  32
HETATM   32  C16 UNL     1      24.525  28.533  17.473  1.00  0.00    -0.021 C 
HETATM   33  C17 UNL     1      24.163  27.235  18.150  1.00  0.00     0.019 C 
HETATM   34  C18 UNL     1      25.340  29.432  18.377  1.00  0.00     0.019 C 
HETATM   35  C19 UNL     1      25.455  28.155  16.312  1.00  0.00     0.019 C 
ENDBRANCH  26  32
ENDBRANCH  21  22
ENDBRANCH   1  20
TORSDOF 15
ENDMDL
MODEL 3
REMARK VINA RESULT: -6.955570666      1.894      3.536
REMARK  15 active torsions:
REMARK  status: ('A' for Active; 'I' for Inactive)
REMARK    1  A    between atoms: C2_2  and  O2_4 
REMARK    2  A    between atoms: O2_4  and  C3_5 
REMARK    3  A    between atoms: C3_5  and  C4_6 
REMARK    4  A    between atoms: C4_6  and  C21_30 
REMARK    5  A    between atoms: C5_7  and  C6_8 
REMARK    6  A    between atoms: C6_8  and  C7_9 
REMARK    7  A    between atoms: C6_8  and  C8_11 
REMARK    8  A    between atoms: C8_11  and  O4_12 
REMARK    9  A    between atoms: C8_11  and  C9_14 
REMARK   10  A    between atoms: C10_15  and  C11_16 
REMARK   11  A    between atoms: C13_18  and  O5_19 
REMARK   12  A    between atoms: C14_21  and  O6_22 
REMARK   13  A    between atoms: C15_24  and  C16_25 
REMARK   14  A    between atoms: C21_30  and  C22_31 
REMARK   15  A    between atoms: C22_31  and  C23_32 
ROOT
HETATM    1  C8  UNL     1      21.290  31.883  11.898  1.00  0.00     0.155 C 
ENDROOT
BRANCH   1   2
HETATM    2  C6  UNL     1      22.093  33.148  11.590  1.00  0.00     0.102 C 
BRANCH   2   3
HETATM    3  C5  UNL     1      23.367  33.055  12.317  1.00  0.00    -0.007 C 
HETATM    4  C4  UNL     1      24.579  33.224  11.847  1.00  0.00    -0.059 C 
BRANCH   4   5
HETATM    5  C3  UNL     1      25.752  33.087  12.745  1.00  0.00     0.212 C 
BRANCH   5   6
HETATM    6  O2  UNL     1      25.836  31.798  13.317  1.00  0.00    -0.317 OA
BRANCH   6   7
HETATM    7  C2  UNL     1      26.129  30.685  12.555  1.00  0.00     0.255 C 
HETATM    8  C1  UNL     1      25.264  29.465  12.568  1.00  0.00     0.126 C 
HETATM    9  O1  UNL     1      27.145  30.701  11.836  1.00  0.00    -0.266 OA
ENDBRANCH   6   7
ENDBRANCH   5   6
ENDBRANCH   4   5
BRANCH   4  10
HETATM   10  C21 UNL     1      24.825  33.552  10.434  1.00  0.00     0.040 C 
BRANCH  10  11
HETATM   11  C22 UNL     1      25.304  34.996  10.372  1.00  0.00     0.031 C 
BRANCH  11  12
HETATM   12  C23 UNL     1      24.166  35.870   9.992  1.00  0.00    -0.024 C 
HETATM   13  C24 UNL     1      23.667  36.719  10.854  1.00  0.00    -0.091 C 
HETATM   14  C25 UNL     1      22.531  37.584  10.460  1.00  0.00     0.042 C 
HETATM   15  C26 UNL     1      24.229  36.818  12.218  1.00  0.00     0.042 C 
ENDBRANCH  11  12
ENDBRANCH  10  11
ENDBRANCH   4  10
ENDBRANCH   2   3
BRANCH   2  16
HETATM   16  C7  UNL     1      21.279  34.275  12.176  1.00  0.00     0.242 C 
HETATM   17  O3  UNL     1      20.317  34.673  11.575  1.00  0.00    -0.306 OA
ENDBRANCH   2  16
ENDBRANCH   1   2
BRANCH   1  18
HETATM   18  O4  UNL     1      19.974  31.988  11.506  1.00  0.00    -0.391 OA
ATOM     19  H4  UNL     1      19.484  31.191  11.667  1.00  0.00     0.210 HD
ENDBRANCH   1  18
BRANCH   1  20
HETATM   20  C9  UNL     1      21.330  31.625  13.374  1.00  0.00     0.006 C 
HETATM   21  C10 UNL     1      21.975  30.602  13.810  1.00  0.00     0.010 C 
BRANCH  21  22
HETATM   22  C11 UNL     1      22.074  30.265  15.216  1.00  0.00    -0.033 A 
HETATM   23  C12 UNL     1      21.089  30.587  16.110  1.00  0.00     0.051 A 
HETATM   24  C13 UNL     1      21.240  30.238  17.437  1.00  0.00     0.100 A 
HETATM   25  C14 UNL     1      22.364  29.579  17.850  1.00  0.00     0.105 A 
HETATM   26  C15 UNL     1      23.388  29.229  16.997  1.00  0.00    -0.014 A 
HETATM   27  C20 UNL     1      23.213  29.588  15.683  1.00  0.00     0.022 A 
BRANCH  24  28
HETATM   28  O5  UNL     1      20.244  30.558  18.366  1.00  0.00    -0.358 OA
ATOM     29  H5  UNL     1      20.361  31.293  18.956  1.00  0.00     0.217 HD
ENDBRANCH  24  28
BRANCH  25  30
HETATM   30  O6  UNL     1      22.472  29.251  19.189  1.00  0.00    -0.357 OA
ATOM     31  H6  UNL     1      22.017  28.476  19.497  1.00  0.00     0.217 HD
ENDBRANCH  25  30
BRANCH  26  32
HETATM   32  C16 UNL     1      24.591  28.522  17.448  1.00  0.00    -0.021 C 
HETATM   33  C17 UNL     1      24.294  27.210  18.129  1.00  0.00     0.019 C 
HETATM   34  C18 UNL     1      25.440  29.427  18.314  1.00  0.00     0.019 C 
HETATM   35  C19 UNL     1      25.459  28.175  16.231  1.00  0.00     0.019 C 
ENDBRANCH  26  32
ENDBRANCH  21  22
ENDBRANCH   1  20
TORSDOF 15
ENDMDL
MODEL 4
REMARK VINA RESULT: -6.881505533      1.556      2.797
REMARK  15 active torsions:
REMARK  status: ('A' for Active; 'I' for Inactive)
REMARK    1  A    between atoms: C2_2  and  O2_4 
REMARK    2  A    between atoms: O2_4  and  C3_5 
REMARK    3  A    between atoms: C3_5  and  C4_6 
REMARK    4  A    between atoms: C4_6  and  C21_30 
REMARK    5  A    between atoms: C5_7  and  C6_8 
REMARK    6  A    between atoms: C6_8  and  C7_9 
REMARK    7  A    between atoms: C6_8  and  C8_11 
REMARK    8  A    between atoms: C8_11  and  O4_12 
REMARK    9  A    between atoms: C8_11  and  C9_14 
REMARK   10  A    between atoms: C10_15  and  C11_16 
REMARK   11  A    between atoms: C13_18  and  O5_19 
REMARK   12  A    between atoms: C14_21  and  O6_22 
REMARK   13  A    between atoms: C15_24  and  C16_25 
REMARK   14  A    between atoms: C21_30  and  C22_31 
REMARK   15  A    between atoms: C22_31  and  C23_32 
ROOT
HETATM    1  C8  UNL     1      21.604  32.078  11.861  1.00  0.00     0.155 C 
ENDROOT
BRANCH   1   2
HETATM    2  C6  UNL     1      22.184  33.461  11.554  1.00  0.00     0.102 C 
BRANCH   2   3
HETATM    3  C5  UNL     1      23.474  33.568  12.252  1.00  0.00    -0.007 C 
HETATM    4  C4  UNL     1      24.658  33.778  11.733  1.00  0.00    -0.059 C 
BRANCH   4   5
HETATM    5  C3  UNL     1      25.853  33.855  12.608  1.00  0.00     0.212 C 
BRANCH   5   6
HETATM    6  O2  UNL     1      25.577  34.513  13.828  1.00  0.00    -0.317 OA
BRANCH   6   7
HETATM    7  C2  UNL     1      25.637  35.888  13.938  1.00  0.00     0.255 C 
HETATM    8  C1  UNL     1      26.746  36.686  13.330  1.00  0.00     0.126 C 
HETATM    9  O1  UNL     1      24.737  36.478  14.565  1.00  0.00    -0.266 OA
ENDBRANCH   6   7
ENDBRANCH   5   6
ENDBRANCH   4   5
BRANCH   4  10
HETATM   10  C21 UNL     1      24.851  33.944  10.284  1.00  0.00     0.040 C 
BRANCH  10  11
HETATM   11  C22 UNL     1      25.419  35.337  10.050  1.00  0.00     0.031 C 
BRANCH  11  12
HETATM   12  C23 UNL     1      24.495  36.097   9.169  1.00  0.00    -0.024 C 
HETATM   13  C24 UNL     1      23.725  37.030   9.667  1.00  0.00    -0.091 C 
HETATM   14  C25 UNL     1      22.809  37.779   8.776  1.00  0.00     0.042 C 
HETATM   15  C26 UNL     1      23.764  37.341  11.113  1.00  0.00     0.042 C 
ENDBRANCH  11  12
ENDBRANCH  10  11
ENDBRANCH   4  10
ENDBRANCH   2   3
BRANCH   2  16
HETATM   16  C7  UNL     1      21.212  34.433  12.175  1.00  0.00     0.242 C 
HETATM   17  O3  UNL     1      20.179  34.668  11.607  1.00  0.00    -0.306 OA
ENDBRANCH   2  16
ENDBRANCH   1   2
BRANCH   1  18
HETATM   18  O4  UNL     1      20.291  31.960  11.464  1.00  0.00    -0.391 OA
ATOM     19  H4  UNL     1      20.053  31.062  11.266  1.00  0.00     0.210 HD
ENDBRANCH   1  18
BRANCH   1  20
HETATM   20  C9  UNL     1      21.681  31.832  13.338  1.00  0.00     0.006 C 
HETATM   21  C10 UNL     1      21.980  30.654  13.758  1.00  0.00     0.010 C 
BRANCH  21  22
HETATM   22  C11 UNL     1      22.079  30.313  15.162  1.00  0.00    -0.033 A 
HETATM   23  C12 UNL     1      21.099  30.640  16.060  1.00  0.00     0.051 A 
HETATM   24  C13 UNL     1      21.251  30.286  17.386  1.00  0.00     0.100 A 
HETATM   25  C14 UNL     1      22.371  29.617  17.794  1.00  0.00     0.105 A 
HETATM   26  C15 UNL     1      23.390  29.261  16.938  1.00  0.00    -0.014 A 
HETATM   27  C20 UNL     1      23.214  29.625  15.625  1.00  0.00     0.022 A 
BRANCH  24  28
HETATM   28  O5  UNL     1      20.260  30.612  18.318  1.00  0.00    -0.358 OA
ATOM     29  H5  UNL     1      19.937  31.503  18.378  1.00  0.00     0.217 HD
ENDBRANCH  24  28
BRANCH  25  30
HETATM   30  O6  UNL     1      22.479  29.285  19.132  1.00  0.00    -0.357 OA
ATOM     31  H6  UNL     1      22.649  28.377  19.354  1.00  0.00     0.217 HD
ENDBRANCH  25  30
BRANCH  26  32
HETATM   32  C16 UNL     1      24.588  28.544  17.383  1.00  0.00    -0.021 C 
HETATM   33  C17 UNL     1      24.283  27.217  18.032  1.00  0.00     0.019 C 
HETATM   34  C18 UNL     1      25.430  29.428  18.278  1.00  0.00     0.019 C 
HETATM   35  C19 UNL     1      25.467  28.223  16.167  1.00  0.00     0.019 C 
ENDBRANCH  26  32
ENDBRANCH  21  22
ENDBRANCH   1  20
TORSDOF 15
ENDMDL
MODEL 5
REMARK VINA RESULT: -6.860359833      2.691      4.479
REMARK  15 active torsions:
REMARK  status: ('A' for Active; 'I' for Inactive)
REMARK    1  A    between atoms: C2_2  and  O2_4 
REMARK    2  A    between atoms: O2_4  and  C3_5 
REMARK    3  A    between atoms: C3_5  and  C4_6 
REMARK    4  A    between atoms: C4_6  and  C21_30 
REMARK    5  A    between atoms: C5_7  and  C6_8 
REMARK    6  A    between atoms: C6_8  and  C7_9 
REMARK    7  A    between atoms: C6_8  and  C8_11 
REMARK    8  A    between atoms: C8_11  and  O4_12 
REMARK    9  A    between atoms: C8_11  and  C9_14 
REMARK   10  A    between atoms: C10_15  and  C11_16 
REMARK   11  A    between atoms: C13_18  and  O5_19 
REMARK   12  A    between atoms: C14_21  and  O6_22 
REMARK   13  A    between atoms: C15_24  and  C16_25 
REMARK   14  A    between atoms: C21_30  and  C22_31 
REMARK   15  A    between atoms: C22_31  and  C23_32 
ROOT
HETATM    1  C8  UNL     1      21.720  32.467  11.530  1.00  0.00     0.155 C 
ENDROOT
BRANCH   1   2
HETATM    2  C6  UNL     1      21.367  33.902  11.928  1.00  0.00     0.102 C 
BRANCH   2   3
HETATM    3  C5  UNL     1      22.604  34.556  12.381  1.00  0.00    -0.007 C 
HETATM    4  C4  UNL     1      22.897  35.833  12.361  1.00  0.00    -0.059 C 
BRANCH   4   5
HETATM    5  C3  UNL     1      24.208  36.305  12.867  1.00  0.00     0.212 C 
BRANCH   5   6
HETATM    6  O2  UNL     1      24.316  36.173  14.270  1.00  0.00    -0.317 OA
BRANCH   6   7
HETATM    7  C2  UNL     1      25.470  36.520  14.943  1.00  0.00     0.255 C 
HETATM    8  C1  UNL     1      26.799  35.929  14.596  1.00  0.00     0.126 C 
HETATM    9  O1  UNL     1      25.398  37.351  15.868  1.00  0.00    -0.266 OA
ENDBRANCH   6   7
ENDBRANCH   5   6
ENDBRANCH   4   5
BRANCH   4  10
HETATM   10  C21 UNL     1      21.954  36.837  11.844  1.00  0.00     0.040 C 
BRANCH  10  11
HETATM   11  C22 UNL     1      22.625  37.541  10.673  1.00  0.00     0.031 C 
BRANCH  11  12
HETATM   12  C23 UNL     1      21.597  37.889   9.660  1.00  0.00    -0.024 C 
HETATM   13  C24 UNL     1      21.393  39.137   9.326  1.00  0.00    -0.091 C 
HETATM   14  C25 UNL     1      20.363  39.469   8.314  1.00  0.00     0.042 C 
HETATM   15  C26 UNL     1      22.184  40.219   9.953  1.00  0.00     0.042 C 
ENDBRANCH  11  12
ENDBRANCH  10  11
ENDBRANCH   4  10
ENDBRANCH   2   3
BRANCH   2  16
HETATM   16  C7  UNL     1      20.433  33.758  13.104  1.00  0.00     0.242 C 
HETATM   17  O3  UNL     1      19.300  34.146  12.998  1.00  0.00    -0.306 OA
ENDBRANCH   2  16
ENDBRANCH   1   2
BRANCH   1  18
HETATM   18  O4  UNL     1      20.604  31.679  11.364  1.00  0.00    -0.391 OA
ATOM     19  H4  UNL     1      20.824  30.769  11.207  1.00  0.00     0.210 HD
ENDBRANCH   1  18
BRANCH   1  20
HETATM   20  C9  UNL     1      22.579  31.860  12.599  1.00  0.00     0.006 C 
HETATM   21  C10 UNL     1      22.290  30.687  13.038  1.00  0.00     0.010 C 
BRANCH  21  22
HETATM   22  C11 UNL     1      23.056  30.014  14.067  1.00  0.00    -0.033 A 
HETATM   23  C12 UNL     1      24.287  29.471  13.818  1.00  0.00     0.051 A 
HETATM   24  C13 UNL     1      24.969  28.843  14.841  1.00  0.00     0.100 A 
HETATM   25  C14 UNL     1      24.416  28.764  16.088  1.00  0.00     0.105 A 
HETATM   26  C15 UNL     1      23.182  29.292  16.400  1.00  0.00    -0.014 A 
HETATM   27  C20 UNL     1      22.524  29.911  15.364  1.00  0.00     0.022 A 
BRANCH  24  28
HETATM   28  O5  UNL     1      26.229  28.283  14.605  1.00  0.00    -0.358 OA
ATOM     29  H5  UNL     1      26.852  28.195  15.316  1.00  0.00     0.217 HD
ENDBRANCH  24  28
BRANCH  25  30
HETATM   30  O6  UNL     1      25.136  28.125  17.081  1.00  0.00    -0.357 OA
ATOM     31  H6  UNL     1      24.977  27.199  17.223  1.00  0.00     0.217 HD
ENDBRANCH  25  30
BRANCH  26  32
HETATM   32  C16 UNL     1      22.595  29.203  17.740  1.00  0.00    -0.021 C 
HETATM   33  C17 UNL     1      23.497  29.738  18.824  1.00  0.00     0.019 C 
HETATM   34  C18 UNL     1      22.148  27.786  18.028  1.00  0.00     0.019 C 
HETATM   35  C19 UNL     1      21.323  30.060  17.793  1.00  0.00     0.019 C 
ENDBRANCH  26  32
ENDBRANCH  21  22
ENDBRANCH   1  20
TORSDOF 15
ENDMDL
