MODEL 1
REMARK VINA RESULT: -6.917634152      0.000      0.000
REMARK  1 active torsions:
REMARK  status: ('A' for Active; 'I' for Inactive)
REMARK       I    between atoms: C1_2  and  N2_4 
REMARK    1  A    between atoms: C2_6  and  C3_7 
ROOT
HETATM    1  C3  UNL     1      29.391  66.052   8.907  1.00  0.00     0.089 A 
HETATM    2  C4  UNL     1      30.351  65.431   9.666  1.00  0.00     0.137 A 
HETATM    3  N3  UNL     1      29.928  64.556  10.702  1.00  0.00    -0.081 NA
HETATM    4  N4  UNL     1      31.663  65.659   9.418  1.00  0.00    -0.296 N 
ATOM      5  H4  UNL     1      32.382  65.200   9.979  1.00  0.00     0.171 HD
HETATM    6  C5  UNL     1      32.005  66.497   8.424  1.00  0.00     0.328 A 
HETATM    7  O2  UNL     1      33.247  66.693   8.213  1.00  0.00    -0.247 OA
HETATM    8  N5  UNL     1      31.109  67.133   7.648  1.00  0.00    -0.275 N 
ATOM      9  H5  UNL     1      31.403  67.763   6.902  1.00  0.00     0.173 HD
HETATM   10  C6  UNL     1      29.792  66.899   7.903  1.00  0.00     0.264 A 
HETATM   11  O3  UNL     1      28.930  67.473   7.201  1.00  0.00    -0.267 OA
ENDROOT
BRANCH   1  12
HETATM   12  C2  UNL     1      27.970  65.855   9.115  1.00  0.00     0.112 C 
HETATM   13  N2  UNL     1      27.155  65.536   8.189  1.00  0.00    -0.320 N 
HETATM   14  C1  UNL     1      25.773  65.339   8.364  1.00  0.00     0.332 C 
ATOM     15  H2  UNL     1      27.533  65.413   7.249  1.00  0.00     0.169 HD
HETATM   16  N1  UNL     1      25.162  64.182   7.840  1.00  0.00    -0.040 NA
HETATM   17  O1  UNL     1      25.068  66.161   8.974  1.00  0.00    -0.251 OA
ENDBRANCH   1  12
TORSDOF 1
ENDMDL
MODEL 2
REMARK VINA RESULT: -6.736180018      1.385      2.176
REMARK  1 active torsions:
REMARK  status: ('A' for Active; 'I' for Inactive)
REMARK       I    between atoms: C1_2  and  N2_4 
REMARK    1  A    between atoms: C2_6  and  C3_7 
ROOT
HETATM    1  C3  UNL     1      29.369  65.983   8.951  1.00  0.00     0.089 A 
HETATM    2  C4  UNL     1      29.849  66.814   7.970  1.00  0.00     0.137 A 
HETATM    3  N3  UNL     1      28.914  67.491   7.143  1.00  0.00    -0.081 NA
HETATM    4  N4  UNL     1      31.185  66.971   7.811  1.00  0.00    -0.296 N 
ATOM      5  H4  UNL     1      31.550  67.587   7.084  1.00  0.00     0.171 HD
HETATM    6  C5  UNL     1      32.024  66.304   8.623  1.00  0.00     0.328 A 
HETATM    7  O2  UNL     1      33.276  66.471   8.451  1.00  0.00    -0.247 OA
HETATM    8  N5  UNL     1      31.610  65.477   9.601  1.00  0.00    -0.275 N 
ATOM      9  H5  UNL     1      32.274  64.987  10.199  1.00  0.00     0.173 HD
HETATM   10  C6  UNL     1      30.267  65.324   9.755  1.00  0.00     0.264 A 
HETATM   11  O3  UNL     1      29.844  64.563  10.654  1.00  0.00    -0.267 OA
ENDROOT
BRANCH   1  12
HETATM   12  C2  UNL     1      27.954  65.766   9.179  1.00  0.00     0.112 C 
HETATM   13  N2  UNL     1      27.119  65.497   8.255  1.00  0.00    -0.320 N 
HETATM   14  C1  UNL     1      25.743  65.282   8.449  1.00  0.00     0.332 C 
ATOM     15  H2  UNL     1      27.476  65.433   7.301  1.00  0.00     0.169 HD
HETATM   16  N1  UNL     1      25.125  64.154   7.870  1.00  0.00    -0.040 NA
HETATM   17  O1  UNL     1      25.048  66.063   9.122  1.00  0.00    -0.251 OA
ENDBRANCH   1  12
TORSDOF 1
ENDMDL
MODEL 3
REMARK VINA RESULT: -6.412398164      1.850      2.511
REMARK  1 active torsions:
REMARK  status: ('A' for Active; 'I' for Inactive)
REMARK       I    between atoms: C1_2  and  N2_4 
REMARK    1  A    between atoms: C2_6  and  C3_7 
ROOT
HETATM    1  C3  UNL     1      29.303  65.902   8.816  1.00  0.00     0.089 A 
HETATM    2  C4  UNL     1      29.695  66.751   7.811  1.00  0.00     0.137 A 
HETATM    3  N3  UNL     1      28.697  67.290   6.957  1.00  0.00    -0.081 NA
HETATM    4  N4  UNL     1      31.006  67.054   7.654  1.00  0.00    -0.296 N 
ATOM      5  H4  UNL     1      31.305  67.684   6.909  1.00  0.00     0.171 HD
HETATM    6  C5  UNL     1      31.907  66.515   8.493  1.00  0.00     0.328 A 
HETATM    7  O2  UNL     1      33.134  66.818   8.322  1.00  0.00    -0.247 OA
HETATM    8  N5  UNL     1      31.582  65.677   9.495  1.00  0.00    -0.275 N 
ATOM      9  H5  UNL     1      32.292  65.286  10.113  1.00  0.00     0.173 HD
HETATM   10  C6  UNL     1      30.263  65.376   9.647  1.00  0.00     0.264 A 
HETATM   11  O3  UNL     1      29.921  64.602  10.567  1.00  0.00    -0.267 OA
ENDROOT
BRANCH   1  12
HETATM   12  C2  UNL     1      27.920  65.533   9.043  1.00  0.00     0.112 C 
HETATM   13  N2  UNL     1      27.133  66.171   9.815  1.00  0.00    -0.320 N 
HETATM   14  C1  UNL     1      25.788  65.834  10.052  1.00  0.00     0.332 C 
ATOM     15  H2  UNL     1      27.506  66.988  10.299  1.00  0.00     0.169 HD
HETATM   16  N1  UNL     1      24.795  66.832   9.969  1.00  0.00    -0.040 NA
HETATM   17  O1  UNL     1      25.445  64.673  10.335  1.00  0.00    -0.251 OA
ENDBRANCH   1  12
TORSDOF 1
ENDMDL
MODEL 4
REMARK VINA RESULT: -5.908153081      1.553      1.553
REMARK  1 active torsions:
REMARK  status: ('A' for Active; 'I' for Inactive)
REMARK       I    between atoms: C1_2  and  N2_4 
REMARK    1  A    between atoms: C2_6  and  C3_7 
ROOT
HETATM    1  C3  UNL     1      29.314  66.023   8.820  1.00  0.00     0.089 A 
HETATM    2  C4  UNL     1      30.072  66.415   9.894  1.00  0.00     0.137 A 
HETATM    3  N3  UNL     1      29.415  66.658  11.130  1.00  0.00    -0.081 NA
HETATM    4  N4  UNL     1      31.412  66.560   9.761  1.00  0.00    -0.296 N 
ATOM      5  H4  UNL     1      31.982  66.851  10.555  1.00  0.00     0.171 HD
HETATM    6  C5  UNL     1      31.980  66.317   8.567  1.00  0.00     0.328 A 
HETATM    7  O2  UNL     1      33.243  66.461   8.470  1.00  0.00    -0.247 OA
HETATM    8  N5  UNL     1      31.288  65.931   7.479  1.00  0.00    -0.275 N 
ATOM      9  H5  UNL     1      31.752  65.754   6.588  1.00  0.00     0.173 HD
HETATM   10  C6  UNL     1      29.942  65.787   7.621  1.00  0.00     0.264 A 
HETATM   11  O3  UNL     1      29.265  65.428   6.632  1.00  0.00    -0.267 OA
ENDROOT
BRANCH   1  12
HETATM   12  C2  UNL     1      27.876  65.848   8.889  1.00  0.00     0.112 C 
HETATM   13  N2  UNL     1      27.289  65.153   9.781  1.00  0.00    -0.320 N 
HETATM   14  C1  UNL     1      25.897  64.968   9.871  1.00  0.00     0.332 C 
ATOM     15  H2  UNL     1      27.872  64.697  10.483  1.00  0.00     0.169 HD
HETATM   16  N1  UNL     1      25.248  65.157  11.108  1.00  0.00    -0.040 NA
HETATM   17  O1  UNL     1      25.217  64.639   8.884  1.00  0.00    -0.251 OA
ENDBRANCH   1  12
TORSDOF 1
ENDMDL
MODEL 5
REMARK VINA RESULT: -5.829327350      6.009      6.904
REMARK  1 active torsions:
REMARK  status: ('A' for Active; 'I' for Inactive)
REMARK       I    between atoms: C1_2  and  N2_4 
REMARK    1  A    between atoms: C2_6  and  C3_7 
ROOT
HETATM    1  C3  UNL     1      26.328  63.536  12.969  1.00  0.00     0.089 A 
HETATM    2  C4  UNL     1      25.472  64.533  13.366  1.00  0.00     0.137 A 
HETATM    3  N3  UNL     1      24.541  65.038  12.420  1.00  0.00    -0.081 NA
HETATM    4  N4  UNL     1      25.529  65.009  14.632  1.00  0.00    -0.296 N 
ATOM      5  H4  UNL     1      24.897  65.750  14.935  1.00  0.00     0.171 HD
HETATM    6  C5  UNL     1      26.431  64.493  15.485  1.00  0.00     0.328 A 
HETATM    7  O2  UNL     1      26.463  64.960  16.671  1.00  0.00    -0.247 OA
HETATM    8  N5  UNL     1      27.295  63.516  15.152  1.00  0.00    -0.275 N 
ATOM      9  H5  UNL     1      27.967  63.147  15.825  1.00  0.00     0.173 HD
HETATM   10  C6  UNL     1      27.232  63.042  13.878  1.00  0.00     0.264 A 
HETATM   11  O3  UNL     1      28.018  62.133  13.531  1.00  0.00    -0.267 OA
ENDROOT
BRANCH   1  12
HETATM   12  C2  UNL     1      26.324  62.978  11.631  1.00  0.00     0.112 C 
HETATM   13  N2  UNL     1      25.284  62.515  11.058  1.00  0.00    -0.320 N 
HETATM   14  C1  UNL     1      25.253  61.970   9.762  1.00  0.00     0.332 C 
ATOM     15  H2  UNL     1      24.407  62.542  11.579  1.00  0.00     0.169 HD
HETATM   16  N1  UNL     1      24.264  62.394   8.851  1.00  0.00    -0.040 NA
HETATM   17  O1  UNL     1      26.079  61.118   9.391  1.00  0.00    -0.251 OA
ENDBRANCH   1  12
TORSDOF 1
ENDMDL
