MODEL 1
REMARK VINA RESULT: -8.512267991      0.000      0.000
REMARK  12 active torsions:
REMARK  status: ('A' for Active; 'I' for Inactive)
REMARK    1  A    between atoms: C2_2  and  C3_3 
REMARK    2  A    between atoms: C4_4  and  N1_5 
REMARK    3  A    between atoms: N1_5  and  C5_6 
REMARK    4  A    between atoms: N3_10  and  C7_12 
REMARK    5  A    between atoms: C7_12  and  C8_13 
REMARK    6  A    between atoms: C8_13  and  C9_14 
REMARK    7  A    between atoms: C9_14  and  C10_15 
REMARK    8  A    between atoms: C10_15  and  C11_16 
REMARK    9  A    between atoms: C11_16  and  C12_17 
REMARK   10  A    between atoms: C12_17  and  C13_18 
REMARK   11  A    between atoms: C13_18  and  C14_19 
REMARK   12  A    between atoms: C16_25  and  C17_26 
REMARK       I    between atoms: C17_26  and  N5_28 
ROOT
HETATM    1  C5  UNL     1      17.235  66.336  16.114  1.00  0.00     0.213 A 
HETATM    2  N2  UNL     1      17.413  66.848  17.382  1.00  0.00    -0.163 N 
ATOM      3  H2  UNL     1      16.795  66.497  18.113  1.00  0.00     0.187 HD
HETATM    4  C6  UNL     1      18.302  67.744  17.733  1.00  0.00     0.680 A 
HETATM    5  N3  UNL     1      18.466  68.217  18.916  1.00  0.00    -0.226 N 
ATOM      6  H3  UNL     1      19.189  68.916  19.089  1.00  0.00     0.177 HD
HETATM    7  N4  UNL     1      19.137  68.223  16.762  1.00  0.00    -0.201 N 
ATOM      8  H4  UNL     1      19.845  68.921  16.992  1.00  0.00     0.183 HD
HETATM    9  C15 UNL     1      19.022  67.778  15.528  1.00  0.00     0.128 A 
HETATM   10  C16 UNL     1      18.089  66.831  15.133  1.00  0.00     0.106 A 
ENDROOT
BRANCH   1  11
HETATM   11  N1  UNL     1      16.397  65.517  15.943  1.00  0.00    -0.367 NA
BRANCH  11  12
HETATM   12  C4  UNL     1      15.444  64.615  16.130  1.00  0.00     0.190 A 
HETATM   13  C3  UNL     1      14.418  64.418  15.181  1.00  0.00     0.029 A 
HETATM   14  C28 UNL     1      13.418  63.497  15.340  1.00  0.00     0.072 A 
HETATM   15  C25 UNL     1      13.388  62.712  16.472  1.00  0.00     0.032 A 
HETATM   16  N9  UNL     1      12.344  63.114  14.608  1.00  0.00    -0.298 N 
HETATM   17  C23 UNL     1      14.390  62.899  17.406  1.00  0.00     0.022 A 
HETATM   18  C26 UNL     1      12.297  61.881  16.386  1.00  0.00     0.125 A 
HETATM   19  N7  UNL     1      15.352  63.808  17.219  1.00  0.00    -0.334 N 
HETATM   20  C24 UNL     1      14.352  62.045  18.633  1.00  0.00     0.069 C 
ATOM     21  H7  UNL     1      16.066  63.901  17.942  1.00  0.00     0.168 HD
HETATM   22  N8  UNL     1      11.676  62.157  15.221  1.00  0.00    -0.306 N 
HETATM   23  C27 UNL     1      10.458  61.482  14.750  1.00  0.00     0.177 C 
ATOM     24  H9  UNL     1      12.086  63.512  13.705  1.00  0.00     0.187 HD
BRANCH  13  25
HETATM   25  C2  UNL     1      14.473  65.271  13.978  1.00  0.00     0.041 C 
HETATM   26  C1  UNL     1      14.258  64.453  12.724  1.00  0.00     0.010 C 
ENDBRANCH  13  25
ENDBRANCH  11  12
ENDBRANCH   1  11
BRANCH  10  27
HETATM   27  C17 UNL     1      18.059  66.447  13.739  1.00  0.00     0.260 C 
HETATM   28  O3  UNL     1      18.140  65.251  13.398  1.00  0.00    -0.267 OA
HETATM   29  N5  UNL     1      17.941  67.437  12.749  1.00  0.00    -0.344 N 
HETATM   30  C18 UNL     1      17.913  67.116  11.338  1.00  0.00     0.156 C 
HETATM   31  C22 UNL     1      17.833  68.835  13.110  1.00  0.00     0.156 C 
HETATM   32  C19 UNL     1      18.143  68.410  10.569  1.00  0.00     0.291 C 
HETATM   33  N6  UNL     1      17.188  69.433  10.866  1.00  0.00     0.087 N 
HETATM   34  C20 UNL     1      17.802  70.716  10.519  1.00  0.00     0.310 C 
HETATM   35  C21 UNL     1      16.800  69.525  12.241  1.00  0.00     0.291 C 
ENDBRANCH  10  27
BRANCH   5  36
HETATM   36  C7  UNL     1      17.628  67.763  20.002  1.00  0.00     0.138 C 
BRANCH  36  37
HETATM   37  C8  UNL     1      16.376  68.589  19.962  1.00  0.00     0.020 C 
BRANCH  37  38
HETATM   38  C9  UNL     1      15.202  67.788  20.425  1.00  0.00     0.002 C 
BRANCH  38  39
HETATM   39  C10 UNL     1      14.952  66.638  19.498  1.00  0.00     0.000 C 
BRANCH  39  40
HETATM   40  C11 UNL     1      14.093  67.181  18.361  1.00  0.00     0.001 C 
BRANCH  40  41
HETATM   41  C12 UNL     1      12.892  66.307  18.111  1.00  0.00     0.010 C 
BRANCH  41  42
HETATM   42  C13 UNL     1      12.647  65.346  19.253  1.00  0.00     0.113 C 
BRANCH  42  43
HETATM   43  C14 UNL     1      11.417  64.584  18.936  1.00  0.00     0.172 C 
HETATM   44  O1  UNL     1      10.841  64.756  17.844  1.00  0.00    -0.648 OA
HETATM   45  O2  UNL     1      10.915  63.684  19.857  1.00  0.00    -0.648 OA
ENDBRANCH  42  43
ENDBRANCH  41  42
ENDBRANCH  40  41
ENDBRANCH  39  40
ENDBRANCH  38  39
ENDBRANCH  37  38
ENDBRANCH  36  37
ENDBRANCH   5  36
TORSDOF 12
ENDMDL
MODEL 2
REMARK VINA RESULT: -8.423925661      2.611      7.474
REMARK  12 active torsions:
REMARK  status: ('A' for Active; 'I' for Inactive)
REMARK    1  A    between atoms: C2_2  and  C3_3 
REMARK    2  A    between atoms: C4_4  and  N1_5 
REMARK    3  A    between atoms: N1_5  and  C5_6 
REMARK    4  A    between atoms: N3_10  and  C7_12 
REMARK    5  A    between atoms: C7_12  and  C8_13 
REMARK    6  A    between atoms: C8_13  and  C9_14 
REMARK    7  A    between atoms: C9_14  and  C10_15 
REMARK    8  A    between atoms: C10_15  and  C11_16 
REMARK    9  A    between atoms: C11_16  and  C12_17 
REMARK   10  A    between atoms: C12_17  and  C13_18 
REMARK   11  A    between atoms: C13_18  and  C14_19 
REMARK   12  A    between atoms: C16_25  and  C17_26 
REMARK       I    between atoms: C17_26  and  N5_28 
ROOT
HETATM    1  C5  UNL     1      13.369  64.575  17.051  1.00  0.00     0.213 A 
HETATM    2  N2  UNL     1      12.857  63.300  17.179  1.00  0.00    -0.163 N 
ATOM      3  H2  UNL     1      13.233  62.586  16.557  1.00  0.00     0.187 HD
HETATM    4  C6  UNL     1      11.933  62.923  18.028  1.00  0.00     0.680 A 
HETATM    5  N3  UNL     1      11.460  61.734  18.146  1.00  0.00    -0.226 N 
ATOM      6  H3  UNL     1      10.738  61.540  18.840  1.00  0.00     0.177 HD
HETATM    7  N4  UNL     1      11.420  63.871  18.870  1.00  0.00    -0.201 N 
ATOM      8  H4  UNL     1      10.700  63.620  19.547  1.00  0.00     0.183 HD
HETATM    9  C15 UNL     1      11.863  65.109  18.801  1.00  0.00     0.128 A 
HETATM   10  C16 UNL     1      12.839  65.532  17.911  1.00  0.00     0.106 A 
ENDROOT
BRANCH   1  11
HETATM   11  N1  UNL     1      14.215  64.769  16.247  1.00  0.00    -0.367 NA
BRANCH  11  12
HETATM   12  C4  UNL     1      15.299  65.208  15.623  1.00  0.00     0.190 A 
HETATM   13  C3  UNL     1      15.311  65.420  14.227  1.00  0.00     0.029 A 
HETATM   14  C28 UNL     1      16.412  65.872  13.549  1.00  0.00     0.072 A 
HETATM   15  C25 UNL     1      17.574  66.139  14.237  1.00  0.00     0.032 A 
HETATM   16  N9  UNL     1      16.687  66.154  12.252  1.00  0.00    -0.298 N 
HETATM   17  C23 UNL     1      17.569  65.934  15.604  1.00  0.00     0.022 A 
HETATM   18  C26 UNL     1      18.514  66.574  13.334  1.00  0.00     0.125 A 
HETATM   19  N7  UNL     1      16.477  65.492  16.236  1.00  0.00    -0.334 N 
HETATM   20  C24 UNL     1      18.835  66.224  16.346  1.00  0.00     0.069 C 
ATOM     21  H7  UNL     1      16.533  65.359  17.245  1.00  0.00     0.168 HD
HETATM   22  N8  UNL     1      17.931  66.571  12.118  1.00  0.00    -0.306 N 
HETATM   23  C27 UNL     1      18.604  66.972  10.874  1.00  0.00     0.177 C 
ATOM     24  H9  UNL     1      16.023  66.057  11.484  1.00  0.00     0.187 HD
BRANCH  13  25
HETATM   25  C2  UNL     1      14.054  65.127  13.513  1.00  0.00     0.041 C 
HETATM   26  C1  UNL     1      13.961  63.660  13.157  1.00  0.00     0.010 C 
ENDBRANCH  13  25
ENDBRANCH  11  12
ENDBRANCH   1  11
BRANCH  10  27
HETATM   27  C17 UNL     1      13.216  66.928  17.929  1.00  0.00     0.260 C 
HETATM   28  O3  UNL     1      12.510  67.793  17.374  1.00  0.00    -0.267 OA
HETATM   29  N5  UNL     1      14.399  67.319  18.579  1.00  0.00    -0.344 N 
HETATM   30  C18 UNL     1      14.831  68.699  18.625  1.00  0.00     0.156 C 
HETATM   31  C22 UNL     1      15.235  66.342  19.244  1.00  0.00     0.156 C 
HETATM   32  C19 UNL     1      16.288  68.708  19.070  1.00  0.00     0.291 C 
HETATM   33  N6  UNL     1      16.505  68.076  20.335  1.00  0.00     0.087 N 
HETATM   34  C20 UNL     1      17.913  67.676  20.385  1.00  0.00     0.310 C 
HETATM   35  C21 UNL     1      15.736  66.890  20.565  1.00  0.00     0.291 C 
ENDBRANCH  10  27
BRANCH   5  36
HETATM   36  C7  UNL     1      11.949  60.671  17.298  1.00  0.00     0.138 C 
BRANCH  36  37
HETATM   37  C8  UNL     1      10.802  60.244  16.430  1.00  0.00     0.020 C 
BRANCH  37  38
HETATM   38  C9  UNL     1      10.639  61.179  15.275  1.00  0.00     0.002 C 
BRANCH  38  39
HETATM   39  C10 UNL     1       9.248  61.735  15.241  1.00  0.00     0.000 C 
BRANCH  39  40
HETATM   40  C11 UNL     1       8.441  60.814  14.330  1.00  0.00     0.001 C 
BRANCH  40  41
HETATM   41  C12 UNL     1       7.290  60.181  15.066  1.00  0.00     0.010 C 
BRANCH  41  42
HETATM   42  C13 UNL     1       7.150  58.711  14.734  1.00  0.00     0.113 C 
BRANCH  42  43
HETATM   43  C14 UNL     1       8.042  57.962  15.649  1.00  0.00     0.172 C 
HETATM   44  O1  UNL     1       8.984  57.288  15.187  1.00  0.00    -0.648 OA
HETATM   45  O2  UNL     1       7.824  58.017  17.012  1.00  0.00    -0.648 OA
ENDBRANCH  42  43
ENDBRANCH  41  42
ENDBRANCH  40  41
ENDBRANCH  39  40
ENDBRANCH  38  39
ENDBRANCH  37  38
ENDBRANCH  36  37
ENDBRANCH   5  36
TORSDOF 12
ENDMDL
MODEL 3
REMARK VINA RESULT: -8.163938842      2.541      6.759
REMARK  12 active torsions:
REMARK  status: ('A' for Active; 'I' for Inactive)
REMARK    1  A    between atoms: C2_2  and  C3_3 
REMARK    2  A    between atoms: C4_4  and  N1_5 
REMARK    3  A    between atoms: N1_5  and  C5_6 
REMARK    4  A    between atoms: N3_10  and  C7_12 
REMARK    5  A    between atoms: C7_12  and  C8_13 
REMARK    6  A    between atoms: C8_13  and  C9_14 
REMARK    7  A    between atoms: C9_14  and  C10_15 
REMARK    8  A    between atoms: C10_15  and  C11_16 
REMARK    9  A    between atoms: C11_16  and  C12_17 
REMARK   10  A    between atoms: C12_17  and  C13_18 
REMARK   11  A    between atoms: C13_18  and  C14_19 
REMARK   12  A    between atoms: C16_25  and  C17_26 
REMARK       I    between atoms: C17_26  and  N5_28 
ROOT
HETATM    1  C5  UNL     1      17.636  66.453  15.718  1.00  0.00     0.213 A 
HETATM    2  N2  UNL     1      16.461  66.305  16.424  1.00  0.00    -0.163 N 
ATOM      3  H2  UNL     1      16.199  67.065  17.051  1.00  0.00     0.187 HD
HETATM    4  C6  UNL     1      15.650  65.278  16.364  1.00  0.00     0.680 A 
HETATM    5  N3  UNL     1      14.555  65.145  17.022  1.00  0.00    -0.226 N 
ATOM      6  H3  UNL     1      13.991  64.302  16.906  1.00  0.00     0.177 HD
HETATM    7  N4  UNL     1      15.989  64.251  15.527  1.00  0.00    -0.201 N 
ATOM      8  H4  UNL     1      15.385  63.432  15.448  1.00  0.00     0.183 HD
HETATM    9  C15 UNL     1      17.098  64.326  14.823  1.00  0.00     0.128 A 
HETATM   10  C16 UNL     1      17.973  65.402  14.870  1.00  0.00     0.106 A 
ENDROOT
BRANCH   1  11
HETATM   11  N1  UNL     1      18.265  67.446  15.862  1.00  0.00    -0.367 NA
BRANCH  11  12
HETATM   12  C4  UNL     1      18.802  68.646  15.694  1.00  0.00     0.190 A 
HETATM   13  C3  UNL     1      19.000  69.523  16.782  1.00  0.00     0.029 A 
HETATM   14  C28 UNL     1      19.551  70.770  16.648  1.00  0.00     0.072 A 
HETATM   15  C25 UNL     1      19.939  71.212  15.403  1.00  0.00     0.032 A 
HETATM   16  N9  UNL     1      19.846  71.782  17.499  1.00  0.00    -0.298 N 
HETATM   17  C23 UNL     1      19.747  70.358  14.333  1.00  0.00     0.022 A 
HETATM   18  C26 UNL     1      20.455  72.478  15.542  1.00  0.00     0.125 A 
HETATM   19  N7  UNL     1      19.207  69.148  14.499  1.00  0.00    -0.334 N 
HETATM   20  C24 UNL     1      20.169  70.846  12.982  1.00  0.00     0.069 C 
ATOM     21  H7  UNL     1      19.091  68.561  13.672  1.00  0.00     0.168 HD
HETATM   22  N8  UNL     1      20.382  72.797  16.850  1.00  0.00    -0.306 N 
HETATM   23  C27 UNL     1      20.834  74.075  17.420  1.00  0.00     0.177 C 
ATOM     24  H9  UNL     1      19.676  71.762  18.504  1.00  0.00     0.187 HD
BRANCH  13  25
HETATM   25  C2  UNL     1      18.578  69.025  18.105  1.00  0.00     0.041 C 
HETATM   26  C1  UNL     1      17.114  69.314  18.352  1.00  0.00     0.010 C 
ENDBRANCH  13  25
ENDBRANCH  11  12
ENDBRANCH   1  11
BRANCH  10  27
HETATM   27  C17 UNL     1      19.168  65.343  14.058  1.00  0.00     0.260 C 
HETATM   28  O3  UNL     1      20.145  64.649  14.401  1.00  0.00    -0.267 OA
HETATM   29  N5  UNL     1      19.234  66.082  12.865  1.00  0.00    -0.344 N 
HETATM   30  C18 UNL     1      20.404  66.068  12.015  1.00  0.00     0.156 C 
HETATM   31  C22 UNL     1      18.112  66.889  12.432  1.00  0.00     0.156 C 
HETATM   32  C19 UNL     1      20.274  67.229  11.037  1.00  0.00     0.291 C 
HETATM   33  N6  UNL     1      19.083  67.182  10.245  1.00  0.00     0.087 N 
HETATM   34  C20 UNL     1      18.814  68.545   9.783  1.00  0.00     0.310 C 
HETATM   35  C21 UNL     1      17.907  66.746  10.937  1.00  0.00     0.291 C 
ENDBRANCH  10  27
BRANCH   5  36
HETATM   36  C7  UNL     1      14.120  66.184  17.926  1.00  0.00     0.138 C 
BRANCH  36  37
HETATM   37  C8  UNL     1      12.650  65.978  18.153  1.00  0.00     0.020 C 
BRANCH  37  38
HETATM   38  C9  UNL     1      12.419  64.912  19.174  1.00  0.00     0.002 C 
BRANCH  38  39
HETATM   39  C10 UNL     1      11.157  64.163  18.875  1.00  0.00     0.000 C 
BRANCH  39  40
HETATM   40  C11 UNL     1      11.027  64.132  17.355  1.00  0.00     0.001 C 
BRANCH  40  41
HETATM   41  C12 UNL     1      10.942  62.720  16.837  1.00  0.00     0.010 C 
BRANCH  41  42
HETATM   42  C13 UNL     1      11.262  62.642  15.360  1.00  0.00     0.113 C 
BRANCH  42  43
HETATM   43  C14 UNL     1      12.659  63.102  15.183  1.00  0.00     0.172 C 
HETATM   44  O1  UNL     1      12.901  64.109  14.489  1.00  0.00    -0.648 OA
HETATM   45  O2  UNL     1      13.687  62.409  15.792  1.00  0.00    -0.648 OA
ENDBRANCH  42  43
ENDBRANCH  41  42
ENDBRANCH  40  41
ENDBRANCH  39  40
ENDBRANCH  38  39
ENDBRANCH  37  38
ENDBRANCH  36  37
ENDBRANCH   5  36
TORSDOF 12
ENDMDL
MODEL 4
REMARK VINA RESULT: -8.156086009      0.903      1.964
REMARK  12 active torsions:
REMARK  status: ('A' for Active; 'I' for Inactive)
REMARK    1  A    between atoms: C2_2  and  C3_3 
REMARK    2  A    between atoms: C4_4  and  N1_5 
REMARK    3  A    between atoms: N1_5  and  C5_6 
REMARK    4  A    between atoms: N3_10  and  C7_12 
REMARK    5  A    between atoms: C7_12  and  C8_13 
REMARK    6  A    between atoms: C8_13  and  C9_14 
REMARK    7  A    between atoms: C9_14  and  C10_15 
REMARK    8  A    between atoms: C10_15  and  C11_16 
REMARK    9  A    between atoms: C11_16  and  C12_17 
REMARK   10  A    between atoms: C12_17  and  C13_18 
REMARK   11  A    between atoms: C13_18  and  C14_19 
REMARK   12  A    between atoms: C16_25  and  C17_26 
REMARK       I    between atoms: C17_26  and  N5_28 
ROOT
HETATM    1  C5  UNL     1      17.348  66.350  16.186  1.00  0.00     0.213 A 
HETATM    2  N2  UNL     1      17.458  66.832  17.474  1.00  0.00    -0.163 N 
ATOM      3  H2  UNL     1      16.850  66.414  18.177  1.00  0.00     0.187 HD
HETATM    4  C6  UNL     1      18.271  67.778  17.876  1.00  0.00     0.680 A 
HETATM    5  N3  UNL     1      18.371  68.223  19.077  1.00  0.00    -0.226 N 
ATOM      6  H3  UNL     1      19.037  68.966  19.290  1.00  0.00     0.177 HD
HETATM    7  N4  UNL     1      19.093  68.347  16.943  1.00  0.00    -0.201 N 
ATOM      8  H4  UNL     1      19.742  69.086  17.213  1.00  0.00     0.183 HD
HETATM    9  C15 UNL     1      19.040  67.935  15.693  1.00  0.00     0.128 A 
HETATM   10  C16 UNL     1      18.188  66.937  15.244  1.00  0.00     0.106 A 
ENDROOT
BRANCH   1  11
HETATM   11  N1  UNL     1      16.577  65.479  15.968  1.00  0.00    -0.367 NA
BRANCH  11  12
HETATM   12  C4  UNL     1      15.519  64.789  15.569  1.00  0.00     0.190 A 
HETATM   13  C3  UNL     1      14.781  63.986  16.464  1.00  0.00     0.029 A 
HETATM   14  C28 UNL     1      13.682  63.259  16.088  1.00  0.00     0.072 A 
HETATM   15  C25 UNL     1      13.257  63.297  14.778  1.00  0.00     0.032 A 
HETATM   16  N9  UNL     1      12.818  62.432  16.724  1.00  0.00    -0.298 N 
HETATM   17  C23 UNL     1      13.975  64.082  13.896  1.00  0.00     0.022 A 
HETATM   18  C26 UNL     1      12.149  62.492  14.667  1.00  0.00     0.125 A 
HETATM   19  N7  UNL     1      15.042  64.779  14.296  1.00  0.00    -0.334 N 
HETATM   20  C24 UNL     1      13.508  64.118  12.474  1.00  0.00     0.069 C 
ATOM     21  H7  UNL     1      15.532  65.341  13.600  1.00  0.00     0.168 HD
HETATM   22  N8  UNL     1      11.907  61.975  15.888  1.00  0.00    -0.306 N 
HETATM   23  C27 UNL     1      10.801  61.056  16.196  1.00  0.00     0.177 C 
ATOM     24  H9  UNL     1      12.865  62.196  17.715  1.00  0.00     0.187 HD
BRANCH  13  25
HETATM   25  C2  UNL     1      15.256  63.963  17.861  1.00  0.00     0.041 C 
HETATM   26  C1  UNL     1      14.893  62.660  18.537  1.00  0.00     0.010 C 
ENDBRANCH  13  25
ENDBRANCH  11  12
ENDBRANCH   1  11
BRANCH  10  27
HETATM   27  C17 UNL     1      18.220  66.598  13.838  1.00  0.00     0.260 C 
HETATM   28  O3  UNL     1      18.430  65.427  13.463  1.00  0.00    -0.267 OA
HETATM   29  N5  UNL     1      18.016  67.602  12.877  1.00  0.00    -0.344 N 
HETATM   30  C18 UNL     1      18.044  67.325  11.457  1.00  0.00     0.156 C 
HETATM   31  C22 UNL     1      17.758  68.969  13.279  1.00  0.00     0.156 C 
HETATM   32  C19 UNL     1      18.152  68.660  10.732  1.00  0.00     0.291 C 
HETATM   33  N6  UNL     1      17.091  69.570  11.042  1.00  0.00     0.087 N 
HETATM   34  C20 UNL     1      17.575  70.919  10.746  1.00  0.00     0.310 C 
HETATM   35  C21 UNL     1      16.674  69.576  12.412  1.00  0.00     0.291 C 
ENDBRANCH  10  27
BRANCH   5  36
HETATM   36  C7  UNL     1      17.542  67.675  20.126  1.00  0.00     0.138 C 
BRANCH  36  37
HETATM   37  C8  UNL     1      16.353  68.581  20.260  1.00  0.00     0.020 C 
BRANCH  37  38
HETATM   38  C9  UNL     1      15.088  67.831  19.997  1.00  0.00     0.002 C 
BRANCH  38  39
HETATM   39  C10 UNL     1      14.412  68.356  18.767  1.00  0.00     0.000 C 
BRANCH  39  40
HETATM   40  C11 UNL     1      13.874  67.138  18.021  1.00  0.00     0.001 C 
BRANCH  40  41
HETATM   41  C12 UNL     1      13.126  66.213  18.944  1.00  0.00     0.010 C 
BRANCH  41  42
HETATM   42  C13 UNL     1      11.966  65.537  18.245  1.00  0.00     0.113 C 
BRANCH  42  43
HETATM   43  C14 UNL     1      11.340  64.612  19.218  1.00  0.00     0.172 C 
HETATM   44  O1  UNL     1      11.945  63.584  19.579  1.00  0.00    -0.648 OA
HETATM   45  O2  UNL     1      10.084  64.898  19.720  1.00  0.00    -0.648 OA
ENDBRANCH  42  43
ENDBRANCH  41  42
ENDBRANCH  40  41
ENDBRANCH  39  40
ENDBRANCH  38  39
ENDBRANCH  37  38
ENDBRANCH  36  37
ENDBRANCH   5  36
TORSDOF 12
ENDMDL
MODEL 5
REMARK VINA RESULT: -8.007309868      5.406     10.506
REMARK  12 active torsions:
REMARK  status: ('A' for Active; 'I' for Inactive)
REMARK    1  A    between atoms: C2_2  and  C3_3 
REMARK    2  A    between atoms: C4_4  and  N1_5 
REMARK    3  A    between atoms: N1_5  and  C5_6 
REMARK    4  A    between atoms: N3_10  and  C7_12 
REMARK    5  A    between atoms: C7_12  and  C8_13 
REMARK    6  A    between atoms: C8_13  and  C9_14 
REMARK    7  A    between atoms: C9_14  and  C10_15 
REMARK    8  A    between atoms: C10_15  and  C11_16 
REMARK    9  A    between atoms: C11_16  and  C12_17 
REMARK   10  A    between atoms: C12_17  and  C13_18 
REMARK   11  A    between atoms: C13_18  and  C14_19 
REMARK   12  A    between atoms: C16_25  and  C17_26 
REMARK       I    between atoms: C17_26  and  N5_28 
ROOT
HETATM    1  C5  UNL     1       9.065  62.073  19.998  1.00  0.00     0.213 A 
HETATM    2  N2  UNL     1       9.981  63.054  19.681  1.00  0.00    -0.163 N 
ATOM      3  H2  UNL     1      10.447  62.978  18.777  1.00  0.00     0.187 HD
HETATM    4  C6  UNL     1      10.308  64.075  20.434  1.00  0.00     0.680 A 
HETATM    5  N3  UNL     1      11.161  64.988  20.134  1.00  0.00    -0.226 N 
ATOM      6  H3  UNL     1      11.348  65.745  20.792  1.00  0.00     0.177 HD
HETATM    7  N4  UNL     1       9.692  64.190  21.649  1.00  0.00    -0.201 N 
ATOM      8  H4  UNL     1       9.916  64.970  22.267  1.00  0.00     0.183 HD
HETATM    9  C15 UNL     1       8.806  63.288  22.016  1.00  0.00     0.128 A 
HETATM   10  C16 UNL     1       8.444  62.199  21.237  1.00  0.00     0.106 A 
ENDROOT
BRANCH   1  11
HETATM   11  N1  UNL     1       8.857  61.213  19.211  1.00  0.00    -0.367 NA
BRANCH  11  12
HETATM   12  C4  UNL     1       8.348  60.487  18.227  1.00  0.00     0.190 A 
HETATM   13  C3  UNL     1       9.101  60.175  17.074  1.00  0.00     0.029 A 
HETATM   14  C28 UNL     1       8.608  59.428  16.038  1.00  0.00     0.072 A 
HETATM   15  C25 UNL     1       7.320  58.945  16.098  1.00  0.00     0.032 A 
HETATM   16  N9  UNL     1       9.101  58.994  14.852  1.00  0.00    -0.298 N 
HETATM   17  C23 UNL     1       6.577  59.247  17.224  1.00  0.00     0.022 A 
HETATM   18  C26 UNL     1       7.076  58.236  14.947  1.00  0.00     0.125 A 
HETATM   19  N7  UNL     1       7.088  59.979  18.218  1.00  0.00    -0.334 N 
HETATM   20  C24 UNL     1       5.177  58.721  17.283  1.00  0.00     0.069 C 
ATOM     21  H7  UNL     1       6.493  60.169  19.024  1.00  0.00     0.168 HD
HETATM   22  N8  UNL     1       8.198  58.286  14.202  1.00  0.00    -0.306 N 
HETATM   23  C27 UNL     1       8.351  57.647  12.886  1.00  0.00     0.177 C 
ATOM     24  H9  UNL     1      10.042  59.188  14.510  1.00  0.00     0.187 HD
BRANCH  13  25
HETATM   25  C2  UNL     1      10.478  60.703  17.035  1.00  0.00     0.041 C 
HETATM   26  C1  UNL     1      10.562  61.935  16.162  1.00  0.00     0.010 C 
ENDBRANCH  13  25
ENDBRANCH  11  12
ENDBRANCH   1  11
BRANCH  10  27
HETATM   27  C17 UNL     1       7.472  61.272  21.773  1.00  0.00     0.260 C 
HETATM   28  O3  UNL     1       7.786  60.450  22.657  1.00  0.00    -0.267 OA
HETATM   29  N5  UNL     1       6.153  61.293  21.291  1.00  0.00    -0.344 N 
HETATM   30  C18 UNL     1       5.138  60.386  21.783  1.00  0.00     0.156 C 
HETATM   31  C22 UNL     1       5.753  62.242  20.273  1.00  0.00     0.156 C 
HETATM   32  C19 UNL     1       3.968  60.436  20.811  1.00  0.00     0.291 C 
HETATM   33  N6  UNL     1       3.421  61.747  20.636  1.00  0.00     0.087 N 
HETATM   34  C20 UNL     1       2.725  61.760  19.348  1.00  0.00     0.310 C 
HETATM   35  C21 UNL     1       4.383  62.808  20.591  1.00  0.00     0.291 C 
ENDBRANCH  10  27
BRANCH   5  36
HETATM   36  C7  UNL     1      11.857  64.945  18.869  1.00  0.00     0.138 C 
BRANCH  36  37
HETATM   37  C8  UNL     1      13.291  64.620  19.170  1.00  0.00     0.020 C 
BRANCH  37  38
HETATM   38  C9  UNL     1      14.115  65.865  19.213  1.00  0.00     0.002 C 
BRANCH  38  39
HETATM   39  C10 UNL     1      13.738  66.785  18.092  1.00  0.00     0.000 C 
BRANCH  39  40
HETATM   40  C11 UNL     1      14.113  68.192  18.546  1.00  0.00     0.001 C 
BRANCH  40  41
HETATM   41  C12 UNL     1      15.251  68.168  19.532  1.00  0.00     0.010 C 
BRANCH  41  42
HETATM   42  C13 UNL     1      16.556  68.598  18.897  1.00  0.00     0.113 C 
BRANCH  42  43
HETATM   43  C14 UNL     1      17.590  67.618  19.302  1.00  0.00     0.172 C 
HETATM   44  O1  UNL     1      17.856  67.455  20.509  1.00  0.00    -0.648 OA
HETATM   45  O2  UNL     1      18.255  66.889  18.335  1.00  0.00    -0.648 OA
ENDBRANCH  42  43
ENDBRANCH  41  42
ENDBRANCH  40  41
ENDBRANCH  39  40
ENDBRANCH  38  39
ENDBRANCH  37  38
ENDBRANCH  36  37
ENDBRANCH   5  36
TORSDOF 12
ENDMDL
