MODEL 1
REMARK VINA RESULT: -7.480179087      0.000      0.000
REMARK  7 active torsions:
REMARK  status: ('A' for Active; 'I' for Inactive)
REMARK    1  A    between atoms: N1_1  and  C1_4 
REMARK    2  A    between atoms: C2_7  and  C3_8 
REMARK    3  A    between atoms: C3_8  and  N3_9 
REMARK    4  A    between atoms: C3_8  and  N4_13 
REMARK    5  A    between atoms: N4_13  and  C4_15 
REMARK    6  A    between atoms: C5_18  and  N6_19 
REMARK    7  A    between atoms: C6_23  and  C7_24 
ROOT
HETATM    1  C3  UNL     1      17.089  76.979  27.517  1.00  0.00     0.361 C 
ENDROOT
BRANCH   1   2
HETATM    2  C2  UNL     1      18.058  75.868  27.304  1.00  0.00     0.212 A 
HETATM    3  N2  UNL     1      19.304  75.831  27.800  1.00  0.00    -0.167 N 
HETATM    4  C1  UNL     1      19.827  74.665  27.371  1.00  0.00     0.698 A 
ATOM      5  H2  UNL     1      19.759  76.537  28.380  1.00  0.00     0.186 HD
HETATM    6  N8  UNL     1      18.884  74.052  26.640  1.00  0.00    -0.090 N 
HETATM    7  O2  UNL     1      17.805  74.803  26.608  1.00  0.00    -0.205 OA
ATOM      8  H8  UNL     1      18.988  73.147  26.181  1.00  0.00     0.213 HD
BRANCH   4   9
HETATM    9  N1  UNL     1      21.032  74.252  27.642  1.00  0.00    -0.233 N 
ATOM     10  H12 UNL     1      21.895  74.795  27.662  1.00  0.00     0.174 HD
ATOM     11  H11 UNL     1      21.274  73.290  27.880  1.00  0.00     0.174 HD
ENDBRANCH   4   9
ENDBRANCH   1   2
BRANCH   1  12
HETATM   12  N3  UNL     1      15.859  76.430  28.085  1.00  0.00    -0.051 N 
ATOM     13  H33 UNL     1      15.372  77.100  28.681  1.00  0.00     0.277 HD
ATOM     14  H32 UNL     1      15.128  76.306  27.385  1.00  0.00     0.277 HD
ATOM     15  H31 UNL     1      16.080  75.563  28.575  1.00  0.00     0.277 HD
ENDBRANCH   1  12
BRANCH   1  16
HETATM   16  N4  UNL     1      16.800  77.578  26.231  1.00  0.00    -0.341 N 
ATOM     17  H4  UNL     1      17.503  77.532  25.495  1.00  0.00     0.163 HD
BRANCH  16  18
HETATM   18  C4  UNL     1      15.532  78.244  25.958  1.00  0.00     0.127 A 
HETATM   19  N5  UNL     1      15.246  79.403  26.482  1.00  0.00    -0.322 N 
HETATM   20  C5  UNL     1      14.075  79.972  26.195  1.00  0.00     0.144 A 
ATOM     21  H5  UNL     1      15.908  79.868  27.103  1.00  0.00     0.169 HD
HETATM   22  S1  UNL     1      13.344  78.847  25.151  1.00  0.00    -0.045 SA
HETATM   23  C6  UNL     1      14.613  77.665  25.134  1.00  0.00     0.117 A 
BRANCH  20  24
HETATM   24  N6  UNL     1      13.625  81.132  26.634  1.00  0.00    -0.380 N 
ATOM     25  H62 UNL     1      12.969  81.333  27.387  1.00  0.00     0.158 HD
ATOM     26  H61 UNL     1      13.865  82.058  26.281  1.00  0.00     0.158 HD
ENDBRANCH  20  24
BRANCH  23  27
HETATM   27  C7  UNL     1      14.579  76.414  24.387  1.00  0.00     0.275 C 
HETATM   28  N7  UNL     1      15.815  75.779  24.008  1.00  0.00    -0.057 NA
HETATM   29  O1  UNL     1      13.526  75.849  24.050  1.00  0.00    -0.270 OA
ENDBRANCH  23  27
ENDBRANCH  16  18
ENDBRANCH   1  16
TORSDOF 7
ENDMDL
MODEL 2
REMARK VINA RESULT: -7.438533083      2.215      2.674
REMARK  7 active torsions:
REMARK  status: ('A' for Active; 'I' for Inactive)
REMARK    1  A    between atoms: N1_1  and  C1_4 
REMARK    2  A    between atoms: C2_7  and  C3_8 
REMARK    3  A    between atoms: C3_8  and  N3_9 
REMARK    4  A    between atoms: C3_8  and  N4_13 
REMARK    5  A    between atoms: N4_13  and  C4_15 
REMARK    6  A    between atoms: C5_18  and  N6_19 
REMARK    7  A    between atoms: C6_23  and  C7_24 
ROOT
HETATM    1  C3  UNL     1      17.084  75.815  27.623  1.00  0.00     0.361 C 
ENDROOT
BRANCH   1   2
HETATM    2  C2  UNL     1      17.581  75.967  29.019  1.00  0.00     0.212 A 
HETATM    3  N2  UNL     1      17.108  75.294  30.078  1.00  0.00    -0.167 N 
HETATM    4  C1  UNL     1      17.829  75.729  31.131  1.00  0.00     0.698 A 
ATOM      5  H2  UNL     1      16.361  74.599  30.086  1.00  0.00     0.186 HD
HETATM    6  N8  UNL     1      18.699  76.639  30.668  1.00  0.00    -0.090 N 
HETATM    7  O2  UNL     1      18.534  76.774  29.370  1.00  0.00    -0.205 OA
ATOM      8  H8  UNL     1      19.380  77.146  31.233  1.00  0.00     0.213 HD
BRANCH   4   9
HETATM    9  N1  UNL     1      17.673  75.313  32.355  1.00  0.00    -0.233 N 
ATOM     10  H12 UNL     1      17.829  75.828  33.222  1.00  0.00     0.174 HD
ATOM     11  H11 UNL     1      17.361  74.376  32.612  1.00  0.00     0.174 HD
ENDBRANCH   4   9
ENDBRANCH   1   2
BRANCH   1  12
HETATM   12  N3  UNL     1      17.912  74.829  26.931  1.00  0.00    -0.051 N 
ATOM     13  H33 UNL     1      18.888  74.865  27.225  1.00  0.00     0.277 HD
ATOM     14  H32 UNL     1      17.710  73.874  27.227  1.00  0.00     0.277 HD
ATOM     15  H31 UNL     1      17.803  74.955  25.925  1.00  0.00     0.277 HD
ENDBRANCH   1  12
BRANCH   1  16
HETATM   16  N4  UNL     1      17.206  77.096  26.959  1.00  0.00    -0.341 N 
ATOM     17  H4  UNL     1      18.136  77.476  26.786  1.00  0.00     0.163 HD
BRANCH  16  18
HETATM   18  C4  UNL     1      16.040  77.858  26.532  1.00  0.00     0.127 A 
HETATM   19  N5  UNL     1      15.722  78.990  27.095  1.00  0.00    -0.322 N 
HETATM   20  C5  UNL     1      14.649  79.650  26.662  1.00  0.00     0.144 A 
ATOM     21  H5  UNL     1      16.288  79.365  27.856  1.00  0.00     0.169 HD
HETATM   22  S1  UNL     1      14.057  78.654  25.418  1.00  0.00    -0.045 SA
HETATM   23  C6  UNL     1      15.251  77.400  25.517  1.00  0.00     0.117 A 
BRANCH  20  24
HETATM   24  N6  UNL     1      14.186  80.800  27.114  1.00  0.00    -0.380 N 
ATOM     25  H62 UNL     1      13.683  81.007  27.977  1.00  0.00     0.158 HD
ATOM     26  H61 UNL     1      14.252  81.711  26.660  1.00  0.00     0.158 HD
ENDBRANCH  20  24
BRANCH  23  27
HETATM   27  C7  UNL     1      15.288  76.212  24.673  1.00  0.00     0.275 C 
HETATM   28  N7  UNL     1      14.054  75.597  24.258  1.00  0.00    -0.057 NA
HETATM   29  O1  UNL     1      16.343  75.687  24.281  1.00  0.00    -0.270 OA
ENDBRANCH  23  27
ENDBRANCH  16  18
ENDBRANCH   1  16
TORSDOF 7
ENDMDL
MODEL 3
REMARK VINA RESULT: -7.433058122      2.571      3.557
REMARK  7 active torsions:
REMARK  status: ('A' for Active; 'I' for Inactive)
REMARK    1  A    between atoms: N1_1  and  C1_4 
REMARK    2  A    between atoms: C2_7  and  C3_8 
REMARK    3  A    between atoms: C3_8  and  N3_9 
REMARK    4  A    between atoms: C3_8  and  N4_13 
REMARK    5  A    between atoms: N4_13  and  C4_15 
REMARK    6  A    between atoms: C5_18  and  N6_19 
REMARK    7  A    between atoms: C6_23  and  C7_24 
ROOT
HETATM    1  C3  UNL     1      15.105  75.643  24.446  1.00  0.00     0.361 C 
ENDROOT
BRANCH   1   2
HETATM    2  C2  UNL     1      16.098  74.541  24.587  1.00  0.00     0.212 A 
HETATM    3  N2  UNL     1      16.679  73.897  23.565  1.00  0.00    -0.167 N 
HETATM    4  C1  UNL     1      17.498  72.988  24.132  1.00  0.00     0.698 A 
ATOM      5  H2  UNL     1      16.533  74.060  22.568  1.00  0.00     0.186 HD
HETATM    6  N8  UNL     1      17.377  73.120  25.461  1.00  0.00    -0.090 N 
HETATM    7  O2  UNL     1      16.515  74.077  25.725  1.00  0.00    -0.205 OA
ATOM      8  H8  UNL     1      17.876  72.566  26.157  1.00  0.00     0.213 HD
BRANCH   4   9
HETATM    9  N1  UNL     1      18.249  72.156  23.469  1.00  0.00    -0.233 N 
ATOM     10  H12 UNL     1      18.630  72.261  22.529  1.00  0.00     0.174 HD
ATOM     11  H11 UNL     1      18.563  71.252  23.823  1.00  0.00     0.174 HD
ENDBRANCH   4   9
ENDBRANCH   1   2
BRANCH   1  12
HETATM   12  N3  UNL     1      15.755  76.784  23.802  1.00  0.00    -0.051 N 
ATOM     13  H33 UNL     1      16.111  76.557  22.874  1.00  0.00     0.277 HD
ATOM     14  H32 UNL     1      15.090  77.506  23.526  1.00  0.00     0.277 HD
ATOM     15  H31 UNL     1      16.482  77.142  24.422  1.00  0.00     0.277 HD
ENDBRANCH   1  12
BRANCH   1  16
HETATM   16  N4  UNL     1      14.664  76.025  25.770  1.00  0.00    -0.341 N 
ATOM     17  H4  UNL     1      14.609  75.313  26.498  1.00  0.00     0.163 HD
BRANCH  16  18
HETATM   18  C4  UNL     1      14.296  77.398  26.095  1.00  0.00     0.127 A 
HETATM   19  N5  UNL     1      13.086  77.842  25.900  1.00  0.00    -0.322 N 
HETATM   20  C5  UNL     1      12.800  79.104  26.219  1.00  0.00     0.144 A 
ATOM     21  H5  UNL     1      12.368  77.233  25.508  1.00  0.00     0.169 HD
HETATM   22  S1  UNL     1      14.277  79.696  26.818  1.00  0.00    -0.045 SA
HETATM   23  C6  UNL     1      15.219  78.253  26.622  1.00  0.00     0.117 A 
BRANCH  20  24
HETATM   24  N6  UNL     1      11.638  79.714  26.089  1.00  0.00    -0.380 N 
ATOM     25  H62 UNL     1      10.823  79.702  26.702  1.00  0.00     0.158 HD
ATOM     26  H61 UNL     1      11.345  80.323  25.326  1.00  0.00     0.158 HD
ENDBRANCH  20  24
BRANCH  23  27
HETATM   27  C7  UNL     1      16.628  78.121  26.971  1.00  0.00     0.275 C 
HETATM   28  N7  UNL     1      17.288  79.188  27.677  1.00  0.00    -0.057 NA
HETATM   29  O1  UNL     1      17.309  77.121  26.690  1.00  0.00    -0.270 OA
ENDBRANCH  23  27
ENDBRANCH  16  18
ENDBRANCH   1  16
TORSDOF 7
ENDMDL
MODEL 4
REMARK VINA RESULT: -7.422339591      2.709      4.828
REMARK  7 active torsions:
REMARK  status: ('A' for Active; 'I' for Inactive)
REMARK    1  A    between atoms: N1_1  and  C1_4 
REMARK    2  A    between atoms: C2_7  and  C3_8 
REMARK    3  A    between atoms: C3_8  and  N3_9 
REMARK    4  A    between atoms: C3_8  and  N4_13 
REMARK    5  A    between atoms: N4_13  and  C4_15 
REMARK    6  A    between atoms: C5_18  and  N6_19 
REMARK    7  A    between atoms: C6_23  and  C7_24 
ROOT
HETATM    1  C3  UNL     1      15.923  78.331  27.321  1.00  0.00     0.361 C 
ENDROOT
BRANCH   1   2
HETATM    2  C2  UNL     1      15.363  79.621  26.828  1.00  0.00     0.212 A 
HETATM    3  N2  UNL     1      15.834  80.310  25.778  1.00  0.00    -0.167 N 
HETATM    4  C1  UNL     1      15.047  81.401  25.682  1.00  0.00     0.698 A 
ATOM      5  H2  UNL     1      16.621  80.061  25.178  1.00  0.00     0.186 HD
HETATM    6  N8  UNL     1      14.142  81.326  26.670  1.00  0.00    -0.090 N 
HETATM    7  O2  UNL     1      14.349  80.228  27.364  1.00  0.00    -0.205 OA
ATOM      8  H8  UNL     1      13.410  82.012  26.853  1.00  0.00     0.213 HD
BRANCH   4   9
HETATM    9  N1  UNL     1      15.180  82.329  24.779  1.00  0.00    -0.233 N 
ATOM     10  H12 UNL     1      15.528  83.280  24.898  1.00  0.00     0.174 HD
ATOM     11  H11 UNL     1      14.940  82.217  23.794  1.00  0.00     0.174 HD
ENDBRANCH   4   9
ENDBRANCH   1   2
BRANCH   1  12
HETATM   12  N3  UNL     1      17.016  77.924  26.439  1.00  0.00    -0.051 N 
ATOM     13  H33 UNL     1      17.405  78.706  25.914  1.00  0.00     0.277 HD
ATOM     14  H32 UNL     1      17.857  77.667  26.955  1.00  0.00     0.277 HD
ATOM     15  H31 UNL     1      16.687  77.173  25.833  1.00  0.00     0.277 HD
ENDBRANCH   1  12
BRANCH   1  16
HETATM   16  N4  UNL     1      14.872  77.337  27.275  1.00  0.00    -0.341 N 
ATOM     17  H4  UNL     1      14.827  76.631  28.009  1.00  0.00     0.163 HD
BRANCH  16  18
HETATM   18  C4  UNL     1      13.876  77.315  26.211  1.00  0.00     0.127 A 
HETATM   19  N5  UNL     1      12.813  78.068  26.257  1.00  0.00    -0.322 N 
HETATM   20  C5  UNL     1      11.937  78.015  25.255  1.00  0.00     0.144 A 
ATOM     21  H5  UNL     1      12.654  78.690  27.050  1.00  0.00     0.169 HD
HETATM   22  S1  UNL     1      12.623  76.869  24.202  1.00  0.00    -0.045 SA
HETATM   23  C6  UNL     1      14.043  76.502  25.128  1.00  0.00     0.117 A 
BRANCH  20  24
HETATM   24  N6  UNL     1      10.816  78.701  25.139  1.00  0.00    -0.380 N 
ATOM     25  H62 UNL     1      10.592  79.642  25.462  1.00  0.00     0.158 HD
ATOM     26  H61 UNL     1       9.952  78.397  24.692  1.00  0.00     0.158 HD
ENDBRANCH  20  24
BRANCH  23  27
HETATM   27  C7  UNL     1      15.073  75.548  24.736  1.00  0.00     0.275 C 
HETATM   28  N7  UNL     1      16.155  75.259  25.641  1.00  0.00    -0.057 NA
HETATM   29  O1  UNL     1      15.073  74.956  23.645  1.00  0.00    -0.270 OA
ENDBRANCH  23  27
ENDBRANCH  16  18
ENDBRANCH   1  16
TORSDOF 7
ENDMDL
MODEL 5
REMARK VINA RESULT: -7.362995540      1.577      1.893
REMARK  7 active torsions:
REMARK  status: ('A' for Active; 'I' for Inactive)
REMARK    1  A    between atoms: N1_1  and  C1_4 
REMARK    2  A    between atoms: C2_7  and  C3_8 
REMARK    3  A    between atoms: C3_8  and  N3_9 
REMARK    4  A    between atoms: C3_8  and  N4_13 
REMARK    5  A    between atoms: N4_13  and  C4_15 
REMARK    6  A    between atoms: C5_18  and  N6_19 
REMARK    7  A    between atoms: C6_23  and  C7_24 
ROOT
HETATM    1  C3  UNL     1      17.266  76.124  28.554  1.00  0.00     0.361 C 
ENDROOT
BRANCH   1   2
HETATM    2  C2  UNL     1      18.204  75.357  27.686  1.00  0.00     0.212 A 
HETATM    3  N2  UNL     1      17.832  74.491  26.733  1.00  0.00    -0.167 N 
HETATM    4  C1  UNL     1      18.980  74.028  26.199  1.00  0.00     0.698 A 
ATOM      5  H2  UNL     1      16.880  74.236  26.467  1.00  0.00     0.186 HD
HETATM    6  N8  UNL     1      19.989  74.629  26.848  1.00  0.00    -0.090 N 
HETATM    7  O2  UNL     1      19.497  75.441  27.757  1.00  0.00    -0.205 OA
ATOM      8  H8  UNL     1      20.981  74.479  26.664  1.00  0.00     0.213 HD
BRANCH   4   9
HETATM    9  N1  UNL     1      19.047  73.158  25.233  1.00  0.00    -0.233 N 
ATOM     10  H12 UNL     1      18.297  72.587  24.844  1.00  0.00     0.174 HD
ATOM     11  H11 UNL     1      19.899  72.928  24.720  1.00  0.00     0.174 HD
ENDBRANCH   4   9
ENDBRANCH   1   2
BRANCH   1  12
HETATM   12  N3  UNL     1      17.070  75.389  29.803  1.00  0.00    -0.051 N 
ATOM     13  H33 UNL     1      17.604  74.520  29.830  1.00  0.00     0.277 HD
ATOM     14  H32 UNL     1      17.509  75.850  30.599  1.00  0.00     0.277 HD
ATOM     15  H31 UNL     1      16.071  75.237  29.942  1.00  0.00     0.277 HD
ENDBRANCH   1  12
BRANCH   1  16
HETATM   16  N4  UNL     1      16.001  76.238  27.860  1.00  0.00    -0.341 N 
ATOM     17  H4  UNL     1      15.280  75.537  28.027  1.00  0.00     0.163 HD
BRANCH  16  18
HETATM   18  C4  UNL     1      15.728  77.325  26.928  1.00  0.00     0.127 A 
HETATM   19  N5  UNL     1      15.996  78.565  27.231  1.00  0.00    -0.322 N 
HETATM   20  C5  UNL     1      15.732  79.520  26.341  1.00  0.00     0.144 A 
ATOM     21  H5  UNL     1      16.402  78.800  28.137  1.00  0.00     0.169 HD
HETATM   22  S1  UNL     1      15.086  78.657  25.026  1.00  0.00    -0.045 SA
HETATM   23  C6  UNL     1      15.187  77.064  25.703  1.00  0.00     0.117 A 
BRANCH  20  24
HETATM   24  N6  UNL     1      15.937  80.816  26.479  1.00  0.00    -0.380 N 
ATOM     25  H62 UNL     1      16.621  81.310  27.053  1.00  0.00     0.158 HD
ATOM     26  H61 UNL     1      15.429  81.572  26.021  1.00  0.00     0.158 HD
ENDBRANCH  20  24
BRANCH  23  27
HETATM   27  C7  UNL     1      14.766  75.841  25.030  1.00  0.00     0.275 C 
HETATM   28  N7  UNL     1      13.764  75.907  23.998  1.00  0.00    -0.057 NA
HETATM   29  O1  UNL     1      15.231  74.721  25.299  1.00  0.00    -0.270 OA
ENDBRANCH  23  27
ENDBRANCH  16  18
ENDBRANCH   1  16
TORSDOF 7
ENDMDL
