MODEL 1
REMARK VINA RESULT: -6.229485649      0.000      0.000
REMARK  2 active torsions:
REMARK  status: ('A' for Active; 'I' for Inactive)
REMARK    1  A    between atoms: C2_2  and  N1_4 
REMARK    2  A    between atoms: N1_4  and  N2_6 
ROOT
HETATM    1  N2  UNL     1      54.666  79.403  60.717  1.00  0.00    -0.313 N 
ATOM      2  H2  UNL     1      54.890  80.382  60.890  1.00  0.00     0.186 HD
HETATM    3  C4  UNL     1      55.590  78.536  60.759  1.00  0.00     0.006 C 
HETATM    4  C5  UNL     1      55.295  77.122  60.515  1.00  0.00     0.084 C 
HETATM    5  C6  UNL     1      56.480  76.228  60.454  1.00  0.00     0.277 C 
HETATM    6  N3  UNL     1      57.696  76.776  60.943  1.00  0.00     0.084 N 
HETATM    7  C7  UNL     1      57.921  76.621  62.346  1.00  0.00     0.309 C 
HETATM    8  C8  UNL     1      57.939  78.084  60.429  1.00  0.00     0.277 C 
HETATM    9  C9  UNL     1      56.975  79.041  61.071  1.00  0.00     0.084 C 
ENDROOT
BRANCH   1  10
HETATM   10  N1  UNL     1      53.365  79.044  60.441  1.00  0.00    -0.333 N 
ATOM     11  H1  UNL     1      52.978  78.179  60.816  1.00  0.00     0.180 HD
BRANCH  10  12
HETATM   12  C2  UNL     1      52.541  79.924  59.599  1.00  0.00     0.091 C 
HETATM   13  C1  UNL     1      53.397  80.406  58.442  1.00  0.00     0.033 C 
HETATM   14  C3  UNL     1      51.458  79.013  59.016  1.00  0.00     0.033 C 
ENDBRANCH  10  12
ENDBRANCH   1  10
TORSDOF 2
ENDMDL
MODEL 2
REMARK VINA RESULT: -6.050709456      1.327      5.005
REMARK  2 active torsions:
REMARK  status: ('A' for Active; 'I' for Inactive)
REMARK    1  A    between atoms: C2_2  and  N1_4 
REMARK    2  A    between atoms: N1_4  and  N2_6 
ROOT
HETATM    1  N2  UNL     1      55.667  78.505  61.303  1.00  0.00    -0.313 N 
ATOM      2  H2  UNL     1      56.142  79.225  61.845  1.00  0.00     0.186 HD
HETATM    3  C4  UNL     1      54.687  78.825  60.565  1.00  0.00     0.006 C 
HETATM    4  C5  UNL     1      53.986  77.809  59.776  1.00  0.00     0.084 C 
HETATM    5  C6  UNL     1      52.772  78.285  59.064  1.00  0.00     0.277 C 
HETATM    6  N3  UNL     1      52.617  79.694  58.975  1.00  0.00     0.084 N 
HETATM    7  C7  UNL     1      53.252  80.314  57.855  1.00  0.00     0.309 C 
HETATM    8  C8  UNL     1      52.833  80.336  60.230  1.00  0.00     0.277 C 
HETATM    9  C9  UNL     1      54.299  80.281  60.553  1.00  0.00     0.084 C 
ENDROOT
BRANCH   1  10
HETATM   10  N1  UNL     1      56.100  77.200  61.384  1.00  0.00    -0.333 N 
ATOM     11  H1  UNL     1      55.502  76.483  61.793  1.00  0.00     0.180 HD
BRANCH  10  12
HETATM   12  C2  UNL     1      57.434  76.853  60.873  1.00  0.00     0.091 C 
HETATM   13  C1  UNL     1      58.156  78.143  60.528  1.00  0.00     0.033 C 
HETATM   14  C3  UNL     1      58.165  76.228  62.063  1.00  0.00     0.033 C 
ENDBRANCH  10  12
ENDBRANCH   1  10
TORSDOF 2
ENDMDL
MODEL 3
REMARK VINA RESULT: -6.047168464      1.413      5.105
REMARK  2 active torsions:
REMARK  status: ('A' for Active; 'I' for Inactive)
REMARK    1  A    between atoms: C2_2  and  N1_4 
REMARK    2  A    between atoms: N1_4  and  N2_6 
ROOT
HETATM    1  N2  UNL     1      55.905  78.752  61.326  1.00  0.00    -0.313 N 
ATOM      2  H2  UNL     1      56.320  79.511  61.866  1.00  0.00     0.186 HD
HETATM    3  C4  UNL     1      54.904  78.990  60.586  1.00  0.00     0.006 C 
HETATM    4  C5  UNL     1      54.290  77.917  59.799  1.00  0.00     0.084 C 
HETATM    5  C6  UNL     1      53.043  78.290  59.083  1.00  0.00     0.277 C 
HETATM    6  N3  UNL     1      52.774  79.681  58.988  1.00  0.00     0.084 N 
HETATM    7  C7  UNL     1      53.360  80.347  57.867  1.00  0.00     0.309 C 
HETATM    8  C8  UNL     1      52.935  80.344  60.241  1.00  0.00     0.277 C 
HETATM    9  C9  UNL     1      54.400  80.409  60.567  1.00  0.00     0.084 C 
ENDROOT
BRANCH   1  10
HETATM   10  N1  UNL     1      56.443  77.487  61.413  1.00  0.00    -0.333 N 
ATOM     11  H1  UNL     1      55.848  76.666  61.306  1.00  0.00     0.180 HD
BRANCH  10  12
HETATM   12  C2  UNL     1      57.884  77.334  61.661  1.00  0.00     0.091 C 
HETATM   13  C1  UNL     1      58.234  75.864  61.514  1.00  0.00     0.033 C 
HETATM   14  C3  UNL     1      58.566  78.082  60.513  1.00  0.00     0.033 C 
ENDBRANCH  10  12
ENDBRANCH   1  10
TORSDOF 2
ENDMDL
MODEL 4
REMARK VINA RESULT: -6.021025530      0.348      1.060
REMARK  2 active torsions:
REMARK  status: ('A' for Active; 'I' for Inactive)
REMARK    1  A    between atoms: C2_2  and  N1_4 
REMARK    2  A    between atoms: N1_4  and  N2_6 
ROOT
HETATM    1  N2  UNL     1      54.621  79.254  60.667  1.00  0.00    -0.313 N 
ATOM      2  H2  UNL     1      54.795  80.244  60.840  1.00  0.00     0.186 HD
HETATM    3  C4  UNL     1      55.582  78.431  60.737  1.00  0.00     0.006 C 
HETATM    4  C5  UNL     1      55.358  77.004  60.493  1.00  0.00     0.084 C 
HETATM    5  C6  UNL     1      56.584  76.165  60.467  1.00  0.00     0.277 C 
HETATM    6  N3  UNL     1      57.761  76.770  60.982  1.00  0.00     0.084 N 
HETATM    7  C7  UNL     1      57.958  76.632  62.390  1.00  0.00     0.309 C 
HETATM    8  C8  UNL     1      57.957  78.085  60.466  1.00  0.00     0.277 C 
HETATM    9  C9  UNL     1      56.934  79.000  61.079  1.00  0.00     0.084 C 
ENDROOT
BRANCH   1  10
HETATM   10  N1  UNL     1      53.345  78.835  60.361  1.00  0.00    -0.333 N 
ATOM     11  H1  UNL     1      52.760  78.402  61.075  1.00  0.00     0.180 HD
BRANCH  10  12
HETATM   12  C2  UNL     1      52.836  79.020  58.994  1.00  0.00     0.091 C 
HETATM   13  C1  UNL     1      51.322  79.105  59.063  1.00  0.00     0.033 C 
HETATM   14  C3  UNL     1      53.350  80.396  58.563  1.00  0.00     0.033 C 
ENDBRANCH  10  12
ENDBRANCH   1  10
TORSDOF 2
ENDMDL
MODEL 5
REMARK VINA RESULT: -5.843744124      0.908      2.099
REMARK  2 active torsions:
REMARK  status: ('A' for Active; 'I' for Inactive)
REMARK    1  A    between atoms: C2_2  and  N1_4 
REMARK    2  A    between atoms: N1_4  and  N2_6 
ROOT
HETATM    1  N2  UNL     1      54.085  77.375  60.227  1.00  0.00    -0.313 N 
ATOM      2  H2  UNL     1      53.826  76.457  59.869  1.00  0.00     0.186 HD
HETATM    3  C4  UNL     1      55.253  77.558  60.684  1.00  0.00     0.006 C 
HETATM    4  C5  UNL     1      55.651  78.869  61.204  1.00  0.00     0.084 C 
HETATM    5  C6  UNL     1      56.995  78.918  61.837  1.00  0.00     0.277 C 
HETATM    6  N3  UNL     1      57.841  77.805  61.586  1.00  0.00     0.084 N 
HETATM    7  C7  UNL     1      58.634  77.889  60.401  1.00  0.00     0.309 C 
HETATM    8  C8  UNL     1      57.163  76.565  61.778  1.00  0.00     0.277 C 
HETATM    9  C9  UNL     1      56.182  76.373  60.656  1.00  0.00     0.084 C 
ENDROOT
BRANCH   1  10
HETATM   10  N1  UNL     1      53.160  78.396  60.207  1.00  0.00    -0.333 N 
ATOM     11  H1  UNL     1      52.788  78.771  61.079  1.00  0.00     0.180 HD
BRANCH  10  12
HETATM   12  C2  UNL     1      52.717  78.938  58.914  1.00  0.00     0.091 C 
HETATM   13  C1  UNL     1      51.211  79.124  58.973  1.00  0.00     0.033 C 
HETATM   14  C3  UNL     1      53.344  80.331  58.832  1.00  0.00     0.033 C 
ENDBRANCH  10  12
ENDBRANCH   1  10
TORSDOF 2
ENDMDL
