MODEL 1
REMARK VINA RESULT: -10.350131851      0.000      0.000
REMARK  3 active torsions:
REMARK  status: ('A' for Active; 'I' for Inactive)
REMARK    1  A    between atoms: C4_5  and  N1_6 
REMARK    2  A    between atoms: N1_6  and  C5_8 
REMARK    3  A    between atoms: C8_12  and  C9_13 
ROOT
HETATM    1  C5  UNL     1      50.211  92.156  34.819  1.00  0.00     0.155 A 
HETATM    2  O1  UNL     1      50.227  93.297  34.199  1.00  0.00    -0.297 OA
HETATM    3  C6  UNL     1      49.061  93.885  34.190  1.00  0.00     0.062 A 
HETATM    4  C7  UNL     1      48.190  93.030  34.884  1.00  0.00    -0.017 A 
HETATM    5  C8  UNL     1      48.881  91.939  35.289  1.00  0.00     0.006 A 
HETATM    6  C15 UNL     1      46.776  93.324  35.123  1.00  0.00     0.042 C 
HETATM    7  C16 UNL     1      46.455  94.817  34.949  1.00  0.00     0.005 C 
HETATM    8  C17 UNL     1      47.448  95.713  35.619  1.00  0.00     0.001 C 
HETATM    9  C18 UNL     1      48.495  96.231  34.660  1.00  0.00     0.006 C 
HETATM   10  C19 UNL     1      48.747  95.194  33.564  1.00  0.00     0.066 C 
ENDROOT
BRANCH   1  11
HETATM   11  N1  UNL     1      51.276  91.254  35.022  1.00  0.00    -0.334 N 
ATOM     12  H1  UNL     1      51.529  91.046  35.988  1.00  0.00     0.168 HD
BRANCH  11  13
HETATM   13  C4  UNL     1      52.021  90.613  34.014  1.00  0.00     0.073 A 
HETATM   14  C3  UNL     1      52.817  91.250  33.092  1.00  0.00     0.036 A 
HETATM   15  C2  UNL     1      53.508  90.528  32.144  1.00  0.00     0.044 A 
HETATM   16  C1  UNL     1      53.442  89.161  32.067  1.00  0.00     0.119 A 
HETATM   17  F1  UNL     1      54.107  88.431  31.150  1.00  0.00    -0.206 F 
HETATM   18  C21 UNL     1      52.647  88.532  32.987  1.00  0.00     0.086 A 
HETATM   19  C20 UNL     1      51.965  89.228  33.921  1.00  0.00     0.145 A 
HETATM   20  F2  UNL     1      51.194  88.509  34.800  1.00  0.00    -0.204 F 
ENDBRANCH  11  13
ENDBRANCH   1  11
BRANCH   5  21
HETATM   21  C9  UNL     1      48.511  90.781  36.058  1.00  0.00     0.023 C 
HETATM   22  C10 UNL     1      47.471  89.848  35.597  1.00  0.00     0.009 C 
HETATM   23  C11 UNL     1      46.242  89.765  36.511  1.00  0.00     0.001 C 
HETATM   24  C12 UNL     1      46.659  89.259  37.892  1.00  0.00     0.000 C 
HETATM   25  C13 UNL     1      48.063  89.791  38.225  1.00  0.00     0.001 C 
HETATM   26  C14 UNL     1      48.157  91.123  37.513  1.00  0.00     0.009 C 
ENDBRANCH   5  21
TORSDOF 3
ENDMDL
MODEL 2
REMARK VINA RESULT: -10.279082778      1.530      4.270
REMARK  3 active torsions:
REMARK  status: ('A' for Active; 'I' for Inactive)
REMARK    1  A    between atoms: C4_5  and  N1_6 
REMARK    2  A    between atoms: N1_6  and  C5_8 
REMARK    3  A    between atoms: C8_12  and  C9_13 
ROOT
HETATM    1  C5  UNL     1      49.943  91.487  35.362  1.00  0.00     0.155 A 
HETATM    2  O1  UNL     1      49.239  90.447  35.694  1.00  0.00    -0.297 OA
HETATM    3  C6  UNL     1      47.984  90.733  35.910  1.00  0.00     0.062 A 
HETATM    4  C7  UNL     1      47.857  92.115  35.693  1.00  0.00    -0.017 A 
HETATM    5  C8  UNL     1      49.068  92.614  35.350  1.00  0.00     0.006 A 
HETATM    6  C15 UNL     1      46.595  92.847  35.810  1.00  0.00     0.042 C 
HETATM    7  C16 UNL     1      45.374  91.916  35.746  1.00  0.00     0.005 C 
HETATM    8  C17 UNL     1      45.462  90.907  34.646  1.00  0.00     0.001 C 
HETATM    9  C18 UNL     1      45.963  89.567  35.131  1.00  0.00     0.006 C 
HETATM   10  C19 UNL     1      46.924  89.772  36.304  1.00  0.00     0.066 C 
ENDROOT
BRANCH   1  11
HETATM   11  N1  UNL     1      51.319  91.555  35.061  1.00  0.00    -0.334 N 
ATOM     12  H1  UNL     1      51.870  92.246  35.568  1.00  0.00     0.168 HD
BRANCH  11  13
HETATM   13  C4  UNL     1      52.001  90.754  34.124  1.00  0.00     0.073 A 
HETATM   14  C3  UNL     1      52.449  89.475  34.353  1.00  0.00     0.036 A 
HETATM   15  C2  UNL     1      53.107  88.775  33.367  1.00  0.00     0.044 A 
HETATM   16  C1  UNL     1      53.349  89.303  32.125  1.00  0.00     0.119 A 
HETATM   17  F1  UNL     1      53.990  88.640  31.143  1.00  0.00    -0.206 F 
HETATM   18  C21 UNL     1      52.900  90.578  31.903  1.00  0.00     0.086 A 
HETATM   19  C20 UNL     1      52.255  91.274  32.862  1.00  0.00     0.145 A 
HETATM   20  F2  UNL     1      51.845  92.545  32.544  1.00  0.00    -0.204 F 
ENDBRANCH  11  13
ENDBRANCH   1  11
BRANCH   5  21
HETATM   21  C9  UNL     1      49.510  93.933  34.984  1.00  0.00     0.023 C 
HETATM   22  C10 UNL     1      49.337  95.083  35.886  1.00  0.00     0.009 C 
HETATM   23  C11 UNL     1      48.424  96.187  35.341  1.00  0.00     0.001 C 
HETATM   24  C12 UNL     1      49.022  96.764  34.058  1.00  0.00     0.000 C 
HETATM   25  C13 UNL     1      49.734  95.643  33.282  1.00  0.00     0.001 C 
HETATM   26  C14 UNL     1      48.968  94.383  33.619  1.00  0.00     0.009 C 
ENDBRANCH   5  21
TORSDOF 3
ENDMDL
MODEL 3
REMARK VINA RESULT: -10.053815176      3.189      6.462
REMARK  3 active torsions:
REMARK  status: ('A' for Active; 'I' for Inactive)
REMARK    1  A    between atoms: C4_5  and  N1_6 
REMARK    2  A    between atoms: N1_6  and  C5_8 
REMARK    3  A    between atoms: C8_12  and  C9_13 
ROOT
HETATM    1  C5  UNL     1      47.249  91.048  34.768  1.00  0.00     0.155 A 
HETATM    2  O1  UNL     1      46.381  90.448  35.525  1.00  0.00    -0.297 OA
HETATM    3  C6  UNL     1      46.900  89.466  36.211  1.00  0.00     0.062 A 
HETATM    4  C7  UNL     1      48.259  89.423  35.861  1.00  0.00    -0.017 A 
HETATM    5  C8  UNL     1      48.507  90.401  34.958  1.00  0.00     0.006 A 
HETATM    6  C15 UNL     1      49.218  88.471  36.424  1.00  0.00     0.042 C 
HETATM    7  C16 UNL     1      48.713  87.842  37.732  1.00  0.00     0.005 C 
HETATM    8  C17 UNL     1      48.130  88.843  38.678  1.00  0.00     0.001 C 
HETATM    9  C18 UNL     1      46.622  88.910  38.591  1.00  0.00     0.006 C 
HETATM   10  C19 UNL     1      46.176  88.587  37.163  1.00  0.00     0.066 C 
ENDROOT
BRANCH   1  11
HETATM   11  N1  UNL     1      47.048  92.138  33.897  1.00  0.00    -0.334 N 
ATOM     12  H1  UNL     1      46.519  91.958  33.044  1.00  0.00     0.168 HD
BRANCH  11  13
HETATM   13  C4  UNL     1      47.510  93.453  34.096  1.00  0.00     0.073 A 
HETATM   14  C3  UNL     1      48.613  94.005  33.489  1.00  0.00     0.036 A 
HETATM   15  C2  UNL     1      48.981  95.306  33.752  1.00  0.00     0.044 A 
HETATM   16  C1  UNL     1      48.284  96.108  34.619  1.00  0.00     0.119 A 
HETATM   17  F1  UNL     1      48.622  97.382  34.894  1.00  0.00    -0.206 F 
HETATM   18  C21 UNL     1      47.187  95.552  35.221  1.00  0.00     0.086 A 
HETATM   19  C20 UNL     1      46.816  94.279  34.971  1.00  0.00     0.145 A 
HETATM   20  F2  UNL     1      45.703  93.811  35.624  1.00  0.00    -0.204 F 
ENDBRANCH  11  13
ENDBRANCH   1  11
BRANCH   5  21
HETATM   21  C9  UNL     1      49.709  90.835  34.298  1.00  0.00     0.023 C 
HETATM   22  C10 UNL     1      50.427  89.967  33.351  1.00  0.00     0.009 C 
HETATM   23  C11 UNL     1      51.846  89.588  33.788  1.00  0.00     0.001 C 
HETATM   24  C12 UNL     1      52.703  90.848  33.912  1.00  0.00     0.000 C 
HETATM   25  C13 UNL     1      51.826  92.009  34.414  1.00  0.00     0.001 C 
HETATM   26  C14 UNL     1      50.769  91.358  35.279  1.00  0.00     0.009 C 
ENDBRANCH   5  21
TORSDOF 3
ENDMDL
MODEL 4
REMARK VINA RESULT: -9.982822754      1.194      1.221
REMARK  3 active torsions:
REMARK  status: ('A' for Active; 'I' for Inactive)
REMARK    1  A    between atoms: C4_5  and  N1_6 
REMARK    2  A    between atoms: N1_6  and  C5_8 
REMARK    3  A    between atoms: C8_12  and  C9_13 
ROOT
HETATM    1  C5  UNL     1      49.102  91.665  33.728  1.00  0.00     0.155 A 
HETATM    2  O1  UNL     1      49.177  92.917  33.392  1.00  0.00    -0.297 OA
HETATM    3  C6  UNL     1      48.426  93.686  34.134  1.00  0.00     0.062 A 
HETATM    4  C7  UNL     1      47.792  92.837  35.057  1.00  0.00    -0.017 A 
HETATM    5  C8  UNL     1      48.195  91.566  34.826  1.00  0.00     0.006 A 
HETATM    6  C15 UNL     1      46.871  93.302  36.094  1.00  0.00     0.042 C 
HETATM    7  C16 UNL     1      47.011  94.809  36.365  1.00  0.00     0.005 C 
HETATM    8  C17 UNL     1      48.434  95.253  36.486  1.00  0.00     0.001 C 
HETATM    9  C18 UNL     1      48.968  95.836  35.198  1.00  0.00     0.006 C 
HETATM   10  C19 UNL     1      48.288  95.158  34.006  1.00  0.00     0.066 C 
ENDROOT
BRANCH   1  11
HETATM   11  N1  UNL     1      49.766  90.562  33.153  1.00  0.00    -0.334 N 
ATOM     12  H1  UNL     1      49.184  89.793  32.821  1.00  0.00     0.168 HD
BRANCH  11  13
HETATM   13  C4  UNL     1      51.158  90.425  32.994  1.00  0.00     0.073 A 
HETATM   14  C3  UNL     1      51.929  91.144  32.111  1.00  0.00     0.036 A 
HETATM   15  C2  UNL     1      53.287  90.934  32.034  1.00  0.00     0.044 A 
HETATM   16  C1  UNL     1      53.937  90.014  32.816  1.00  0.00     0.119 A 
HETATM   17  F1  UNL     1      55.263  89.789  32.760  1.00  0.00    -0.206 F 
HETATM   18  C21 UNL     1      53.164  89.300  33.693  1.00  0.00     0.086 A 
HETATM   19  C20 UNL     1      51.831  89.496  33.778  1.00  0.00     0.145 A 
HETATM   20  F2  UNL     1      51.142  88.733  34.686  1.00  0.00    -0.204 F 
ENDBRANCH  11  13
ENDBRANCH   1  11
BRANCH   5  21
HETATM   21  C9  UNL     1      47.904  90.318  35.480  1.00  0.00     0.023 C 
HETATM   22  C10 UNL     1      46.524  89.831  35.635  1.00  0.00     0.009 C 
HETATM   23  C11 UNL     1      46.058  89.698  37.089  1.00  0.00     0.001 C 
HETATM   24  C12 UNL     1      46.932  88.679  37.820  1.00  0.00     0.000 C 
HETATM   25  C13 UNL     1      48.370  88.767  37.282  1.00  0.00     0.001 C 
HETATM   26  C14 UNL     1      48.548  90.211  36.870  1.00  0.00     0.009 C 
ENDBRANCH   5  21
TORSDOF 3
ENDMDL
MODEL 5
REMARK VINA RESULT: -9.895800067      2.697      5.712
REMARK  3 active torsions:
REMARK  status: ('A' for Active; 'I' for Inactive)
REMARK    1  A    between atoms: C4_5  and  N1_6 
REMARK    2  A    between atoms: N1_6  and  C5_8 
REMARK    3  A    between atoms: C8_12  and  C9_13 
ROOT
HETATM    1  C5  UNL     1      49.950  91.765  37.128  1.00  0.00     0.155 A 
HETATM    2  O1  UNL     1      49.190  92.736  37.536  1.00  0.00    -0.297 OA
HETATM    3  C6  UNL     1      49.009  93.654  36.625  1.00  0.00     0.062 A 
HETATM    4  C7  UNL     1      49.732  93.231  35.498  1.00  0.00    -0.017 A 
HETATM    5  C8  UNL     1      50.333  92.052  35.783  1.00  0.00     0.006 A 
HETATM    6  C15 UNL     1      49.780  93.969  34.235  1.00  0.00     0.042 C 
HETATM    7  C16 UNL     1      48.632  94.983  34.109  1.00  0.00     0.005 C 
HETATM    8  C17 UNL     1      47.304  94.418  34.504  1.00  0.00     0.001 C 
HETATM    9  C18 UNL     1      46.930  94.766  35.926  1.00  0.00     0.006 C 
HETATM   10  C19 UNL     1      48.196  94.886  36.777  1.00  0.00     0.066 C 
ENDROOT
BRANCH   1  11
HETATM   11  N1  UNL     1      50.360  90.616  37.836  1.00  0.00    -0.334 N 
ATOM     12  H1  UNL     1      51.349  90.374  37.792  1.00  0.00     0.168 HD
BRANCH  11  13
HETATM   13  C4  UNL     1      49.527  89.772  38.597  1.00  0.00     0.073 A 
HETATM   14  C3  UNL     1      48.180  89.594  38.391  1.00  0.00     0.036 A 
HETATM   15  C2  UNL     1      47.455  88.742  39.194  1.00  0.00     0.044 A 
HETATM   16  C1  UNL     1      48.022  88.038  40.224  1.00  0.00     0.119 A 
HETATM   17  F1  UNL     1      47.336  87.200  41.024  1.00  0.00    -0.206 F 
HETATM   18  C21 UNL     1      49.365  88.221  40.425  1.00  0.00     0.086 A 
HETATM   19  C20 UNL     1      50.087  89.053  39.645  1.00  0.00     0.145 A 
HETATM   20  F2  UNL     1      51.425  89.170  39.925  1.00  0.00    -0.204 F 
ENDBRANCH  11  13
ENDBRANCH   1  11
BRANCH   5  21
HETATM   21  C9  UNL     1      51.150  91.161  35.004  1.00  0.00     0.023 C 
HETATM   22  C10 UNL     1      52.320  91.644  34.253  1.00  0.00     0.009 C 
HETATM   23  C11 UNL     1      52.215  91.471  32.734  1.00  0.00     0.001 C 
HETATM   24  C12 UNL     1      52.097  89.986  32.390  1.00  0.00     0.000 C 
HETATM   25  C13 UNL     1      51.293  89.273  33.491  1.00  0.00     0.001 C 
HETATM   26  C14 UNL     1      50.332  90.318  34.015  1.00  0.00     0.009 C 
ENDBRANCH   5  21
TORSDOF 3
ENDMDL
