MODEL 1
REMARK VINA RESULT: -4.292397165      0.000      0.000
REMARK  1 active torsions:
REMARK  status: ('A' for Active; 'I' for Inactive)
REMARK    1  A    between atoms: C4_4  and  O1_5 
ROOT
HETATM    1  C1  UNL     1      32.397  21.483  84.578  1.00  0.00     0.011 C 
HETATM    2  C2  UNL     1      31.017  21.334  85.135  1.00  0.00    -0.002 C 
HETATM    3  C3  UNL     1      30.143  22.546  84.868  1.00  0.00     0.037 C 
HETATM    4  C4  UNL     1      28.774  21.933  85.194  1.00  0.00     0.119 C 
HETATM    5  C5  UNL     1      28.813  20.692  84.350  1.00  0.00     0.048 C 
HETATM    6  C6  UNL     1      30.236  20.200  84.574  1.00  0.00     0.065 C 
HETATM    7  S1  UNL     1      30.949  19.454  83.114  1.00  0.00    -0.092 SA
ENDROOT
BRANCH   4   8
HETATM    8  O1  UNL     1      27.739  22.778  84.925  1.00  0.00    -0.396 OA
ATOM      9  H1  UNL     1      27.270  23.045  85.706  1.00  0.00     0.210 HD
ENDBRANCH   4   8
TORSDOF 1
ENDMDL
MODEL 2
REMARK VINA RESULT: -4.272364242      1.591      2.262
REMARK  1 active torsions:
REMARK  status: ('A' for Active; 'I' for Inactive)
REMARK    1  A    between atoms: C4_4  and  O1_5 
ROOT
HETATM    1  C1  UNL     1      30.642  19.727  83.026  1.00  0.00     0.011 C 
HETATM    2  C2  UNL     1      29.866  20.796  83.728  1.00  0.00    -0.002 C 
HETATM    3  C3  UNL     1      29.009  20.252  84.856  1.00  0.00     0.037 C 
HETATM    4  C4  UNL     1      28.688  21.571  85.572  1.00  0.00     0.119 C 
HETATM    5  C5  UNL     1      30.066  22.146  85.734  1.00  0.00     0.048 C 
HETATM    6  C6  UNL     1      30.697  21.841  84.383  1.00  0.00     0.065 C 
HETATM    7  S1  UNL     1      32.436  21.443  84.506  1.00  0.00    -0.092 SA
ENDROOT
BRANCH   4   8
HETATM    8  O1  UNL     1      28.003  21.388  86.736  1.00  0.00    -0.396 OA
ATOM      9  H1  UNL     1      27.163  20.963  86.605  1.00  0.00     0.210 HD
ENDBRANCH   4   8
TORSDOF 1
ENDMDL
MODEL 3
REMARK VINA RESULT: -3.945970646      1.660      2.199
REMARK  1 active torsions:
REMARK  status: ('A' for Active; 'I' for Inactive)
REMARK    1  A    between atoms: C4_4  and  O1_5 
ROOT
HETATM    1  C1  UNL     1      30.289  23.678  85.066  1.00  0.00     0.011 C 
HETATM    2  C2  UNL     1      29.814  22.297  85.392  1.00  0.00    -0.002 C 
HETATM    3  C3  UNL     1      28.588  21.896  84.592  1.00  0.00     0.037 C 
HETATM    4  C4  UNL     1      28.611  20.385  84.857  1.00  0.00     0.119 C 
HETATM    5  C5  UNL     1      30.029  20.056  84.488  1.00  0.00     0.048 C 
HETATM    6  C6  UNL     1      30.795  21.216  85.107  1.00  0.00     0.065 C 
HETATM    7  S1  UNL     1      32.198  21.724  84.121  1.00  0.00    -0.092 SA
ENDROOT
BRANCH   4   8
HETATM    8  O1  UNL     1      27.663  19.709  84.149  1.00  0.00    -0.396 OA
ATOM      9  H1  UNL     1      27.586  20.014  83.252  1.00  0.00     0.210 HD
ENDBRANCH   4   8
TORSDOF 1
ENDMDL
MODEL 4
REMARK VINA RESULT: -3.928239134      1.744      2.244
REMARK  1 active torsions:
REMARK  status: ('A' for Active; 'I' for Inactive)
REMARK    1  A    between atoms: C4_4  and  O1_5 
ROOT
HETATM    1  C1  UNL     1      30.704  19.450  83.517  1.00  0.00     0.011 C 
HETATM    2  C2  UNL     1      30.439  20.516  84.533  1.00  0.00    -0.002 C 
HETATM    3  C3  UNL     1      31.143  21.822  84.208  1.00  0.00     0.037 C 
HETATM    4  C4  UNL     1      30.381  22.750  85.164  1.00  0.00     0.119 C 
HETATM    5  C5  UNL     1      28.961  22.420  84.806  1.00  0.00     0.048 C 
HETATM    6  C6  UNL     1      29.011  20.905  84.672  1.00  0.00     0.065 C 
HETATM    7  S1  UNL     1      27.941  20.289  83.378  1.00  0.00    -0.092 SA
ENDROOT
BRANCH   4   8
HETATM    8  O1  UNL     1      30.722  24.060  85.012  1.00  0.00    -0.396 OA
ATOM      9  H1  UNL     1      30.597  24.568  85.805  1.00  0.00     0.210 HD
ENDBRANCH   4   8
TORSDOF 1
ENDMDL
MODEL 5
REMARK VINA RESULT: -3.773262916      2.478      3.221
REMARK  1 active torsions:
REMARK  status: ('A' for Active; 'I' for Inactive)
REMARK    1  A    between atoms: C4_4  and  O1_5 
ROOT
HETATM    1  C1  UNL     1      29.796  19.723  82.607  1.00  0.00     0.011 C 
HETATM    2  C2  UNL     1      30.571  20.061  83.841  1.00  0.00    -0.002 C 
HETATM    3  C3  UNL     1      31.752  20.973  83.558  1.00  0.00     0.037 C 
HETATM    4  C4  UNL     1      32.061  21.417  84.995  1.00  0.00     0.119 C 
HETATM    5  C5  UNL     1      30.705  21.875  85.447  1.00  0.00     0.048 C 
HETATM    6  C6  UNL     1      29.800  20.788  84.883  1.00  0.00     0.065 C 
HETATM    7  S1  UNL     1      28.219  21.420  84.336  1.00  0.00    -0.092 SA
ENDROOT
BRANCH   4   8
HETATM    8  O1  UNL     1      33.037  22.367  85.055  1.00  0.00    -0.396 OA
ATOM      9  H1  UNL     1      33.847  22.089  84.644  1.00  0.00     0.210 HD
ENDBRANCH   4   8
TORSDOF 1
ENDMDL
