MODEL 1
REMARK VINA RESULT: -6.241648653      0.000      0.000
REMARK  3 active torsions:
REMARK  status: ('A' for Active; 'I' for Inactive)
REMARK    1  A    between atoms: C4_7  and  C5_8 
REMARK    2  A    between atoms: C5_8  and  O1_9 
REMARK    3  A    between atoms: O1_9  and  S1_10 
ROOT
HETATM    1  N1  UNL     1      34.126  63.749   9.395  1.00  0.00    -0.064 NA
HETATM    2  C1  UNL     1      34.148  62.531  10.139  1.00  0.00     0.188 C 
HETATM    3  N2  UNL     1      33.179  62.193  10.923  1.00  0.00    -0.309 N 
ATOM      4  H2  UNL     1      32.375  62.813  11.014  1.00  0.00     0.167 HD
HETATM    5  C2  UNL     1      33.203  60.955  11.677  1.00  0.00     0.309 C 
HETATM    6  C3  UNL     1      33.837  59.844  10.906  1.00  0.00     0.120 C 
HETATM    7  C4  UNL     1      35.055  60.238  10.146  1.00  0.00     0.115 C 
HETATM    8  N3  UNL     1      35.258  61.649  10.033  1.00  0.00    -0.358 N 
ATOM      9  H3  UNL     1      36.195  62.021   9.876  1.00  0.00     0.162 HD
HETATM   10  N4  UNL     1      33.862  61.227  12.929  1.00  0.00    -0.021 N 
ATOM     11  H41 UNL     1      33.853  62.209  13.204  1.00  0.00     0.283 HD
ATOM     12  H42 UNL     1      34.877  61.131  12.899  1.00  0.00     0.283 HD
HETATM   13  C6  UNL     1      33.199  60.331  13.871  1.00  0.00     0.264 C 
HETATM   14  C7  UNL     1      31.801  60.295  13.292  1.00  0.00     0.200 C 
HETATM   15  O5  UNL     1      31.887  60.614  11.964  1.00  0.00    -0.337 OA
ENDROOT
BRANCH   7  16
HETATM   16  C5  UNL     1      35.021  59.654   8.744  1.00  0.00     0.218 C 
BRANCH  16  17
HETATM   17  O1  UNL     1      34.503  58.353   8.814  1.00  0.00    -0.255 OA
BRANCH  17  18
HETATM   18  S1  UNL     1      35.366  57.298   7.850  1.00  0.00     0.251 S 
HETATM   19  O2  UNL     1      36.336  56.474   8.629  1.00  0.00    -0.572 OA
HETATM   20  O3  UNL     1      36.075  58.067   6.757  1.00  0.00    -0.572 OA
HETATM   21  O4  UNL     1      34.250  56.259   7.121  1.00  0.00    -0.572 OA
ENDBRANCH  17  18
ENDBRANCH  16  17
ENDBRANCH   7  16
TORSDOF 3
ENDMDL
MODEL 2
REMARK VINA RESULT: -6.239755474      0.088      1.046
REMARK  3 active torsions:
REMARK  status: ('A' for Active; 'I' for Inactive)
REMARK    1  A    between atoms: C4_7  and  C5_8 
REMARK    2  A    between atoms: C5_8  and  O1_9 
REMARK    3  A    between atoms: O1_9  and  S1_10 
ROOT
HETATM    1  N1  UNL     1      34.141  63.720   9.413  1.00  0.00    -0.064 NA
HETATM    2  C1  UNL     1      34.141  62.504  10.159  1.00  0.00     0.188 C 
HETATM    3  N2  UNL     1      33.168  62.187  10.947  1.00  0.00    -0.309 N 
ATOM      4  H2  UNL     1      32.376  62.823  11.039  1.00  0.00     0.167 HD
HETATM    5  C2  UNL     1      33.169  60.951  11.704  1.00  0.00     0.309 C 
HETATM    6  C3  UNL     1      33.779  59.826  10.934  1.00  0.00     0.120 C 
HETATM    7  C4  UNL     1      35.003  60.193  10.170  1.00  0.00     0.115 C 
HETATM    8  N3  UNL     1      35.233  61.600  10.053  1.00  0.00    -0.358 N 
ATOM      9  H3  UNL     1      36.177  61.953   9.893  1.00  0.00     0.162 HD
HETATM   10  N4  UNL     1      33.837  61.213  12.954  1.00  0.00    -0.021 N 
ATOM     11  H41 UNL     1      33.848  62.196  13.227  1.00  0.00     0.283 HD
ATOM     12  H42 UNL     1      34.849  61.097  12.922  1.00  0.00     0.283 HD
HETATM   13  C6  UNL     1      33.159  60.333  13.900  1.00  0.00     0.264 C 
HETATM   14  C7  UNL     1      31.759  60.323  13.325  1.00  0.00     0.200 C 
HETATM   15  O5  UNL     1      31.847  60.637  11.995  1.00  0.00    -0.337 OA
ENDROOT
BRANCH   7  16
HETATM   16  C5  UNL     1      34.953  59.606   8.770  1.00  0.00     0.218 C 
BRANCH  16  17
HETATM   17  O1  UNL     1      34.493  58.284   8.855  1.00  0.00    -0.255 OA
BRANCH  17  18
HETATM   18  S1  UNL     1      35.282  57.291   7.770  1.00  0.00     0.251 S 
HETATM   19  O2  UNL     1      36.113  58.056   6.795  1.00  0.00    -0.572 OA
HETATM   20  O3  UNL     1      34.276  56.421   7.048  1.00  0.00    -0.572 OA
HETATM   21  O4  UNL     1      36.302  56.282   8.664  1.00  0.00    -0.572 OA
ENDBRANCH  17  18
ENDBRANCH  16  17
ENDBRANCH   7  16
TORSDOF 3
ENDMDL
MODEL 3
REMARK VINA RESULT: -6.177497851      3.770      5.555
REMARK  3 active torsions:
REMARK  status: ('A' for Active; 'I' for Inactive)
REMARK    1  A    between atoms: C4_7  and  C5_8 
REMARK    2  A    between atoms: C5_8  and  O1_9 
REMARK    3  A    between atoms: O1_9  and  S1_10 
ROOT
HETATM    1  N1  UNL     1      35.806  57.903   6.596  1.00  0.00    -0.064 NA
HETATM    2  C1  UNL     1      35.874  59.071   7.411  1.00  0.00     0.188 C 
HETATM    3  N2  UNL     1      35.729  60.256   6.919  1.00  0.00    -0.309 N 
ATOM      4  H2  UNL     1      35.561  60.361   5.919  1.00  0.00     0.167 HD
HETATM    5  C2  UNL     1      35.798  61.443   7.749  1.00  0.00     0.309 C 
HETATM    6  C3  UNL     1      35.193  61.217   9.096  1.00  0.00     0.120 C 
HETATM    7  C4  UNL     1      35.523  59.901   9.708  1.00  0.00     0.115 C 
HETATM    8  N3  UNL     1      36.110  58.955   8.809  1.00  0.00    -0.358 N 
ATOM      9  H3  UNL     1      36.695  58.201   9.169  1.00  0.00     0.162 HD
HETATM   10  N4  UNL     1      37.179  61.848   7.806  1.00  0.00    -0.021 N 
ATOM     11  H41 UNL     1      37.751  61.506   7.034  1.00  0.00     0.283 HD
ATOM     12  H42 UNL     1      37.718  61.400   8.547  1.00  0.00     0.283 HD
HETATM   13  C6  UNL     1      37.110  63.302   7.906  1.00  0.00     0.264 C 
HETATM   14  C7  UNL     1      35.863  63.583   7.096  1.00  0.00     0.200 C 
HETATM   15  O5  UNL     1      35.094  62.450   7.099  1.00  0.00    -0.337 OA
ENDROOT
BRANCH   7  16
HETATM   16  C5  UNL     1      34.282  59.268  10.312  1.00  0.00     0.218 C 
BRANCH  16  17
HETATM   17  O1  UNL     1      33.545  60.264  10.968  1.00  0.00    -0.255 OA
BRANCH  17  18
HETATM   18  S1  UNL     1      33.414  59.952  12.602  1.00  0.00     0.251 S 
HETATM   19  O2  UNL     1      34.153  60.946  13.435  1.00  0.00    -0.572 OA
HETATM   20  O3  UNL     1      33.894  58.548  12.896  1.00  0.00    -0.572 OA
HETATM   21  O4  UNL     1      31.774  60.040  12.999  1.00  0.00    -0.572 OA
ENDBRANCH  17  18
ENDBRANCH  16  17
ENDBRANCH   7  16
TORSDOF 3
ENDMDL
MODEL 4
REMARK VINA RESULT: -6.130368255      3.767      5.555
REMARK  3 active torsions:
REMARK  status: ('A' for Active; 'I' for Inactive)
REMARK    1  A    between atoms: C4_7  and  C5_8 
REMARK    2  A    between atoms: C5_8  and  O1_9 
REMARK    3  A    between atoms: O1_9  and  S1_10 
ROOT
HETATM    1  N1  UNL     1      35.758  57.904   6.623  1.00  0.00    -0.064 NA
HETATM    2  C1  UNL     1      35.841  59.072   7.438  1.00  0.00     0.188 C 
HETATM    3  N2  UNL     1      35.708  60.258   6.947  1.00  0.00    -0.309 N 
ATOM      4  H2  UNL     1      35.539  60.365   5.947  1.00  0.00     0.167 HD
HETATM    5  C2  UNL     1      35.792  61.444   7.776  1.00  0.00     0.309 C 
HETATM    6  C3  UNL     1      35.188  61.225   9.125  1.00  0.00     0.120 C 
HETATM    7  C4  UNL     1      35.506  59.905   9.736  1.00  0.00     0.115 C 
HETATM    8  N3  UNL     1      36.080  58.953   8.835  1.00  0.00    -0.358 N 
ATOM      9  H3  UNL     1      36.657  58.192   9.194  1.00  0.00     0.162 HD
HETATM   10  N4  UNL     1      37.178  61.834   7.830  1.00  0.00    -0.021 N 
ATOM     11  H41 UNL     1      37.744  61.485   7.056  1.00  0.00     0.283 HD
ATOM     12  H42 UNL     1      37.714  61.380   8.570  1.00  0.00     0.283 HD
HETATM   13  C6  UNL     1      37.125  63.289   7.931  1.00  0.00     0.264 C 
HETATM   14  C7  UNL     1      35.879  63.583   7.124  1.00  0.00     0.200 C 
HETATM   15  O5  UNL     1      35.098  62.459   7.129  1.00  0.00    -0.337 OA
ENDROOT
BRANCH   7  16
HETATM   16  C5  UNL     1      34.259  59.285  10.343  1.00  0.00     0.218 C 
BRANCH  16  17
HETATM   17  O1  UNL     1      33.500  60.301  10.941  1.00  0.00    -0.255 OA
BRANCH  17  18
HETATM   18  S1  UNL     1      33.297  60.033  12.576  1.00  0.00     0.251 S 
HETATM   19  O2  UNL     1      31.862  60.044  12.983  1.00  0.00    -0.572 OA
HETATM   20  O3  UNL     1      34.084  61.057  13.365  1.00  0.00    -0.572 OA
HETATM   21  O4  UNL     1      33.936  58.505  12.916  1.00  0.00    -0.572 OA
ENDBRANCH  17  18
ENDBRANCH  16  17
ENDBRANCH   7  16
TORSDOF 3
ENDMDL
MODEL 5
REMARK VINA RESULT: -6.065550471      6.876      8.923
REMARK  3 active torsions:
REMARK  status: ('A' for Active; 'I' for Inactive)
REMARK    1  A    between atoms: C4_7  and  C5_8 
REMARK    2  A    between atoms: C5_8  and  O1_9 
REMARK    3  A    between atoms: O1_9  and  S1_10 
ROOT
HETATM    1  N1  UNL     1      34.518  67.224   2.328  1.00  0.00    -0.064 NA
HETATM    2  C1  UNL     1      34.288  65.836   2.567  1.00  0.00     0.188 C 
HETATM    3  N2  UNL     1      34.738  64.923   1.772  1.00  0.00    -0.309 N 
ATOM      4  H2  UNL     1      35.272  65.202   0.949  1.00  0.00     0.167 HD
HETATM    5  C2  UNL     1      34.504  63.514   2.016  1.00  0.00     0.309 C 
HETATM    6  C3  UNL     1      34.542  63.187   3.473  1.00  0.00     0.120 C 
HETATM    7  C4  UNL     1      33.862  64.183   4.347  1.00  0.00     0.115 C 
HETATM    8  N3  UNL     1      33.544  65.420   3.705  1.00  0.00    -0.358 N 
ATOM      9  H3  UNL     1      32.786  66.003   4.062  1.00  0.00     0.162 HD
HETATM   10  N4  UNL     1      33.254  63.170   1.389  1.00  0.00    -0.021 N 
ATOM     11  H41 UNL     1      32.971  63.802   0.639  1.00  0.00     0.283 HD
ATOM     12  H42 UNL     1      32.433  63.322   1.974  1.00  0.00     0.283 HD
HETATM   13  C6  UNL     1      33.446  61.786   0.968  1.00  0.00     0.264 C 
HETATM   14  C7  UNL     1      34.927  61.788   0.656  1.00  0.00     0.200 C 
HETATM   15  O5  UNL     1      35.507  62.804   1.367  1.00  0.00    -0.337 OA
ENDROOT
BRANCH   7  16
HETATM   16  C5  UNL     1      34.714  64.491   5.566  1.00  0.00     0.218 C 
BRANCH  16  17
HETATM   17  O1  UNL     1      35.032  63.285   6.207  1.00  0.00    -0.255 OA
BRANCH  17  18
HETATM   18  S1  UNL     1      35.391  63.523   7.819  1.00  0.00     0.251 S 
HETATM   19  O2  UNL     1      34.746  64.750   8.373  1.00  0.00    -0.572 OA
HETATM   20  O3  UNL     1      36.891  63.577   8.007  1.00  0.00    -0.572 OA
HETATM   21  O4  UNL     1      34.803  62.184   8.667  1.00  0.00    -0.572 OA
ENDBRANCH  17  18
ENDBRANCH  16  17
ENDBRANCH   7  16
TORSDOF 3
ENDMDL
