MODEL 1
REMARK VINA RESULT: -6.549861562      0.000      0.000
REMARK  4 active torsions:
REMARK  status: ('A' for Active; 'I' for Inactive)
REMARK    1  A    between atoms: C7_8  and  C8_9 
REMARK    2  A    between atoms: C8_9  and  C9_10 
REMARK    3  A    between atoms: C9_10  and  N2_11 
REMARK    4  A    between atoms: N2_11  and  C10_13 
ROOT
HETATM    1  N1  UNL     1      12.023  32.513  33.229  1.00  0.00    -0.191 NA
HETATM    2  C1  UNL     1      12.379  31.496  32.763  1.00  0.00     0.100 C 
HETATM    3  C2  UNL     1      12.841  30.258  32.179  1.00  0.00     0.051 A 
HETATM    4  C3  UNL     1      13.195  30.246  30.823  1.00  0.00     0.023 A 
HETATM    5  C4  UNL     1      13.643  29.094  30.224  1.00  0.00     0.002 A 
HETATM    6  C5  UNL     1      13.748  27.933  30.959  1.00  0.00     0.001 A 
HETATM    7  C6  UNL     1      13.393  27.970  32.290  1.00  0.00     0.009 A 
HETATM    8  C7  UNL     1      12.943  29.100  32.918  1.00  0.00    -0.036 A 
ENDROOT
BRANCH   8   9
HETATM    9  C8  UNL     1      12.555  29.166  34.339  1.00  0.00     0.060 C 
BRANCH   9  10
HETATM   10  C9  UNL     1      11.258  28.500  34.657  1.00  0.00     0.142 C 
BRANCH  10  11
HETATM   11  N2  UNL     1      10.237  29.519  34.821  1.00  0.00    -0.224 N 
ATOM     12  H2  UNL     1       9.522  29.645  34.104  1.00  0.00     0.177 HD
BRANCH  11  13
HETATM   13  C10 UNL     1      10.232  30.264  35.873  1.00  0.00     0.693 A 
HETATM   14  N3  UNL     1       9.649  29.951  37.055  1.00  0.00    -0.185 N 
HETATM   15  C11 UNL     1       9.844  30.961  37.927  1.00  0.00     0.215 A 
ATOM     16  H3  UNL     1       9.143  29.087  37.254  1.00  0.00     0.185 HD
HETATM   17  N4  UNL     1      10.551  31.916  37.294  1.00  0.00    -0.281 N 
HETATM   18  N5  UNL     1      10.776  31.477  36.054  1.00  0.00    -0.131 N 
ATOM     19  H4  UNL     1      10.858  32.806  37.686  1.00  0.00     0.188 HD
ATOM     20  H5  UNL     1      11.291  31.993  35.341  1.00  0.00     0.205 HD
ENDBRANCH  11  13
ENDBRANCH  10  11
ENDBRANCH   9  10
ENDBRANCH   8   9
TORSDOF 4
ENDMDL
MODEL 2
REMARK VINA RESULT: -6.174478376      1.025      1.099
REMARK  4 active torsions:
REMARK  status: ('A' for Active; 'I' for Inactive)
REMARK    1  A    between atoms: C7_8  and  C8_9 
REMARK    2  A    between atoms: C8_9  and  C9_10 
REMARK    3  A    between atoms: C9_10  and  N2_11 
REMARK    4  A    between atoms: N2_11  and  C10_13 
ROOT
HETATM    1  N1  UNL     1      12.201  32.050  33.035  1.00  0.00    -0.191 NA
HETATM    2  C1  UNL     1      12.309  31.009  32.504  1.00  0.00     0.100 C 
HETATM    3  C2  UNL     1      12.469  29.727  31.858  1.00  0.00     0.051 A 
HETATM    4  C3  UNL     1      13.495  29.574  30.917  1.00  0.00     0.023 A 
HETATM    5  C4  UNL     1      13.690  28.373  30.278  1.00  0.00     0.002 A 
HETATM    6  C5  UNL     1      12.868  27.303  30.562  1.00  0.00     0.001 A 
HETATM    7  C6  UNL     1      11.866  27.478  31.491  1.00  0.00     0.009 A 
HETATM    8  C7  UNL     1      11.645  28.661  32.145  1.00  0.00    -0.036 A 
ENDROOT
BRANCH   8   9
HETATM    9  C8  UNL     1      10.579  28.877  33.140  1.00  0.00     0.060 C 
BRANCH   9  10
HETATM   10  C9  UNL     1      10.823  28.226  34.459  1.00  0.00     0.142 C 
BRANCH  10  11
HETATM   11  N2  UNL     1      11.459  29.185  35.344  1.00  0.00    -0.224 N 
ATOM     12  H2  UNL     1      12.465  29.137  35.510  1.00  0.00     0.177 HD
BRANCH  11  13
HETATM   13  C10 UNL     1      10.754  30.096  35.922  1.00  0.00     0.693 A 
HETATM   14  N3  UNL     1       9.586  29.888  36.577  1.00  0.00    -0.185 N 
HETATM   15  C11 UNL     1       9.130  31.064  37.055  1.00  0.00     0.215 A 
ATOM     16  H3  UNL     1       9.124  28.985  36.690  1.00  0.00     0.185 HD
HETATM   17  N4  UNL     1      10.013  32.017  36.701  1.00  0.00    -0.281 N 
HETATM   18  N5  UNL     1      10.986  31.413  36.017  1.00  0.00    -0.131 N 
ATOM     19  H4  UNL     1       9.950  33.013  36.915  1.00  0.00     0.188 HD
ATOM     20  H5  UNL     1      11.796  31.889  35.620  1.00  0.00     0.205 HD
ENDBRANCH  11  13
ENDBRANCH  10  11
ENDBRANCH   9  10
ENDBRANCH   8   9
TORSDOF 4
ENDMDL
MODEL 3
REMARK VINA RESULT: -6.147384510      1.720      2.172
REMARK  4 active torsions:
REMARK  status: ('A' for Active; 'I' for Inactive)
REMARK    1  A    between atoms: C7_8  and  C8_9 
REMARK    2  A    between atoms: C8_9  and  C9_10 
REMARK    3  A    between atoms: C9_10  and  N2_11 
REMARK    4  A    between atoms: N2_11  and  C10_13 
ROOT
HETATM    1  N1  UNL     1      14.252  30.634  31.827  1.00  0.00    -0.191 NA
HETATM    2  C1  UNL     1      13.753  29.636  31.462  1.00  0.00     0.100 C 
HETATM    3  C2  UNL     1      13.160  28.393  31.027  1.00  0.00     0.051 A 
HETATM    4  C3  UNL     1      13.968  27.457  30.370  1.00  0.00     0.023 A 
HETATM    5  C4  UNL     1      13.450  26.259  29.941  1.00  0.00     0.002 A 
HETATM    6  C5  UNL     1      12.120  25.969  30.156  1.00  0.00     0.001 A 
HETATM    7  C6  UNL     1      11.345  26.905  30.804  1.00  0.00     0.009 A 
HETATM    8  C7  UNL     1      11.829  28.109  31.245  1.00  0.00    -0.036 A 
ENDROOT
BRANCH   8   9
HETATM    9  C8  UNL     1      11.022  29.129  31.938  1.00  0.00     0.060 C 
BRANCH   9  10
HETATM   10  C9  UNL     1      10.604  28.753  33.319  1.00  0.00     0.142 C 
BRANCH  10  11
HETATM   11  N2  UNL     1      11.476  29.418  34.270  1.00  0.00    -0.224 N 
ATOM     12  H2  UNL     1      12.488  29.307  34.198  1.00  0.00     0.177 HD
BRANCH  11  13
HETATM   13  C10 UNL     1      10.974  30.149  35.205  1.00  0.00     0.693 A 
HETATM   14  N3  UNL     1       9.958  29.786  36.026  1.00  0.00    -0.185 N 
HETATM   15  C11 UNL     1       9.697  30.796  36.880  1.00  0.00     0.215 A 
ATOM     16  H3  UNL     1       9.469  28.891  36.001  1.00  0.00     0.185 HD
HETATM   17  N4  UNL     1      10.549  31.800  36.599  1.00  0.00    -0.281 N 
HETATM   18  N5  UNL     1      11.311  31.391  35.584  1.00  0.00    -0.131 N 
ATOM     19  H4  UNL     1      10.601  32.703  37.071  1.00  0.00     0.188 HD
ATOM     20  H5  UNL     1      12.051  31.947  35.154  1.00  0.00     0.205 HD
ENDBRANCH  11  13
ENDBRANCH  10  11
ENDBRANCH   9  10
ENDBRANCH   8   9
TORSDOF 4
ENDMDL
MODEL 4
REMARK VINA RESULT: -6.007624555      2.552      5.478
REMARK  4 active torsions:
REMARK  status: ('A' for Active; 'I' for Inactive)
REMARK    1  A    between atoms: C7_8  and  C8_9 
REMARK    2  A    between atoms: C8_9  and  C9_10 
REMARK    3  A    between atoms: C9_10  and  N2_11 
REMARK    4  A    between atoms: N2_11  and  C10_13 
ROOT
HETATM    1  N1  UNL     1      12.300  31.381  32.768  1.00  0.00    -0.191 NA
HETATM    2  C1  UNL     1      11.873  30.786  33.686  1.00  0.00     0.100 C 
HETATM    3  C2  UNL     1      11.322  30.065  34.810  1.00  0.00     0.051 A 
HETATM    4  C3  UNL     1      10.615  30.781  35.785  1.00  0.00     0.023 A 
HETATM    5  C4  UNL     1      10.069  30.140  36.870  1.00  0.00     0.002 A 
HETATM    6  C5  UNL     1      10.215  28.776  37.007  1.00  0.00     0.001 A 
HETATM    7  C6  UNL     1      10.914  28.094  36.036  1.00  0.00     0.009 A 
HETATM    8  C7  UNL     1      11.471  28.702  34.942  1.00  0.00    -0.036 A 
ENDROOT
BRANCH   8   9
HETATM    9  C8  UNL     1      12.226  27.997  33.890  1.00  0.00     0.060 C 
BRANCH   9  10
HETATM   10  C9  UNL     1      11.379  27.255  32.913  1.00  0.00     0.142 C 
BRANCH  10  11
HETATM   11  N2  UNL     1      12.132  27.070  31.686  1.00  0.00    -0.224 N 
ATOM     12  H2  UNL     1      12.334  26.129  31.348  1.00  0.00     0.177 HD
BRANCH  11  13
HETATM   13  C10 UNL     1      12.547  28.095  31.022  1.00  0.00     0.693 A 
HETATM   14  N3  UNL     1      13.835  28.338  30.677  1.00  0.00    -0.185 N 
HETATM   15  C11 UNL     1      13.899  29.496  29.989  1.00  0.00     0.215 A 
ATOM     16  H3  UNL     1      14.631  27.739  30.902  1.00  0.00     0.185 HD
HETATM   17  N4  UNL     1      12.648  29.986  29.900  1.00  0.00    -0.281 N 
HETATM   18  N5  UNL     1      11.846  29.126  30.530  1.00  0.00    -0.131 N 
ATOM     19  H4  UNL     1      12.366  30.851  29.438  1.00  0.00     0.188 HD
ATOM     20  H5  UNL     1      10.837  29.238  30.625  1.00  0.00     0.205 HD
ENDBRANCH  11  13
ENDBRANCH  10  11
ENDBRANCH   9  10
ENDBRANCH   8   9
TORSDOF 4
ENDMDL
MODEL 5
REMARK VINA RESULT: -5.946085036      2.919      7.724
REMARK  4 active torsions:
REMARK  status: ('A' for Active; 'I' for Inactive)
REMARK    1  A    between atoms: C7_8  and  C8_9 
REMARK    2  A    between atoms: C8_9  and  C9_10 
REMARK    3  A    between atoms: C9_10  and  N2_11 
REMARK    4  A    between atoms: N2_11  and  C10_13 
ROOT
HETATM    1  N1  UNL     1      11.085  32.583  39.352  1.00  0.00    -0.191 NA
HETATM    2  C1  UNL     1      10.329  31.952  39.992  1.00  0.00     0.100 C 
HETATM    3  C2  UNL     1       9.381  31.198  40.778  1.00  0.00     0.051 A 
HETATM    4  C3  UNL     1       8.889  31.765  41.962  1.00  0.00     0.023 A 
HETATM    5  C4  UNL     1       7.983  31.089  42.742  1.00  0.00     0.002 A 
HETATM    6  C5  UNL     1       7.549  29.837  42.362  1.00  0.00     0.001 A 
HETATM    7  C6  UNL     1       8.047  29.300  41.195  1.00  0.00     0.009 A 
HETATM    8  C7  UNL     1       8.951  29.947  40.394  1.00  0.00    -0.036 A 
ENDROOT
BRANCH   8   9
HETATM    9  C8  UNL     1       9.502  29.395  39.144  1.00  0.00     0.060 C 
BRANCH   9  10
HETATM   10  C9  UNL     1       8.531  29.339  38.012  1.00  0.00     0.142 C 
BRANCH  10  11
HETATM   11  N2  UNL     1       8.695  30.529  37.196  1.00  0.00    -0.224 N 
ATOM     12  H2  UNL     1       7.993  31.269  37.228  1.00  0.00     0.177 HD
BRANCH  11  13
HETATM   13  C10 UNL     1       9.725  30.651  36.432  1.00  0.00     0.693 A 
HETATM   14  N3  UNL     1      10.111  29.760  35.486  1.00  0.00    -0.185 N 
HETATM   15  C11 UNL     1      11.228  30.212  34.881  1.00  0.00     0.215 A 
ATOM     16  H3  UNL     1       9.632  28.886  35.266  1.00  0.00     0.185 HD
HETATM   17  N4  UNL     1      11.550  31.391  35.446  1.00  0.00    -0.281 N 
HETATM   18  N5  UNL     1      10.631  31.638  36.381  1.00  0.00    -0.131 N 
ATOM     19  H4  UNL     1      12.345  31.983  35.206  1.00  0.00     0.188 HD
ATOM     20  H5  UNL     1      10.618  32.466  36.976  1.00  0.00     0.205 HD
ENDBRANCH  11  13
ENDBRANCH  10  11
ENDBRANCH   9  10
ENDBRANCH   8   9
TORSDOF 4
ENDMDL
