MODEL 1
REMARK VINA RESULT: -5.121484194      0.000      0.000
REMARK  7 active torsions:
REMARK  status: ('A' for Active; 'I' for Inactive)
REMARK    1  A    between atoms: N1_1  and  C1_4 
REMARK    2  A    between atoms: C4_9  and  N3_10 
REMARK    3  A    between atoms: N3_10  and  C5_12 
REMARK    4  A    between atoms: C5_12  and  C6_13 
REMARK    5  A    between atoms: C6_13  and  C7_14 
REMARK    6  A    between atoms: C7_14  and  C8_15 
REMARK    7  A    between atoms: C8_15  and  N4_16 
ROOT
HETATM    1  C1  UNL     1      39.374  60.849-154.033  1.00  0.00     0.116 A 
HETATM    2  C2  UNL     1      40.479  61.514-153.512  1.00  0.00     0.066 A 
HETATM    3  C3  UNL     1      40.305  62.767-153.018  1.00  0.00     0.110 A 
HETATM    4  N2  UNL     1      39.097  63.348-153.032  1.00  0.00    -0.202 N 
ATOM      5  H2  UNL     1      38.984  64.289-152.657  1.00  0.00     0.183 HD
HETATM    6  C4  UNL     1      38.038  62.703-153.536  1.00  0.00     0.679 A 
HETATM    7  N5  UNL     1      38.205  61.467-154.024  1.00  0.00    -0.177 N 
ATOM      8  H5  UNL     1      37.394  60.981-154.406  1.00  0.00     0.185 HD
ENDROOT
BRANCH   6   9
HETATM    9  N3  UNL     1      36.872  63.201-153.577  1.00  0.00    -0.226 N 
ATOM     10  H3  UNL     1      36.124  62.663-154.014  1.00  0.00     0.177 HD
BRANCH   9  11
HETATM   11  C5  UNL     1      36.555  64.538-153.012  1.00  0.00     0.138 C 
BRANCH  11  12
HETATM   12  C6  UNL     1      35.830  64.226-151.735  1.00  0.00     0.022 C 
BRANCH  12  13
HETATM   13  C7  UNL     1      35.492  65.352-150.846  1.00  0.00     0.029 C 
BRANCH  13  14
HETATM   14  C8  UNL     1      35.824  65.141-149.412  1.00  0.00     0.229 C 
BRANCH  14  15
HETATM   15  N4  UNL     1      37.110  64.606-149.132  1.00  0.00    -0.079 N 
ATOM     16  H43 UNL     1      37.244  63.742-149.658  1.00  0.00     0.274 HD
ATOM     17  H42 UNL     1      37.827  65.195-149.556  1.00  0.00     0.274 HD
ATOM     18  H41 UNL     1      37.332  64.447-148.149  1.00  0.00     0.274 HD
ENDBRANCH  14  15
ENDBRANCH  13  14
ENDBRANCH  12  13
ENDBRANCH  11  12
ENDBRANCH   9  11
ENDBRANCH   6   9
BRANCH   1  19
HETATM   19  N1  UNL     1      39.483  59.650-154.519  1.00  0.00    -0.385 N 
ATOM     20  H12 UNL     1      39.257  59.465-155.497  1.00  0.00     0.157 HD
ATOM     21  H11 UNL     1      39.796  58.874-153.936  1.00  0.00     0.157 HD
ENDBRANCH   1  19
TORSDOF 7
ENDMDL
MODEL 2
REMARK VINA RESULT: -4.919723923      0.694      1.777
REMARK  7 active torsions:
REMARK  status: ('A' for Active; 'I' for Inactive)
REMARK    1  A    between atoms: N1_1  and  C1_4 
REMARK    2  A    between atoms: C4_9  and  N3_10 
REMARK    3  A    between atoms: N3_10  and  C5_12 
REMARK    4  A    between atoms: C5_12  and  C6_13 
REMARK    5  A    between atoms: C6_13  and  C7_14 
REMARK    6  A    between atoms: C7_14  and  C8_15 
REMARK    7  A    between atoms: C8_15  and  N4_16 
ROOT
HETATM    1  C1  UNL     1      40.272  62.432-153.064  1.00  0.00     0.116 A 
HETATM    2  C2  UNL     1      40.340  61.162-153.625  1.00  0.00     0.066 A 
HETATM    3  C3  UNL     1      39.215  60.641-154.182  1.00  0.00     0.110 A 
HETATM    4  N2  UNL     1      38.069  61.336-154.190  1.00  0.00    -0.202 N 
ATOM      5  H2  UNL     1      37.235  60.930-154.613  1.00  0.00     0.183 HD
HETATM    6  C4  UNL     1      38.011  62.558-153.647  1.00  0.00     0.679 A 
HETATM    7  N5  UNL     1      39.117  63.075-153.097  1.00  0.00    -0.177 N 
ATOM      8  H5  UNL     1      39.065  64.007-152.685  1.00  0.00     0.185 HD
ENDROOT
BRANCH   6   9
HETATM    9  N3  UNL     1      36.955  63.262-153.624  1.00  0.00    -0.226 N 
ATOM     10  H3  UNL     1      36.148  62.954-154.165  1.00  0.00     0.177 HD
BRANCH   9  11
HETATM   11  C5  UNL     1      36.852  64.518-152.837  1.00  0.00     0.138 C 
BRANCH  11  12
HETATM   12  C6  UNL     1      35.845  64.191-151.771  1.00  0.00     0.022 C 
BRANCH  12  13
HETATM   13  C7  UNL     1      35.575  65.217-150.747  1.00  0.00     0.029 C 
BRANCH  13  14
HETATM   14  C8  UNL     1      36.033  64.871-149.375  1.00  0.00     0.229 C 
BRANCH  14  15
HETATM   15  N4  UNL     1      37.433  64.704-149.199  1.00  0.00    -0.079 N 
ATOM     16  H43 UNL     1      37.683  63.726-149.343  1.00  0.00     0.274 HD
ATOM     17  H42 UNL     1      37.930  65.139-149.975  1.00  0.00     0.274 HD
ATOM     18  H41 UNL     1      37.821  65.032-148.315  1.00  0.00     0.274 HD
ENDBRANCH  14  15
ENDBRANCH  13  14
ENDBRANCH  12  13
ENDBRANCH  11  12
ENDBRANCH   9  11
ENDBRANCH   6   9
BRANCH   1  19
HETATM   19  N1  UNL     1      41.315  62.978-152.517  1.00  0.00    -0.385 N 
ATOM     20  H12 UNL     1      41.337  63.165-151.514  1.00  0.00     0.157 HD
ATOM     21  H11 UNL     1      42.131  63.228-153.077  1.00  0.00     0.157 HD
ENDBRANCH   1  19
TORSDOF 7
ENDMDL
MODEL 3
REMARK VINA RESULT: -4.892729290      1.649      2.056
REMARK  7 active torsions:
REMARK  status: ('A' for Active; 'I' for Inactive)
REMARK    1  A    between atoms: N1_1  and  C1_4 
REMARK    2  A    between atoms: C4_9  and  N3_10 
REMARK    3  A    between atoms: N3_10  and  C5_12 
REMARK    4  A    between atoms: C5_12  and  C6_13 
REMARK    5  A    between atoms: C6_13  and  C7_14 
REMARK    6  A    between atoms: C7_14  and  C8_15 
REMARK    7  A    between atoms: C8_15  and  N4_16 
ROOT
HETATM    1  C1  UNL     1      39.495  63.054-153.307  1.00  0.00     0.116 A 
HETATM    2  C2  UNL     1      39.625  62.574-154.606  1.00  0.00     0.066 A 
HETATM    3  C3  UNL     1      38.563  62.689-155.446  1.00  0.00     0.110 A 
HETATM    4  N2  UNL     1      37.419  63.250-155.032  1.00  0.00    -0.202 N 
ATOM      5  H2  UNL     1      36.632  63.328-155.676  1.00  0.00     0.183 HD
HETATM    6  C4  UNL     1      37.300  63.709-153.780  1.00  0.00     0.679 A 
HETATM    7  N5  UNL     1      38.344  63.599-152.949  1.00  0.00    -0.177 N 
ATOM      8  H5  UNL     1      38.247  63.951-151.996  1.00  0.00     0.185 HD
ENDROOT
BRANCH   6   9
HETATM    9  N3  UNL     1      36.242  64.249-153.332  1.00  0.00    -0.226 N 
ATOM     10  H3  UNL     1      35.666  64.800-153.967  1.00  0.00     0.177 HD
BRANCH   9  11
HETATM   11  C5  UNL     1      35.813  64.108-151.916  1.00  0.00     0.138 C 
BRANCH  11  12
HETATM   12  C6  UNL     1      35.675  65.525-151.441  1.00  0.00     0.022 C 
BRANCH  12  13
HETATM   13  C7  UNL     1      35.614  65.757-149.986  1.00  0.00     0.029 C 
BRANCH  13  14
HETATM   14  C8  UNL     1      36.349  64.761-149.161  1.00  0.00     0.229 C 
BRANCH  14  15
HETATM   15  N4  UNL     1      37.767  64.819-149.214  1.00  0.00    -0.079 N 
ATOM     16  H43 UNL     1      38.151  63.874-149.190  1.00  0.00     0.274 HD
ATOM     17  H42 UNL     1      38.064  65.116-150.143  1.00  0.00     0.274 HD
ATOM     18  H41 UNL     1      38.225  65.394-148.507  1.00  0.00     0.274 HD
ENDBRANCH  14  15
ENDBRANCH  13  14
ENDBRANCH  12  13
ENDBRANCH  11  12
ENDBRANCH   9  11
ENDBRANCH   6   9
BRANCH   1  19
HETATM   19  N1  UNL     1      40.476  62.971-152.462  1.00  0.00    -0.385 N 
ATOM     20  H12 UNL     1      41.153  63.730-152.378  1.00  0.00     0.157 HD
ATOM     21  H11 UNL     1      40.589  62.150-151.868  1.00  0.00     0.157 HD
ENDBRANCH   1  19
TORSDOF 7
ENDMDL
MODEL 4
REMARK VINA RESULT: -4.789912653      1.535      5.409
REMARK  7 active torsions:
REMARK  status: ('A' for Active; 'I' for Inactive)
REMARK    1  A    between atoms: N1_1  and  C1_4 
REMARK    2  A    between atoms: C4_9  and  N3_10 
REMARK    3  A    between atoms: N3_10  and  C5_12 
REMARK    4  A    between atoms: C5_12  and  C6_13 
REMARK    5  A    between atoms: C6_13  and  C7_14 
REMARK    6  A    between atoms: C7_14  and  C8_15 
REMARK    7  A    between atoms: C8_15  and  N4_16 
ROOT
HETATM    1  C1  UNL     1      37.420  65.843-151.529  1.00  0.00     0.116 A 
HETATM    2  C2  UNL     1      36.382  65.504-150.668  1.00  0.00     0.066 A 
HETATM    3  C3  UNL     1      35.526  64.519-151.045  1.00  0.00     0.110 A 
HETATM    4  N2  UNL     1      35.678  63.890-152.218  1.00  0.00    -0.202 N 
ATOM      5  H2  UNL     1      35.027  63.153-152.485  1.00  0.00     0.183 HD
HETATM    6  C4  UNL     1      36.679  64.222-153.043  1.00  0.00     0.679 A 
HETATM    7  N5  UNL     1      37.526  65.192-152.676  1.00  0.00    -0.177 N 
ATOM      8  H5  UNL     1      38.287  65.439-153.309  1.00  0.00     0.185 HD
ENDROOT
BRANCH   6   9
HETATM    9  N3  UNL     1      36.873  63.662-154.166  1.00  0.00    -0.226 N 
ATOM     10  H3  UNL     1      36.066  63.430-154.744  1.00  0.00     0.177 HD
BRANCH   9  11
HETATM   11  C5  UNL     1      38.232  63.334-154.669  1.00  0.00     0.138 C 
BRANCH  11  12
HETATM   12  C6  UNL     1      38.577  62.054-153.961  1.00  0.00     0.022 C 
BRANCH  12  13
HETATM   13  C7  UNL     1      39.968  61.874-153.511  1.00  0.00     0.029 C 
BRANCH  13  14
HETATM   14  C8  UNL     1      40.445  60.465-153.491  1.00  0.00     0.229 C 
BRANCH  14  15
HETATM   15  N4  UNL     1      39.502  59.473-153.873  1.00  0.00    -0.079 N 
ATOM     16  H43 UNL     1      39.406  58.785-153.126  1.00  0.00     0.274 HD
ATOM     17  H42 UNL     1      38.565  59.874-153.877  1.00  0.00     0.274 HD
ATOM     18  H41 UNL     1      39.677  58.998-154.758  1.00  0.00     0.274 HD
ENDBRANCH  14  15
ENDBRANCH  13  14
ENDBRANCH  12  13
ENDBRANCH  11  12
ENDBRANCH   9  11
ENDBRANCH   6   9
BRANCH   1  19
HETATM   19  N1  UNL     1      38.268  66.776-151.221  1.00  0.00    -0.385 N 
ATOM     20  H12 UNL     1      39.261  66.663-151.425  1.00  0.00     0.157 HD
ATOM     21  H11 UNL     1      37.959  67.639-150.772  1.00  0.00     0.157 HD
ENDBRANCH   1  19
TORSDOF 7
ENDMDL
MODEL 5
REMARK VINA RESULT: -4.691321691      1.593      5.526
REMARK  7 active torsions:
REMARK  status: ('A' for Active; 'I' for Inactive)
REMARK    1  A    between atoms: N1_1  and  C1_4 
REMARK    2  A    between atoms: C4_9  and  N3_10 
REMARK    3  A    between atoms: N3_10  and  C5_12 
REMARK    4  A    between atoms: C5_12  and  C6_13 
REMARK    5  A    between atoms: C6_13  and  C7_14 
REMARK    6  A    between atoms: C7_14  and  C8_15 
REMARK    7  A    between atoms: C8_15  and  N4_16 
ROOT
HETATM    1  C1  UNL     1      35.421  65.184-150.642  1.00  0.00     0.116 A 
HETATM    2  C2  UNL     1      36.552  65.841-150.170  1.00  0.00     0.066 A 
HETATM    3  C3  UNL     1      37.738  65.613-150.792  1.00  0.00     0.110 A 
HETATM    4  N2  UNL     1      37.815  64.775-151.835  1.00  0.00    -0.202 N 
ATOM      5  H2  UNL     1      38.713  64.615-152.291  1.00  0.00     0.183 HD
HETATM    6  C4  UNL     1      36.722  64.145-152.283  1.00  0.00     0.679 A 
HETATM    7  N5  UNL     1      35.551  64.367-151.674  1.00  0.00    -0.177 N 
ATOM      8  H5  UNL     1      34.722  63.884-152.021  1.00  0.00     0.185 HD
ENDROOT
BRANCH   6   9
HETATM    9  N3  UNL     1      36.734  63.341-153.265  1.00  0.00    -0.226 N 
ATOM     10  H3  UNL     1      35.944  62.707-153.389  1.00  0.00     0.177 HD
BRANCH   9  11
HETATM   11  C5  UNL     1      37.853  63.288-154.241  1.00  0.00     0.138 C 
BRANCH  11  12
HETATM   12  C6  UNL     1      38.471  61.940-154.006  1.00  0.00     0.022 C 
BRANCH  12  13
HETATM   13  C7  UNL     1      39.882  61.898-153.583  1.00  0.00     0.029 C 
BRANCH  13  14
HETATM   14  C8  UNL     1      40.477  60.536-153.514  1.00  0.00     0.229 C 
BRANCH  14  15
HETATM   15  N4  UNL     1      39.601  59.449-153.780  1.00  0.00    -0.079 N 
ATOM     16  H43 UNL     1      38.951  59.707-154.523  1.00  0.00     0.274 HD
ATOM     17  H42 UNL     1      40.117  58.698-154.237  1.00  0.00     0.274 HD
ATOM     18  H41 UNL     1      39.084  59.078-152.984  1.00  0.00     0.274 HD
ENDBRANCH  14  15
ENDBRANCH  13  14
ENDBRANCH  12  13
ENDBRANCH  11  12
ENDBRANCH   9  11
ENDBRANCH   6   9
BRANCH   1  19
HETATM   19  N1  UNL     1      34.263  65.364-150.085  1.00  0.00    -0.385 N 
ATOM     20  H12 UNL     1      33.717  66.203-150.283  1.00  0.00     0.157 HD
ATOM     21  H11 UNL     1      33.875  64.672-149.444  1.00  0.00     0.157 HD
ENDBRANCH   1  19
TORSDOF 7
ENDMDL
