MODEL 1
REMARK VINA RESULT: -5.005675610      0.000      0.000
REMARK  2 active torsions:
REMARK  status: ('A' for Active; 'I' for Inactive)
REMARK    1  A    between atoms: O1_1  and  C1_3 
REMARK    2  A    between atoms: C7_9  and  O2_10 
ROOT
HETATM    1  C1  UNL     1      43.458  -2.831  28.805  1.00  0.00     0.147 C 
HETATM    2  C2  UNL     1      43.074  -1.425  28.510  1.00  0.00     0.034 C 
HETATM    3  C3  UNL     1      43.910  -0.720  27.521  1.00  0.00     0.002 C 
HETATM    4  C4  UNL     1      44.844  -1.591  26.735  1.00  0.00     0.000 C 
HETATM    5  C5  UNL     1      44.167  -2.626  25.905  1.00  0.00     0.002 C 
HETATM    6  C6  UNL     1      43.974  -3.912  26.687  1.00  0.00     0.034 C 
HETATM    7  C7  UNL     1      42.913  -3.726  27.734  1.00  0.00     0.147 C 
ENDROOT
BRANCH   1   8
HETATM    8  O1  UNL     1      42.880  -3.219  30.027  1.00  0.00    -0.393 OA
ATOM      9  H1  UNL     1      42.092  -2.711  30.173  1.00  0.00     0.210 HD
ENDBRANCH   1   8
BRANCH   7  10
HETATM   10  O2  UNL     1      42.467  -4.950  28.204  1.00  0.00    -0.393 OA
ATOM     11  H2  UNL     1      41.593  -5.178  27.908  1.00  0.00     0.210 HD
ENDBRANCH   7  10
TORSDOF 2
ENDMDL
MODEL 2
REMARK VINA RESULT: -4.988763825      1.836      2.858
REMARK  2 active torsions:
REMARK  status: ('A' for Active; 'I' for Inactive)
REMARK    1  A    between atoms: O1_1  and  C1_3 
REMARK    2  A    between atoms: C7_9  and  O2_10 
ROOT
HETATM    1  C1  UNL     1      43.864  -2.198  26.144  1.00  0.00     0.147 C 
HETATM    2  C2  UNL     1      44.893  -1.353  26.808  1.00  0.00     0.034 C 
HETATM    3  C3  UNL     1      44.514  -0.777  28.111  1.00  0.00     0.002 C 
HETATM    4  C4  UNL     1      43.271  -1.349  28.727  1.00  0.00     0.000 C 
HETATM    5  C5  UNL     1      43.348  -2.805  29.029  1.00  0.00     0.002 C 
HETATM    6  C6  UNL     1      42.881  -3.632  27.846  1.00  0.00     0.034 C 
HETATM    7  C7  UNL     1      43.896  -3.572  26.740  1.00  0.00     0.147 C 
ENDROOT
BRANCH   1   8
HETATM    8  O1  UNL     1      44.176  -2.312  24.777  1.00  0.00    -0.393 OA
ATOM      9  H1  UNL     1      44.143  -3.227  24.527  1.00  0.00     0.210 HD
ENDBRANCH   1   8
BRANCH   7  10
HETATM   10  O2  UNL     1      43.680  -4.584  25.818  1.00  0.00    -0.393 OA
ATOM     11  H2  UNL     1      43.558  -5.440  26.212  1.00  0.00     0.210 HD
ENDBRANCH   7  10
TORSDOF 2
ENDMDL
MODEL 3
REMARK VINA RESULT: -4.979303602      1.967      3.104
REMARK  2 active torsions:
REMARK  status: ('A' for Active; 'I' for Inactive)
REMARK    1  A    between atoms: O1_1  and  C1_3 
REMARK    2  A    between atoms: C7_9  and  O2_10 
ROOT
HETATM    1  C1  UNL     1      44.529  -1.325  28.225  1.00  0.00     0.147 C 
HETATM    2  C2  UNL     1      44.464  -1.489  26.748  1.00  0.00     0.034 C 
HETATM    3  C3  UNL     1      44.244  -2.862  26.259  1.00  0.00     0.002 C 
HETATM    4  C4  UNL     1      43.826  -3.854  27.304  1.00  0.00     0.000 C 
HETATM    5  C5  UNL     1      42.532  -3.538  27.970  1.00  0.00     0.002 C 
HETATM    6  C6  UNL     1      42.747  -2.667  29.193  1.00  0.00     0.034 C 
HETATM    7  C7  UNL     1      43.137  -1.277  28.777  1.00  0.00     0.147 C 
ENDROOT
BRANCH   1   8
HETATM    8  O1  UNL     1      45.154  -0.100  28.524  1.00  0.00    -0.393 OA
ATOM      9  H1  UNL     1      44.569   0.611  28.295  1.00  0.00     0.210 HD
ENDBRANCH   1   8
BRANCH   7  10
HETATM   10  O2  UNL     1      42.985  -0.388  29.828  1.00  0.00    -0.393 OA
ATOM     11  H2  UNL     1      42.106  -0.037  29.907  1.00  0.00     0.210 HD
ENDBRANCH   7  10
TORSDOF 2
ENDMDL
MODEL 4
REMARK VINA RESULT: -4.883974261      1.197      2.092
REMARK  2 active torsions:
REMARK  status: ('A' for Active; 'I' for Inactive)
REMARK    1  A    between atoms: O1_1  and  C1_3 
REMARK    2  A    between atoms: C7_9  and  O2_10 
ROOT
HETATM    1  C1  UNL     1      43.136  -3.783  28.076  1.00  0.00     0.147 C 
HETATM    2  C2  UNL     1      42.071  -2.927  28.663  1.00  0.00     0.034 C 
HETATM    3  C3  UNL     1      42.505  -1.614  29.175  1.00  0.00     0.002 C 
HETATM    4  C4  UNL     1      43.890  -1.198  28.776  1.00  0.00     0.000 C 
HETATM    5  C5  UNL     1      44.089  -1.053  27.306  1.00  0.00     0.002 C 
HETATM    6  C6  UNL     1      44.538  -2.362  26.686  1.00  0.00     0.034 C 
HETATM    7  C7  UNL     1      43.401  -3.343  26.669  1.00  0.00     0.147 C 
ENDROOT
BRANCH   1   8
HETATM    8  O1  UNL     1      42.684  -5.115  28.035  1.00  0.00    -0.393 OA
ATOM      9  H1  UNL     1      43.256  -5.619  27.468  1.00  0.00     0.210 HD
ENDBRANCH   1   8
BRANCH   7  10
HETATM   10  O2  UNL     1      43.667  -4.389  25.799  1.00  0.00    -0.393 OA
ATOM     11  H2  UNL     1      42.912  -4.936  25.617  1.00  0.00     0.210 HD
ENDBRANCH   7  10
TORSDOF 2
ENDMDL
MODEL 5
REMARK VINA RESULT: -4.856937294      1.843      3.111
REMARK  2 active torsions:
REMARK  status: ('A' for Active; 'I' for Inactive)
REMARK    1  A    between atoms: O1_1  and  C1_3 
REMARK    2  A    between atoms: C7_9  and  O2_10 
ROOT
HETATM    1  C1  UNL     1      43.911  -3.563  27.038  1.00  0.00     0.147 C 
HETATM    2  C2  UNL     1      42.721  -3.704  27.919  1.00  0.00     0.034 C 
HETATM    3  C3  UNL     1      42.774  -2.973  29.199  1.00  0.00     0.002 C 
HETATM    4  C4  UNL     1      43.876  -1.961  29.313  1.00  0.00     0.000 C 
HETATM    5  C5  UNL     1      43.805  -0.858  28.314  1.00  0.00     0.002 C 
HETATM    6  C6  UNL     1      44.562  -1.219  27.050  1.00  0.00     0.034 C 
HETATM    7  C7  UNL     1      43.814  -2.272  26.283  1.00  0.00     0.147 C 
ENDROOT
BRANCH   1   8
HETATM    8  O1  UNL     1      43.916  -4.612  26.101  1.00  0.00    -0.393 OA
ATOM      9  H1  UNL     1      43.598  -4.286  25.268  1.00  0.00     0.210 HD
ENDBRANCH   1   8
BRANCH   7  10
HETATM   10  O2  UNL     1      44.279  -2.354  24.980  1.00  0.00    -0.393 OA
ATOM     11  H2  UNL     1      43.768  -1.846  24.360  1.00  0.00     0.210 HD
ENDBRANCH   7  10
TORSDOF 2
ENDMDL
