MODEL 1
REMARK VINA RESULT: -4.374554456      0.000      0.000
REMARK  2 active torsions:
REMARK  status: ('A' for Active; 'I' for Inactive)
REMARK    1  A    between atoms: C6_6  and  O1_7 
REMARK    2  A    between atoms: C7_9  and  O2_10 
ROOT
HETATM    1  C1  UNL     1      43.833  -1.155  27.029  1.00  0.00     0.012 C 
HETATM    2  C2  UNL     1      43.885  -2.259  28.097  1.00  0.00     0.013 C 
HETATM    3  C3  UNL     1      42.693  -3.130  28.073  1.00  0.00     0.007 C 
HETATM    4  C4  UNL     1      41.682  -2.916  29.128  1.00  0.00     0.003 C 
HETATM    5  C5  UNL     1      42.268  -2.570  30.482  1.00  0.00     0.034 C 
HETATM    6  C6  UNL     1      43.065  -1.279  30.261  1.00  0.00     0.147 C 
HETATM    7  C7  UNL     1      44.242  -1.675  29.418  1.00  0.00     0.150 C 
ENDROOT
BRANCH   6   8
HETATM    8  O1  UNL     1      42.283  -0.308  29.665  1.00  0.00    -0.393 OA
ATOM      9  H1  UNL     1      42.636   0.560  29.823  1.00  0.00     0.210 HD
ENDBRANCH   6   8
BRANCH   7  10
HETATM   10  O2  UNL     1      45.096  -0.594  29.288  1.00  0.00    -0.393 OA
ATOM     11  H2  UNL     1      45.981  -0.808  29.559  1.00  0.00     0.210 HD
ENDBRANCH   7  10
TORSDOF 2
ENDMDL
MODEL 2
REMARK VINA RESULT: -4.162340842      1.515      3.200
REMARK  2 active torsions:
REMARK  status: ('A' for Active; 'I' for Inactive)
REMARK    1  A    between atoms: C6_6  and  O1_7 
REMARK    2  A    between atoms: C7_9  and  O2_10 
ROOT
HETATM    1  C1  UNL     1      43.923  -1.919  29.688  1.00  0.00     0.012 C 
HETATM    2  C2  UNL     1      43.090  -2.110  28.411  1.00  0.00     0.013 C 
HETATM    3  C3  UNL     1      43.151  -3.491  27.893  1.00  0.00     0.007 C 
HETATM    4  C4  UNL     1      44.006  -3.730  26.713  1.00  0.00     0.003 C 
HETATM    5  C5  UNL     1      43.990  -2.604  25.701  1.00  0.00     0.034 C 
HETATM    6  C6  UNL     1      44.488  -1.368  26.459  1.00  0.00     0.147 C 
HETATM    7  C7  UNL     1      43.399  -1.030  27.435  1.00  0.00     0.150 C 
ENDROOT
BRANCH   6   8
HETATM    8  O1  UNL     1      45.699  -1.620  27.076  1.00  0.00    -0.393 OA
ATOM      9  H1  UNL     1      45.621  -2.327  27.707  1.00  0.00     0.210 HD
ENDBRANCH   6   8
BRANCH   7  10
HETATM   10  O2  UNL     1      43.704   0.163  28.066  1.00  0.00    -0.393 OA
ATOM     11  H2  UNL     1      44.020   0.816  27.453  1.00  0.00     0.210 HD
ENDBRANCH   7  10
TORSDOF 2
ENDMDL
MODEL 3
REMARK VINA RESULT: -4.127904923      0.870      2.764
REMARK  2 active torsions:
REMARK  status: ('A' for Active; 'I' for Inactive)
REMARK    1  A    between atoms: C6_6  and  O1_7 
REMARK    2  A    between atoms: C7_9  and  O2_10 
ROOT
HETATM    1  C1  UNL     1      42.586  -2.539  30.807  1.00  0.00     0.012 C 
HETATM    2  C2  UNL     1      42.210  -2.275  29.342  1.00  0.00     0.013 C 
HETATM    3  C3  UNL     1      42.705  -3.323  28.428  1.00  0.00     0.007 C 
HETATM    4  C4  UNL     1      43.890  -2.998  27.610  1.00  0.00     0.003 C 
HETATM    5  C5  UNL     1      43.924  -1.567  27.115  1.00  0.00     0.034 C 
HETATM    6  C6  UNL     1      43.915  -0.700  28.378  1.00  0.00     0.147 C 
HETATM    7  C7  UNL     1      42.547  -0.873  28.973  1.00  0.00     0.150 C 
ENDROOT
BRANCH   6   8
HETATM    8  O1  UNL     1      44.925  -1.073  29.244  1.00  0.00    -0.393 OA
ATOM      9  H1  UNL     1      45.716  -0.570  29.084  1.00  0.00     0.210 HD
ENDBRANCH   6   8
BRANCH   7  10
HETATM   10  O2  UNL     1      42.402  -0.010  30.045  1.00  0.00    -0.393 OA
ATOM     11  H2  UNL     1      41.972  -0.430  30.781  1.00  0.00     0.210 HD
ENDBRANCH   7  10
TORSDOF 2
ENDMDL
MODEL 4
REMARK VINA RESULT: -3.947863183      2.393      3.616
REMARK  2 active torsions:
REMARK  status: ('A' for Active; 'I' for Inactive)
REMARK    1  A    between atoms: C6_6  and  O1_7 
REMARK    2  A    between atoms: C7_9  and  O2_10 
ROOT
HETATM    1  C1  UNL     1      41.701  -2.989  28.714  1.00  0.00     0.012 C 
HETATM    2  C2  UNL     1      43.185  -2.612  28.838  1.00  0.00     0.013 C 
HETATM    3  C3  UNL     1      43.415  -1.159  28.715  1.00  0.00     0.007 C 
HETATM    4  C4  UNL     1      43.963  -0.669  27.435  1.00  0.00     0.003 C 
HETATM    5  C5  UNL     1      44.986  -1.594  26.808  1.00  0.00     0.034 C 
HETATM    6  C6  UNL     1      44.252  -2.919  26.583  1.00  0.00     0.147 C 
HETATM    7  C7  UNL     1      44.008  -3.481  27.953  1.00  0.00     0.150 C 
ENDROOT
BRANCH   6   8
HETATM    8  O1  UNL     1      43.084  -2.725  25.870  1.00  0.00    -0.393 OA
ATOM      9  H1  UNL     1      42.520  -3.488  25.924  1.00  0.00     0.210 HD
ENDBRANCH   6   8
BRANCH   7  10
HETATM   10  O2  UNL     1      43.473  -4.752  27.839  1.00  0.00    -0.393 OA
ATOM     11  H2  UNL     1      43.809  -5.338  28.507  1.00  0.00     0.210 HD
ENDBRANCH   7  10
TORSDOF 2
ENDMDL
MODEL 5
REMARK VINA RESULT: -3.918254248      1.363      1.724
REMARK  2 active torsions:
REMARK  status: ('A' for Active; 'I' for Inactive)
REMARK    1  A    between atoms: C6_6  and  O1_7 
REMARK    2  A    between atoms: C7_9  and  O2_10 
ROOT
HETATM    1  C1  UNL     1      44.127  -1.345  28.871  1.00  0.00     0.012 C 
HETATM    2  C2  UNL     1      43.307  -2.245  29.808  1.00  0.00     0.013 C 
HETATM    3  C3  UNL     1      42.084  -2.769  29.168  1.00  0.00     0.007 C 
HETATM    4  C4  UNL     1      40.803  -2.139  29.547  1.00  0.00     0.003 C 
HETATM    5  C5  UNL     1      40.716  -1.751  31.009  1.00  0.00     0.034 C 
HETATM    6  C6  UNL     1      41.865  -0.763  31.236  1.00  0.00     0.147 C 
HETATM    7  C7  UNL     1      43.122  -1.577  31.125  1.00  0.00     0.150 C 
ENDROOT
BRANCH   6   8
HETATM    8  O1  UNL     1      41.817   0.273  30.323  1.00  0.00    -0.393 OA
ATOM      9  H1  UNL     1      41.028   0.227  29.796  1.00  0.00     0.210 HD
ENDBRANCH   6   8
BRANCH   7  10
HETATM   10  O2  UNL     1      44.209  -0.788  31.459  1.00  0.00    -0.393 OA
ATOM     11  H2  UNL     1      44.193  -0.534  32.374  1.00  0.00     0.210 HD
ENDBRANCH   7  10
TORSDOF 2
ENDMDL
