MODEL 1
REMARK VINA RESULT: -6.864340933      0.000      0.000
REMARK  8 active torsions:
REMARK  status: ('A' for Active; 'I' for Inactive)
REMARK    1  A    between atoms: C1_2  and  C2_4 
REMARK    2  A    between atoms: C2_4  and  O3_5 
REMARK    3  A    between atoms: C2_4  and  C3_7 
REMARK    4  A    between atoms: C3_7  and  C4_9 
REMARK    5  A    between atoms: C3_7  and  S2_11 
REMARK    6  A    between atoms: S2_11  and  C5_12 
REMARK    7  A    between atoms: C6_13  and  O4_14 
REMARK    8  A    between atoms: N1_23  and  O5_25 
ROOT
HETATM    1  C5  UNL     1      22.588  33.862   4.854  1.00  0.00     0.093 C 
HETATM    2  C6  UNL     1      22.794  32.916   5.977  1.00  0.00     0.134 C 
HETATM    3  C7  UNL     1      22.534  33.355   7.364  1.00  0.00     0.043 C 
HETATM    4  C8  UNL     1      21.089  33.250   7.864  1.00  0.00     0.036 C 
HETATM    5  C9  UNL     1      20.657  34.607   8.457  1.00  0.00     0.010 C 
HETATM    6  C10 UNL     1      19.443  35.217   7.848  1.00  0.00     0.001 C 
HETATM    7  C11 UNL     1      19.478  35.414   6.325  1.00  0.00     0.011 C 
HETATM    8  C12 UNL     1      20.632  34.614   5.915  1.00  0.00     0.049 C 
HETATM    9  C13 UNL     1      20.336  33.317   6.586  1.00  0.00     0.019 C 
HETATM   10  N1  UNL     1      19.600  32.399   6.234  1.00  0.00    -0.277 N 
ATOM     11  H1  UNL     1      19.579  31.629   6.902  1.00  0.00     0.193 HD
HETATM   12  C14 UNL     1      21.117  34.284   4.618  1.00  0.00     0.084 C 
HETATM   13  S3  UNL     1      21.122  35.617   3.399  1.00  0.00    -0.090 SA
ENDROOT
BRANCH   1  14
HETATM   14  S2  UNL     1      23.387  33.486   3.322  1.00  0.00    -0.130 SA
BRANCH  14  15
HETATM   15  C3  UNL     1      25.149  33.538   3.295  1.00  0.00     0.130 C 
HETATM   16 CL1  UNL     1      25.782  33.881   4.955  1.00  0.00    -0.103 Cl
BRANCH  15  17
HETATM   17  C2  UNL     1      25.677  32.144   2.972  1.00  0.00     0.253 C 
BRANCH  17  18
HETATM   18  C1  UNL     1      25.378  31.666   1.635  1.00  0.00     0.205 C 
HETATM   19  O1  UNL     1      25.002  30.465   1.464  1.00  0.00    -0.646 OA
HETATM   20  O2  UNL     1      25.501  32.511   0.519  1.00  0.00    -0.646 OA
ENDBRANCH  17  18
BRANCH  17  21
HETATM   21  O3  UNL     1      25.015  31.301   3.902  1.00  0.00    -0.382 OA
ATOM     22  H3  UNL     1      25.246  30.401   3.703  1.00  0.00     0.210 HD
ENDBRANCH  17  21
ENDBRANCH  15  17
BRANCH  15  23
HETATM   23  C4  UNL     1      25.773  34.534   2.398  1.00  0.00     0.126 C 
HETATM   24  S1  UNL     1      24.488  35.547   1.582  1.00  0.00    -0.095 SA
ENDBRANCH  15  23
ENDBRANCH  14  15
ENDBRANCH   1  14
BRANCH   2  25
HETATM   25  O4  UNL     1      22.393  31.593   5.691  1.00  0.00    -0.394 OA
ATOM     26  H4  UNL     1      21.474  31.425   5.858  1.00  0.00     0.210 HD
ENDBRANCH   2  25
BRANCH  10  27
HETATM   27  O5  UNL     1      18.816  32.183   5.166  1.00  0.00    -0.290 OA
ATOM     28  H5  UNL     1      18.301  31.447   4.860  1.00  0.00     0.244 HD
ENDBRANCH  10  27
TORSDOF 8
ENDMDL
MODEL 2
REMARK VINA RESULT: -6.623757290      1.425      1.995
REMARK  8 active torsions:
REMARK  status: ('A' for Active; 'I' for Inactive)
REMARK    1  A    between atoms: C1_2  and  C2_4 
REMARK    2  A    between atoms: C2_4  and  O3_5 
REMARK    3  A    between atoms: C2_4  and  C3_7 
REMARK    4  A    between atoms: C3_7  and  C4_9 
REMARK    5  A    between atoms: C3_7  and  S2_11 
REMARK    6  A    between atoms: S2_11  and  C5_12 
REMARK    7  A    between atoms: C6_13  and  O4_14 
REMARK    8  A    between atoms: N1_23  and  O5_25 
ROOT
HETATM    1  C5  UNL     1      22.551  33.984   4.830  1.00  0.00     0.093 C 
HETATM    2  C6  UNL     1      22.816  33.065   5.962  1.00  0.00     0.134 C 
HETATM    3  C7  UNL     1      22.550  33.511   7.346  1.00  0.00     0.043 C 
HETATM    4  C8  UNL     1      21.118  33.342   7.865  1.00  0.00     0.036 C 
HETATM    5  C9  UNL     1      20.627  34.684   8.445  1.00  0.00     0.010 C 
HETATM    6  C10 UNL     1      19.377  35.226   7.842  1.00  0.00     0.001 C 
HETATM    7  C11 UNL     1      19.386  35.403   6.317  1.00  0.00     0.011 C 
HETATM    8  C12 UNL     1      20.572  34.656   5.903  1.00  0.00     0.049 C 
HETATM    9  C13 UNL     1      20.348  33.355   6.595  1.00  0.00     0.019 C 
HETATM   10  N1  UNL     1      19.653  32.397   6.264  1.00  0.00    -0.277 N 
ATOM     11  H1  UNL     1      19.678  31.636   6.943  1.00  0.00     0.193 HD
HETATM   12  C14 UNL     1      21.058  34.332   4.605  1.00  0.00     0.084 C 
HETATM   13  S3  UNL     1      20.985  35.646   3.369  1.00  0.00    -0.090 SA
ENDROOT
BRANCH   1  14
HETATM   14  S2  UNL     1      23.350  33.628   3.293  1.00  0.00    -0.130 SA
BRANCH  14  15
HETATM   15  C3  UNL     1      24.518  34.804   2.696  1.00  0.00     0.130 C 
HETATM   16 CL1  UNL     1      26.199  34.258   3.086  1.00  0.00    -0.103 Cl
BRANCH  15  17
HETATM   17  C2  UNL     1      24.471  34.815   1.172  1.00  0.00     0.253 C 
BRANCH  17  18
HETATM   18  C1  UNL     1      25.465  33.983   0.519  1.00  0.00     0.205 C 
HETATM   19  O1  UNL     1      26.388  34.523  -0.166  1.00  0.00    -0.646 OA
HETATM   20  O2  UNL     1      25.423  32.583   0.628  1.00  0.00    -0.646 OA
ENDBRANCH  17  18
BRANCH  17  21
HETATM   21  O3  UNL     1      24.731  36.167   0.829  1.00  0.00    -0.382 OA
ATOM     22  H3  UNL     1      25.423  36.489   1.395  1.00  0.00     0.210 HD
ENDBRANCH  17  21
ENDBRANCH  15  17
BRANCH  15  23
HETATM   23  C4  UNL     1      24.399  36.185   3.215  1.00  0.00     0.126 C 
HETATM   24  S1  UNL     1      25.538  36.434   4.623  1.00  0.00    -0.095 SA
ENDBRANCH  15  23
ENDBRANCH  14  15
ENDBRANCH   1  14
BRANCH   2  25
HETATM   25  O4  UNL     1      22.477  31.721   5.699  1.00  0.00    -0.394 OA
ATOM     26  H4  UNL     1      23.078  31.091   6.077  1.00  0.00     0.210 HD
ENDBRANCH   2  25
BRANCH  10  27
HETATM   27  O5  UNL     1      18.869  32.129   5.209  1.00  0.00    -0.290 OA
ATOM     28  H5  UNL     1      18.291  31.412   4.978  1.00  0.00     0.244 HD
ENDBRANCH  10  27
TORSDOF 8
ENDMDL
MODEL 3
REMARK VINA RESULT: -6.558816982      1.814      2.127
REMARK  8 active torsions:
REMARK  status: ('A' for Active; 'I' for Inactive)
REMARK    1  A    between atoms: C1_2  and  C2_4 
REMARK    2  A    between atoms: C2_4  and  O3_5 
REMARK    3  A    between atoms: C2_4  and  C3_7 
REMARK    4  A    between atoms: C3_7  and  C4_9 
REMARK    5  A    between atoms: C3_7  and  S2_11 
REMARK    6  A    between atoms: S2_11  and  C5_12 
REMARK    7  A    between atoms: C6_13  and  O4_14 
REMARK    8  A    between atoms: N1_23  and  O5_25 
ROOT
HETATM    1  C5  UNL     1      21.792  34.797   4.293  1.00  0.00     0.093 C 
HETATM    2  C6  UNL     1      22.726  35.169   5.382  1.00  0.00     0.134 C 
HETATM    3  C7  UNL     1      22.307  36.151   6.405  1.00  0.00     0.043 C 
HETATM    4  C8  UNL     1      21.516  35.609   7.600  1.00  0.00     0.036 C 
HETATM    5  C9  UNL     1      20.227  36.439   7.774  1.00  0.00     0.010 C 
HETATM    6  C10 UNL     1      18.955  35.665   7.741  1.00  0.00     0.001 C 
HETATM    7  C11 UNL     1      18.730  34.789   6.499  1.00  0.00     0.011 C 
HETATM    8  C12 UNL     1      20.048  34.768   5.866  1.00  0.00     0.049 C 
HETATM    9  C13 UNL     1      20.914  34.384   7.017  1.00  0.00     0.019 C 
HETATM   10  N1  UNL     1      21.145  33.275   7.492  1.00  0.00    -0.277 N 
ATOM     11  H1  UNL     1      21.772  33.311   8.295  1.00  0.00     0.193 HD
HETATM   12  C14 UNL     1      20.528  34.027   4.749  1.00  0.00     0.084 C 
HETATM   13  S3  UNL     1      19.420  33.908   3.329  1.00  0.00    -0.090 SA
ENDROOT
BRANCH   1  14
HETATM   14  S2  UNL     1      22.489  34.057   2.846  1.00  0.00    -0.130 SA
BRANCH  14  15
HETATM   15  C3  UNL     1      23.977  34.760   2.214  1.00  0.00     0.130 C 
HETATM   16 CL1  UNL     1      24.364  36.287   3.105  1.00  0.00    -0.103 Cl
BRANCH  15  17
HETATM   17  C2  UNL     1      25.139  33.829   2.543  1.00  0.00     0.253 C 
BRANCH  17  18
HETATM   18  C1  UNL     1      24.782  32.432   2.709  1.00  0.00     0.205 C 
HETATM   19  O1  UNL     1      24.634  31.955   3.876  1.00  0.00    -0.646 OA
HETATM   20  O2  UNL     1      24.599  31.593   1.597  1.00  0.00    -0.646 OA
ENDBRANCH  17  18
BRANCH  17  21
HETATM   21  O3  UNL     1      25.628  34.313   3.784  1.00  0.00    -0.382 OA
ATOM     22  H3  UNL     1      24.892  34.649   4.282  1.00  0.00     0.210 HD
ENDBRANCH  17  21
ENDBRANCH  15  17
BRANCH  15  23
HETATM   23  C4  UNL     1      23.995  35.102   0.775  1.00  0.00     0.126 C 
HETATM   24  S1  UNL     1      25.633  34.728   0.054  1.00  0.00    -0.095 SA
ENDBRANCH  15  23
ENDBRANCH  14  15
ENDBRANCH   1  14
BRANCH   2  25
HETATM   25  O4  UNL     1      23.486  34.088   5.877  1.00  0.00    -0.394 OA
ATOM     26  H4  UNL     1      23.283  33.854   6.775  1.00  0.00     0.210 HD
ENDBRANCH   2  25
BRANCH  10  27
HETATM   27  O5  UNL     1      20.757  32.027   7.190  1.00  0.00    -0.290 OA
ATOM     28  H5  UNL     1      20.302  31.341   7.663  1.00  0.00     0.244 HD
ENDBRANCH  10  27
TORSDOF 8
ENDMDL
MODEL 4
REMARK VINA RESULT: -6.522286334      3.269      6.423
REMARK  8 active torsions:
REMARK  status: ('A' for Active; 'I' for Inactive)
REMARK    1  A    between atoms: C1_2  and  C2_4 
REMARK    2  A    between atoms: C2_4  and  O3_5 
REMARK    3  A    between atoms: C2_4  and  C3_7 
REMARK    4  A    between atoms: C3_7  and  C4_9 
REMARK    5  A    between atoms: C3_7  and  S2_11 
REMARK    6  A    between atoms: S2_11  and  C5_12 
REMARK    7  A    between atoms: C6_13  and  O4_14 
REMARK    8  A    between atoms: N1_23  and  O5_25 
ROOT
HETATM    1  C5  UNL     1      23.680  34.623   4.923  1.00  0.00     0.093 C 
HETATM    2  C6  UNL     1      23.390  35.831   4.114  1.00  0.00     0.134 C 
HETATM    3  C7  UNL     1      24.271  36.185   2.981  1.00  0.00     0.043 C 
HETATM    4  C8  UNL     1      23.974  35.512   1.636  1.00  0.00     0.036 C 
HETATM    5  C9  UNL     1      25.267  34.873   1.091  1.00  0.00     0.010 C 
HETATM    6  C10 UNL     1      25.192  33.413   0.807  1.00  0.00     0.001 C 
HETATM    7  C11 UNL     1      24.739  32.521   1.973  1.00  0.00     0.011 C 
HETATM    8  C12 UNL     1      24.210  33.483   2.939  1.00  0.00     0.049 C 
HETATM    9  C13 UNL     1      23.284  34.274   2.079  1.00  0.00     0.019 C 
HETATM   10  N1  UNL     1      22.134  34.026   1.725  1.00  0.00    -0.277 N 
ATOM     11  H1  UNL     1      21.742  34.747   1.120  1.00  0.00     0.193 HD
HETATM   12  C14 UNL     1      23.525  33.279   4.170  1.00  0.00     0.084 C 
HETATM   13  S3  UNL     1      24.170  31.977   5.242  1.00  0.00    -0.090 SA
ENDROOT
BRANCH   1  14
HETATM   14  S2  UNL     1      22.949  34.531   6.530  1.00  0.00    -0.130 SA
BRANCH  14  15
HETATM   15  C3  UNL     1      21.292  33.941   6.633  1.00  0.00     0.130 C 
HETATM   16 CL1  UNL     1      21.235  32.433   7.632  1.00  0.00    -0.103 Cl
BRANCH  15  17
HETATM   17  C2  UNL     1      20.459  34.945   7.422  1.00  0.00     0.253 C 
BRANCH  17  18
HETATM   18  C1  UNL     1      21.023  36.280   7.508  1.00  0.00     0.205 C 
HETATM   19  O1  UNL     1      21.040  37.024   6.480  1.00  0.00    -0.646 OA
HETATM   20  O2  UNL     1      21.556  36.765   8.714  1.00  0.00    -0.646 OA
ENDBRANCH  17  18
BRANCH  17  21
HETATM   21  O3  UNL     1      20.409  34.400   8.730  1.00  0.00    -0.382 OA
ATOM     22  H3  UNL     1      19.512  34.145   8.912  1.00  0.00     0.210 HD
ENDBRANCH  17  21
ENDBRANCH  15  17
BRANCH  15  23
HETATM   23  C4  UNL     1      20.618  33.619   5.356  1.00  0.00     0.126 C 
HETATM   24  S1  UNL     1      18.834  34.005   5.464  1.00  0.00    -0.095 SA
ENDBRANCH  15  23
ENDBRANCH  14  15
ENDBRANCH   1  14
BRANCH   2  25
HETATM   25  O4  UNL     1      22.014  36.047   3.882  1.00  0.00    -0.394 OA
ATOM     26  H4  UNL     1      21.454  35.752   4.590  1.00  0.00     0.210 HD
ENDBRANCH   2  25
BRANCH  10  27
HETATM   27  O5  UNL     1      21.280  33.018   1.957  1.00  0.00    -0.290 OA
ATOM     28  H5  UNL     1      20.355  32.968   2.167  1.00  0.00     0.244 HD
ENDBRANCH  10  27
TORSDOF 8
ENDMDL
MODEL 5
REMARK VINA RESULT: -6.454931326      3.330      6.518
REMARK  8 active torsions:
REMARK  status: ('A' for Active; 'I' for Inactive)
REMARK    1  A    between atoms: C1_2  and  C2_4 
REMARK    2  A    between atoms: C2_4  and  O3_5 
REMARK    3  A    between atoms: C2_4  and  C3_7 
REMARK    4  A    between atoms: C3_7  and  C4_9 
REMARK    5  A    between atoms: C3_7  and  S2_11 
REMARK    6  A    between atoms: S2_11  and  C5_12 
REMARK    7  A    between atoms: C6_13  and  O4_14 
REMARK    8  A    between atoms: N1_23  and  O5_25 
ROOT
HETATM    1  C5  UNL     1      22.441  34.440   4.806  1.00  0.00     0.093 C 
HETATM    2  C6  UNL     1      23.735  34.655   5.497  1.00  0.00     0.134 C 
HETATM    3  C7  UNL     1      24.783  33.614   5.434  1.00  0.00     0.043 C 
HETATM    4  C8  UNL     1      25.710  33.638   4.214  1.00  0.00     0.036 C 
HETATM    5  C9  UNL     1      25.741  32.237   3.572  1.00  0.00     0.010 C 
HETATM    6  C10 UNL     1      25.349  32.179   2.137  1.00  0.00     0.001 C 
HETATM    7  C11 UNL     1      23.976  32.774   1.788  1.00  0.00     0.011 C 
HETATM    8  C12 UNL     1      23.620  33.514   2.997  1.00  0.00     0.049 C 
HETATM    9  C13 UNL     1      24.853  34.322   3.214  1.00  0.00     0.019 C 
HETATM   10  N1  UNL     1      25.203  35.379   2.693  1.00  0.00    -0.277 N 
ATOM     11  H1  UNL     1      26.111  35.702   3.025  1.00  0.00     0.193 HD
HETATM   12  C14 UNL     1      22.527  34.387   3.261  1.00  0.00     0.084 C 
HETATM   13  S3  UNL     1      20.913  33.863   2.644  1.00  0.00    -0.090 SA
ENDROOT
BRANCH   1  14
HETATM   14  S2  UNL     1      21.071  35.429   5.326  1.00  0.00    -0.130 SA
BRANCH  14  15
HETATM   15  C3  UNL     1      20.087  34.815   6.653  1.00  0.00     0.130 C 
HETATM   16 CL1  UNL     1      20.301  33.024   6.803  1.00  0.00    -0.103 Cl
BRANCH  15  17
HETATM   17  C2  UNL     1      20.630  35.369   7.966  1.00  0.00     0.253 C 
BRANCH  17  18
HETATM   18  C1  UNL     1      21.191  36.705   7.886  1.00  0.00     0.205 C 
HETATM   19  O1  UNL     1      20.419  37.714   7.896  1.00  0.00    -0.646 OA
HETATM   20  O2  UNL     1      22.579  36.905   7.794  1.00  0.00    -0.646 OA
ENDBRANCH  17  18
BRANCH  17  21
HETATM   21  O3  UNL     1      21.672  34.471   8.314  1.00  0.00    -0.382 OA
ATOM     22  H3  UNL     1      21.675  34.372   9.259  1.00  0.00     0.210 HD
ENDBRANCH  17  21
ENDBRANCH  15  17
BRANCH  15  23
HETATM   23  C4  UNL     1      18.630  35.054   6.569  1.00  0.00     0.126 C 
HETATM   24  S1  UNL     1      17.854  33.851   5.431  1.00  0.00    -0.095 SA
ENDBRANCH  15  23
ENDBRANCH  14  15
ENDBRANCH   1  14
BRANCH   2  25
HETATM   25  O4  UNL     1      24.213  35.981   5.415  1.00  0.00    -0.394 OA
ATOM     26  H4  UNL     1      24.448  36.358   6.254  1.00  0.00     0.210 HD
ENDBRANCH   2  25
BRANCH  10  27
HETATM   27  O5  UNL     1      24.657  36.202   1.785  1.00  0.00    -0.290 OA
ATOM     28  H5  UNL     1      24.702  36.268   0.839  1.00  0.00     0.244 HD
ENDBRANCH  10  27
TORSDOF 8
ENDMDL
