MODEL 1
REMARK VINA RESULT: -8.749298609      0.000      0.000
REMARK  9 active torsions:
REMARK  status: ('A' for Active; 'I' for Inactive)
REMARK    1  A    between atoms: C2_2  and  O1_3 
REMARK    2  A    between atoms: N1_6  and  C4_7 
REMARK    3  A    between atoms: C5_10  and  C6_11 
REMARK    4  A    between atoms: C6_11  and  N3_12 
REMARK    5  A    between atoms: C7_18  and  N5_19 
REMARK    6  A    between atoms: N7_26  and  C10_27 
REMARK    7  A    between atoms: C11_32  and  C12_33 
REMARK    8  A    between atoms: C12_33  and  O2_34 
REMARK    9  A    between atoms: C12_33  and  O3_36 
ROOT
HETATM    1  C1  UNL     1      17.269  18.819   7.502  1.00  0.00     0.072 C 
HETATM    2  C2  UNL     1      15.942  19.376   7.925  1.00  0.00     0.148 C 
HETATM    3  C3  UNL     1      16.126  20.311   9.080  1.00  0.00     0.201 C 
HETATM    4  N1  UNL     1      16.719  19.567  10.169  1.00  0.00    -0.211 N 
HETATM    5  C8  UNL     1      16.300  18.188  10.378  1.00  0.00     0.161 C 
HETATM    6  C9  UNL     1      15.016  17.868   9.656  1.00  0.00     0.148 C 
HETATM    7  N7  UNL     1      15.059  18.266   8.280  1.00  0.00    -0.326 N 
ENDROOT
BRANCH   4   8
HETATM    8  C4  UNL     1      17.674  20.179  10.991  1.00  0.00     0.696 A 
HETATM    9  N2  UNL     1      18.238  19.571  12.058  1.00  0.00    -0.178 N 
HETATM   10  C5  UNL     1      19.148  20.183  12.824  1.00  0.00     0.138 A 
ATOM     11  H2  UNL     1      17.962  18.617  12.286  1.00  0.00     0.185 HD
HETATM   12  N4  UNL     1      19.512  21.436  12.526  1.00  0.00    -0.178 N 
HETATM   13  C7  UNL     1      18.978  22.087  11.472  1.00  0.00     0.691 A 
ATOM     14  H4  UNL     1      20.205  21.908  13.106  1.00  0.00     0.185 HD
HETATM   15  N6  UNL     1      18.070  21.435  10.730  1.00  0.00    -0.022 N 
ATOM     16  H6  UNL     1      17.660  21.916   9.930  1.00  0.00     0.203 HD
BRANCH  10  17
HETATM   17  C6  UNL     1      19.791  19.545  14.007  1.00  0.00     0.306 C 
BRANCH  17  18
HETATM   18  N3  UNL     1      21.234  19.704  13.966  1.00  0.00    -0.073 N 
ATOM     19  H33 UNL     1      21.662  19.077  13.285  1.00  0.00     0.274 HD
ATOM     20  H32 UNL     1      21.503  20.595  13.548  1.00  0.00     0.274 HD
ATOM     21  H31 UNL     1      21.644  19.586  14.893  1.00  0.00     0.274 HD
ENDBRANCH  17  18
ENDBRANCH  10  17
BRANCH  13  22
HETATM   22  N5  UNL     1      19.348  23.302  11.202  1.00  0.00    -0.234 N 
ATOM     23  H52 UNL     1      19.467  24.007  11.930  1.00  0.00     0.174 HD
ATOM     24  H51 UNL     1      19.527  23.579  10.237  1.00  0.00     0.174 HD
ENDBRANCH  13  22
ENDBRANCH   4   8
BRANCH   2  25
HETATM   25  O1  UNL     1      15.366  20.018   6.819  1.00  0.00    -0.369 OA
ATOM     26  H1  UNL     1      15.898  20.776   6.608  1.00  0.00     0.212 HD
ENDBRANCH   2  25
BRANCH   7  27
HETATM   27  C10 UNL     1      14.287  17.637   7.248  1.00  0.00     0.165 A 
HETATM   28  N8  UNL     1      13.102  18.030   6.792  1.00  0.00    -0.279 N 
HETATM   29  N9  UNL     1      12.532  17.378   5.874  1.00  0.00    -0.291 N 
ATOM     30  H8  UNL     1      12.653  18.857   7.184  1.00  0.00     0.189 HD
HETATM   31  C11 UNL     1      13.118  16.299   5.365  1.00  0.00     0.124 A 
ATOM     32  H9  UNL     1      11.623  17.678   5.524  1.00  0.00     0.187 HD
HETATM   33  S1  UNL     1      14.565  16.253   6.283  1.00  0.00    -0.033 SA
BRANCH  31  34
HETATM   34  C12 UNL     1      12.632  15.383   4.282  1.00  0.00     0.314 C 
BRANCH  34  35
HETATM   35  O2  UNL     1      12.490  14.098   4.841  1.00  0.00    -0.365 OA
ATOM     36  H2  UNL     1      12.140  13.527   4.166  1.00  0.00     0.213 HD
ENDBRANCH  34  35
BRANCH  34  37
HETATM   37  O3  UNL     1      11.442  15.824   3.720  1.00  0.00    -0.365 OA
ATOM     38  H3  UNL     1      11.079  15.192   3.110  1.00  0.00     0.213 HD
ENDBRANCH  34  37
ENDBRANCH  31  34
ENDBRANCH   7  27
TORSDOF 9
ENDMDL
MODEL 2
REMARK VINA RESULT: -8.631785253      0.752      2.030
REMARK  9 active torsions:
REMARK  status: ('A' for Active; 'I' for Inactive)
REMARK    1  A    between atoms: C2_2  and  O1_3 
REMARK    2  A    between atoms: N1_6  and  C4_7 
REMARK    3  A    between atoms: C5_10  and  C6_11 
REMARK    4  A    between atoms: C6_11  and  N3_12 
REMARK    5  A    between atoms: C7_18  and  N5_19 
REMARK    6  A    between atoms: N7_26  and  C10_27 
REMARK    7  A    between atoms: C11_32  and  C12_33 
REMARK    8  A    between atoms: C12_33  and  O2_34 
REMARK    9  A    between atoms: C12_33  and  O3_36 
ROOT
HETATM    1  C1  UNL     1      17.087  18.594   7.386  1.00  0.00     0.072 C 
HETATM    2  C2  UNL     1      15.738  19.107   7.793  1.00  0.00     0.148 C 
HETATM    3  C3  UNL     1      15.873  20.008   8.982  1.00  0.00     0.201 C 
HETATM    4  N1  UNL     1      16.457  19.242  10.061  1.00  0.00    -0.211 N 
HETATM    5  C8  UNL     1      16.064  17.848  10.215  1.00  0.00     0.161 C 
HETATM    6  C9  UNL     1      14.805  17.524   9.452  1.00  0.00     0.148 C 
HETATM    7  N7  UNL     1      14.871  17.968   8.091  1.00  0.00    -0.326 N 
ENDROOT
BRANCH   4   8
HETATM    8  C4  UNL     1      17.379  19.847  10.925  1.00  0.00     0.696 A 
HETATM    9  N2  UNL     1      17.932  21.057  10.696  1.00  0.00    -0.178 N 
HETATM   10  C5  UNL     1      18.810  21.609  11.541  1.00  0.00     0.138 A 
ATOM     11  H2  UNL     1      17.672  21.568   9.852  1.00  0.00     0.185 HD
HETATM   12  N4  UNL     1      19.151  20.940  12.650  1.00  0.00    -0.178 N 
HETATM   13  C7  UNL     1      18.628  19.728  12.925  1.00  0.00     0.691 A 
ATOM     14  H4  UNL     1      19.819  21.355  13.299  1.00  0.00     0.185 HD
HETATM   15  N6  UNL     1      17.750  19.214  12.049  1.00  0.00    -0.022 N 
ATOM     16  H6  UNL     1      17.347  18.298  12.247  1.00  0.00     0.203 HD
BRANCH  10  17
HETATM   17  C6  UNL     1      19.439  22.940  11.323  1.00  0.00     0.306 C 
BRANCH  17  18
HETATM   18  N3  UNL     1      19.401  23.314   9.919  1.00  0.00    -0.073 N 
ATOM     19  H33 UNL     1      20.279  23.097   9.449  1.00  0.00     0.274 HD
ATOM     20  H32 UNL     1      18.783  22.703   9.385  1.00  0.00     0.274 HD
ATOM     21  H31 UNL     1      19.147  24.295   9.807  1.00  0.00     0.274 HD
ENDBRANCH  17  18
ENDBRANCH  10  17
BRANCH  13  22
HETATM   22  N5  UNL     1      18.974  19.100  14.006  1.00  0.00    -0.234 N 
ATOM     23  H52 UNL     1      19.908  18.710  14.132  1.00  0.00     0.174 HD
ATOM     24  H51 UNL     1      18.303  18.980  14.766  1.00  0.00     0.174 HD
ENDBRANCH  13  22
ENDBRANCH   4   8
BRANCH   2  25
HETATM   25  O1  UNL     1      15.174  19.773   6.695  1.00  0.00    -0.369 OA
ATOM     26  H1  UNL     1      14.875  20.625   6.988  1.00  0.00     0.212 HD
ENDBRANCH   2  25
BRANCH   7  27
HETATM   27  C10 UNL     1      14.138  17.356   7.020  1.00  0.00     0.165 A 
HETATM   28  N8  UNL     1      12.963  17.748   6.538  1.00  0.00    -0.279 N 
HETATM   29  N9  UNL     1      12.429  17.113   5.588  1.00  0.00    -0.291 N 
ATOM     30  H8  UNL     1      12.493  18.560   6.936  1.00  0.00     0.189 HD
HETATM   31  C11 UNL     1      13.042  16.054   5.070  1.00  0.00     0.124 A 
ATOM     32  H9  UNL     1      11.527  17.412   5.217  1.00  0.00     0.187 HD
HETATM   33  S1  UNL     1      14.461  16.000   6.031  1.00  0.00    -0.033 SA
BRANCH  31  34
HETATM   34  C12 UNL     1      12.600  15.159   3.951  1.00  0.00     0.314 C 
BRANCH  34  35
HETATM   35  O2  UNL     1      12.595  13.837   4.436  1.00  0.00    -0.365 OA
ATOM     36  H2  UNL     1      11.704  13.626   4.690  1.00  0.00     0.213 HD
ENDBRANCH  34  35
BRANCH  34  37
HETATM   37  O3  UNL     1      11.355  15.521   3.456  1.00  0.00    -0.365 OA
ATOM     38  H3  UNL     1      11.414  15.902   2.587  1.00  0.00     0.213 HD
ENDBRANCH  34  37
ENDBRANCH  31  34
ENDBRANCH   7  27
TORSDOF 9
ENDMDL
MODEL 3
REMARK VINA RESULT: -8.235454125      0.999      1.567
REMARK  9 active torsions:
REMARK  status: ('A' for Active; 'I' for Inactive)
REMARK    1  A    between atoms: C2_2  and  O1_3 
REMARK    2  A    between atoms: N1_6  and  C4_7 
REMARK    3  A    between atoms: C5_10  and  C6_11 
REMARK    4  A    between atoms: C6_11  and  N3_12 
REMARK    5  A    between atoms: C7_18  and  N5_19 
REMARK    6  A    between atoms: N7_26  and  C10_27 
REMARK    7  A    between atoms: C11_32  and  C12_33 
REMARK    8  A    between atoms: C12_33  and  O2_34 
REMARK    9  A    between atoms: C12_33  and  O3_36 
ROOT
HETATM    1  C1  UNL     1      14.610  18.788   9.937  1.00  0.00     0.072 C 
HETATM    2  C2  UNL     1      15.594  17.992   9.131  1.00  0.00     0.148 C 
HETATM    3  C3  UNL     1      16.979  18.215   9.654  1.00  0.00     0.201 C 
HETATM    4  N1  UNL     1      17.278  19.626   9.546  1.00  0.00    -0.211 N 
HETATM    5  C8  UNL     1      16.788  20.352   8.382  1.00  0.00     0.161 C 
HETATM    6  C9  UNL     1      16.369  19.427   7.269  1.00  0.00     0.148 C 
HETATM    7  N7  UNL     1      15.488  18.395   7.729  1.00  0.00    -0.326 N 
ENDROOT
BRANCH   4   8
HETATM    8  C4  UNL     1      18.022  20.259  10.549  1.00  0.00     0.696 A 
HETATM    9  N2  UNL     1      18.440  19.636  11.672  1.00  0.00    -0.178 N 
HETATM   10  C5  UNL     1      19.150  20.269  12.613  1.00  0.00     0.138 A 
ATOM     11  H2  UNL     1      18.207  18.653  11.808  1.00  0.00     0.185 HD
HETATM   12  N4  UNL     1      19.457  21.560  12.436  1.00  0.00    -0.178 N 
HETATM   13  C7  UNL     1      19.063  22.227  11.332  1.00  0.00     0.691 A 
ATOM     14  H4  UNL     1      19.998  22.048  13.149  1.00  0.00     0.185 HD
HETATM   15  N6  UNL     1      18.353  21.553  10.415  1.00  0.00    -0.022 N 
ATOM     16  H6  UNL     1      18.051  22.047   9.575  1.00  0.00     0.203 HD
BRANCH  10  17
HETATM   17  C6  UNL     1      19.628  19.616  13.863  1.00  0.00     0.306 C 
BRANCH  17  18
HETATM   18  N3  UNL     1      21.067  19.750  14.006  1.00  0.00    -0.073 N 
ATOM     19  H33 UNL     1      21.454  19.021  14.606  1.00  0.00     0.274 HD
ATOM     20  H32 UNL     1      21.554  19.515  13.141  1.00  0.00     0.274 HD
ATOM     21  H31 UNL     1      21.319  20.682  14.338  1.00  0.00     0.274 HD
ENDBRANCH  17  18
ENDBRANCH  10  17
BRANCH  13  22
HETATM   22  N5  UNL     1      19.374  23.479  11.183  1.00  0.00    -0.234 N 
ATOM     23  H52 UNL     1      20.318  23.828  11.348  1.00  0.00     0.174 HD
ATOM     24  H51 UNL     1      18.663  24.151  10.892  1.00  0.00     0.174 HD
ENDBRANCH  13  22
ENDBRANCH   4   8
BRANCH   2  25
HETATM   25  O1  UNL     1      15.221  16.642   9.197  1.00  0.00    -0.369 OA
ATOM     26  H1  UNL     1      14.347  16.559   8.835  1.00  0.00     0.212 HD
ENDBRANCH   2  25
BRANCH   7  27
HETATM   27  C10 UNL     1      14.520  17.746   6.893  1.00  0.00     0.165 A 
HETATM   28  N8  UNL     1      13.202  17.920   6.921  1.00  0.00    -0.279 N 
HETATM   29  N9  UNL     1      12.464  17.280   6.123  1.00  0.00    -0.291 N 
ATOM     30  H8  UNL     1      12.788  18.571   7.588  1.00  0.00     0.189 HD
HETATM   31  C11 UNL     1      13.006  16.431   5.255  1.00  0.00     0.124 A 
ATOM     32  H9  UNL     1      11.454  17.413   6.144  1.00  0.00     0.187 HD
HETATM   33  S1  UNL     1      14.669  16.592   5.641  1.00  0.00    -0.033 SA
BRANCH  31  34
HETATM   34  C12 UNL     1      12.332  15.575   4.226  1.00  0.00     0.314 C 
BRANCH  34  35
HETATM   35  O2  UNL     1      12.299  14.256   4.721  1.00  0.00    -0.365 OA
ATOM     36  H2  UNL     1      11.981  13.694   4.024  1.00  0.00     0.213 HD
ENDBRANCH  34  35
BRANCH  34  37
HETATM   37  O3  UNL     1      11.057  16.032   3.921  1.00  0.00    -0.365 OA
ATOM     38  H3  UNL     1      10.449  15.897   4.638  1.00  0.00     0.213 HD
ENDBRANCH  34  37
ENDBRANCH  31  34
ENDBRANCH   7  27
TORSDOF 9
ENDMDL
MODEL 4
REMARK VINA RESULT: -8.166702743      1.022      1.023
REMARK  9 active torsions:
REMARK  status: ('A' for Active; 'I' for Inactive)
REMARK    1  A    between atoms: C2_2  and  O1_3 
REMARK    2  A    between atoms: N1_6  and  C4_7 
REMARK    3  A    between atoms: C5_10  and  C6_11 
REMARK    4  A    between atoms: C6_11  and  N3_12 
REMARK    5  A    between atoms: C7_18  and  N5_19 
REMARK    6  A    between atoms: N7_26  and  C10_27 
REMARK    7  A    between atoms: C11_32  and  C12_33 
REMARK    8  A    between atoms: C12_33  and  O2_34 
REMARK    9  A    between atoms: C12_33  and  O3_36 
ROOT
HETATM    1  C1  UNL     1      17.482  17.906   7.485  1.00  0.00     0.072 C 
HETATM    2  C2  UNL     1      16.402  18.921   7.252  1.00  0.00     0.148 C 
HETATM    3  C3  UNL     1      16.643  20.127   8.107  1.00  0.00     0.201 C 
HETATM    4  N1  UNL     1      16.635  19.704   9.490  1.00  0.00    -0.211 N 
HETATM    5  C8  UNL     1      15.690  18.672   9.896  1.00  0.00     0.161 C 
HETATM    6  C9  UNL     1      14.593  18.476   8.881  1.00  0.00     0.148 C 
HETATM    7  N7  UNL     1      15.109  18.310   7.554  1.00  0.00    -0.326 N 
ENDROOT
BRANCH   4   8
HETATM    8  C4  UNL     1      17.524  20.287  10.402  1.00  0.00     0.696 A 
HETATM    9  N2  UNL     1      17.891  19.702  11.563  1.00  0.00    -0.178 N 
HETATM   10  C5  UNL     1      18.743  20.285  12.414  1.00  0.00     0.138 A 
ATOM     11  H2  UNL     1      17.508  18.787  11.798  1.00  0.00     0.185 HD
HETATM   12  N4  UNL     1      19.247  21.486  12.107  1.00  0.00    -0.178 N 
HETATM   13  C7  UNL     1      18.912  22.113  10.961  1.00  0.00     0.691 A 
ATOM     14  H4  UNL     1      19.897  21.936  12.751  1.00  0.00     0.185 HD
HETATM   15  N6  UNL     1      18.055  21.491  10.136  1.00  0.00    -0.022 N 
ATOM     16  H6  UNL     1      17.795  21.955   9.266  1.00  0.00     0.203 HD
BRANCH  10  17
HETATM   17  C6  UNL     1      19.171  19.670  13.701  1.00  0.00     0.306 C 
BRANCH  17  18
HETATM   18  N3  UNL     1      18.387  18.485  14.001  1.00  0.00    -0.073 N 
ATOM     19  H33 UNL     1      17.577  18.404  13.387  1.00  0.00     0.274 HD
ATOM     20  H32 UNL     1      18.876  17.632  13.728  1.00  0.00     0.274 HD
ATOM     21  H31 UNL     1      18.115  18.463  14.985  1.00  0.00     0.274 HD
ENDBRANCH  17  18
ENDBRANCH  10  17
BRANCH  13  22
HETATM   22  N5  UNL     1      19.414  23.278  10.685  1.00  0.00    -0.234 N 
ATOM     23  H52 UNL     1      18.838  24.117  10.625  1.00  0.00     0.174 HD
ATOM     24  H51 UNL     1      20.416  23.376  10.518  1.00  0.00     0.174 HD
ENDBRANCH  13  22
ENDBRANCH   4   8
BRANCH   2  25
HETATM   25  O1  UNL     1      16.393  19.243   5.887  1.00  0.00    -0.369 OA
ATOM     26  H1  UNL     1      16.202  18.451   5.399  1.00  0.00     0.212 HD
ENDBRANCH   2  25
BRANCH   7  27
HETATM   27  C10 UNL     1      14.427  17.584   6.523  1.00  0.00     0.165 A 
HETATM   28  N8  UNL     1      13.539  18.072   5.663  1.00  0.00    -0.279 N 
HETATM   29  N9  UNL     1      13.014  17.315   4.801  1.00  0.00    -0.291 N 
ATOM     30  H8  UNL     1      13.282  19.058   5.699  1.00  0.00     0.189 HD
HETATM   31  C11 UNL     1      13.350  16.030   4.755  1.00  0.00     0.124 A 
ATOM     32  H9  UNL     1      12.332  17.688   4.141  1.00  0.00     0.187 HD
HETATM   33  S1  UNL     1      14.485  15.946   6.037  1.00  0.00    -0.033 SA
BRANCH  31  34
HETATM   34  C12 UNL     1      12.861  14.958   3.827  1.00  0.00     0.314 C 
BRANCH  34  35
HETATM   35  O2  UNL     1      12.711  13.777   4.579  1.00  0.00    -0.365 OA
ATOM     36  H2  UNL     1      12.896  13.043   4.003  1.00  0.00     0.213 HD
ENDBRANCH  34  35
BRANCH  34  37
HETATM   37  O3  UNL     1      11.674  15.313   3.201  1.00  0.00    -0.365 OA
ATOM     38  H3  UNL     1      11.198  14.555   2.882  1.00  0.00     0.213 HD
ENDBRANCH  34  37
ENDBRANCH  31  34
ENDBRANCH   7  27
TORSDOF 9
ENDMDL
MODEL 5
REMARK VINA RESULT: -8.150003572      3.049      9.156
REMARK  9 active torsions:
REMARK  status: ('A' for Active; 'I' for Inactive)
REMARK    1  A    between atoms: C2_2  and  O1_3 
REMARK    2  A    between atoms: N1_6  and  C4_7 
REMARK    3  A    between atoms: C5_10  and  C6_11 
REMARK    4  A    between atoms: C6_11  and  N3_12 
REMARK    5  A    between atoms: C7_18  and  N5_19 
REMARK    6  A    between atoms: N7_26  and  C10_27 
REMARK    7  A    between atoms: C11_32  and  C12_33 
REMARK    8  A    between atoms: C12_33  and  O2_34 
REMARK    9  A    between atoms: C12_33  and  O3_36 
ROOT
HETATM    1  C1  UNL     1      13.932  16.870   9.190  1.00  0.00     0.072 C 
HETATM    2  C2  UNL     1      14.283  18.122   8.442  1.00  0.00     0.148 C 
HETATM    3  C3  UNL     1      13.653  18.099   7.084  1.00  0.00     0.201 C 
HETATM    4  N1  UNL     1      14.157  16.942   6.376  1.00  0.00    -0.211 N 
HETATM    5  C8  UNL     1      15.551  16.566   6.564  1.00  0.00     0.161 C 
HETATM    6  C9  UNL     1      16.363  17.678   7.176  1.00  0.00     0.148 C 
HETATM    7  N7  UNL     1      15.739  18.220   8.347  1.00  0.00    -0.326 N 
ENDROOT
BRANCH   4   8
HETATM    8  C4  UNL     1      13.305  16.216   5.534  1.00  0.00     0.696 A 
HETATM    9  N2  UNL     1      11.968  16.404   5.484  1.00  0.00    -0.178 N 
HETATM   10  C5  UNL     1      11.182  15.693   4.669  1.00  0.00     0.138 A 
ATOM     11  H2  UNL     1      11.546  17.110   6.086  1.00  0.00     0.185 HD
HETATM   12  N4  UNL     1      11.735  14.766   3.877  1.00  0.00    -0.178 N 
HETATM   13  C7  UNL     1      13.064  14.539   3.890  1.00  0.00     0.691 A 
ATOM     14  H4  UNL     1      11.141  14.221   3.253  1.00  0.00     0.185 HD
HETATM   15  N6  UNL     1      13.815  15.276   4.723  1.00  0.00    -0.022 N 
ATOM     16  H6  UNL     1      14.822  15.114   4.740  1.00  0.00     0.203 HD
BRANCH  10  17
HETATM   17  C6  UNL     1       9.706  15.873   4.585  1.00  0.00     0.306 C 
BRANCH  17  18
HETATM   18  N3  UNL     1       9.238  16.830   5.573  1.00  0.00    -0.073 N 
ATOM     19  H33 UNL     1       9.740  16.734   6.456  1.00  0.00     0.274 HD
ATOM     20  H32 UNL     1       9.520  17.781   5.337  1.00  0.00     0.274 HD
ATOM     21  H31 UNL     1       8.229  16.759   5.705  1.00  0.00     0.274 HD
ENDBRANCH  17  18
ENDBRANCH  10  17
BRANCH  13  22
HETATM   22  N5  UNL     1      13.578  13.635   3.113  1.00  0.00    -0.234 N 
ATOM     23  H52 UNL     1      13.007  12.924   2.655  1.00  0.00     0.174 HD
ATOM     24  H51 UNL     1      14.584  13.619   2.943  1.00  0.00     0.174 HD
ENDBRANCH  13  22
ENDBRANCH   4   8
BRANCH   2  25
HETATM   25  O1  UNL     1      13.849  19.219   9.200  1.00  0.00    -0.369 OA
ATOM     26  H1  UNL     1      13.578  19.904   8.601  1.00  0.00     0.212 HD
ENDBRANCH   2  25
BRANCH   7  27
HETATM   27  C10 UNL     1      16.463  18.845   9.415  1.00  0.00     0.165 A 
HETATM   28  N8  UNL     1      16.580  18.398  10.662  1.00  0.00    -0.279 N 
HETATM   29  N9  UNL     1      17.252  19.053  11.506  1.00  0.00    -0.291 N 
ATOM     30  H8  UNL     1      16.127  17.527  10.937  1.00  0.00     0.189 HD
HETATM   31  C11 UNL     1      17.842  20.189  11.146  1.00  0.00     0.124 A 
ATOM     32  H9  UNL     1      17.342  18.712  12.462  1.00  0.00     0.187 HD
HETATM   33  S1  UNL     1      17.380  20.285   9.498  1.00  0.00    -0.033 SA
BRANCH  31  34
HETATM   34  C12 UNL     1      18.679  21.120  11.970  1.00  0.00     0.314 C 
BRANCH  34  35
HETATM   35  O2  UNL     1      18.097  22.400  11.893  1.00  0.00    -0.365 OA
ATOM     36  H2  UNL     1      17.512  22.407  11.145  1.00  0.00     0.213 HD
ENDBRANCH  34  35
BRANCH  34  37
HETATM   37  O3  UNL     1      18.792  20.693  13.286  1.00  0.00    -0.365 OA
ATOM     38  H3  UNL     1      19.341  19.922  13.365  1.00  0.00     0.213 HD
ENDBRANCH  34  37
ENDBRANCH  31  34
ENDBRANCH   7  27
TORSDOF 9
ENDMDL
