MODEL 1
REMARK VINA RESULT: -8.217923585      0.000      0.000
REMARK  9 active torsions:
REMARK  status: ('A' for Active; 'I' for Inactive)
REMARK    1  A    between atoms: C2_2  and  C3_3 
REMARK    2  A    between atoms: C3_3  and  C4_4 
REMARK    3  A    between atoms: C4_4  and  N1_5 
REMARK    4  A    between atoms: C6_7  and  C7_8 
REMARK    5  A    between atoms: C7_8  and  S1_9 
REMARK    6  A    between atoms: S1_9  and  C8_10 
REMARK    7  A    between atoms: C9_13  and  N3_14 
REMARK    8  A    between atoms: C10_19  and  N5_20 
REMARK    9  A    between atoms: C12_29  and  N8_30 
REMARK       I    between atoms: N8_30  and  C13_32 
REMARK       I    between atoms: C13_32  and  N9_33 
REMARK       I    between atoms: C13_32  and  N10_37 
ROOT
HETATM    1  N1  UNL     1      38.455  29.862  22.701  1.00  0.00    -0.193 N 
HETATM    2  C5  UNL     1      39.376  29.346  21.804  1.00  0.00     0.122 A 
HETATM    3  C6  UNL     1      39.183  28.151  21.224  1.00  0.00     0.036 A 
HETATM    4  C11 UNL     1      38.023  27.463  21.555  1.00  0.00     0.268 A 
HETATM    5  O1  UNL     1      37.823  26.332  20.993  1.00  0.00    -0.267 OA
HETATM    6  N7  UNL     1      37.144  27.977  22.432  1.00  0.00    -0.155 N 
ATOM      7  H7  UNL     1      36.305  27.443  22.656  1.00  0.00     0.187 HD
HETATM    8  C12 UNL     1      37.335  29.190  23.036  1.00  0.00     0.686 A 
ENDROOT
BRANCH   3   9
HETATM    9  C7  UNL     1      40.100  27.465  20.255  1.00  0.00     0.128 C 
BRANCH   9  10
HETATM   10  S1  UNL     1      39.684  28.275  18.647  1.00  0.00    -0.088 SA
BRANCH  10  11
HETATM   11  C8  UNL     1      40.992  28.247  17.479  1.00  0.00     0.174 A 
HETATM   12  N2  UNL     1      42.133  28.925  17.830  1.00  0.00    -0.170 N 
HETATM   13  C9  UNL     1      43.199  28.896  17.046  1.00  0.00     0.692 A 
ATOM     14  H2  UNL     1      42.159  29.455  18.701  1.00  0.00     0.186 HD
HETATM   15  N4  UNL     1      43.247  28.228  15.891  1.00  0.00    -0.023 N 
HETATM   16  C10 UNL     1      42.123  27.563  15.543  1.00  0.00     0.692 A 
ATOM     17  H4  UNL     1      44.082  28.220  15.305  1.00  0.00     0.203 HD
HETATM   18  N6  UNL     1      41.010  27.567  16.326  1.00  0.00    -0.170 N 
ATOM     19  H6  UNL     1      40.183  27.047  16.033  1.00  0.00     0.186 HD
BRANCH  13  20
HETATM   20  N3  UNL     1      44.263  29.506  17.421  1.00  0.00    -0.234 N 
ATOM     21  H32 UNL     1      45.119  28.957  17.496  1.00  0.00     0.174 HD
ATOM     22  H31 UNL     1      44.208  30.497  17.655  1.00  0.00     0.174 HD
ENDBRANCH  13  20
BRANCH  16  23
HETATM   23  N5  UNL     1      42.092  26.928  14.427  1.00  0.00    -0.234 N 
ATOM     24  H52 UNL     1      42.870  26.313  14.189  1.00  0.00     0.174 HD
ATOM     25  H51 UNL     1      41.282  27.038  13.816  1.00  0.00     0.174 HD
ENDBRANCH  16  23
ENDBRANCH  10  11
ENDBRANCH   9  10
ENDBRANCH   3   9
BRANCH   1  26
HETATM   26  C4  UNL     1      38.748  31.160  23.201  1.00  0.00     0.147 C 
BRANCH  26  27
HETATM   27  C3  UNL     1      39.154  32.189  22.205  1.00  0.00     0.020 C 
BRANCH  27  28
HETATM   28  C2  UNL     1      38.431  33.486  22.598  1.00  0.00    -0.003 C 
HETATM   29  C1  UNL     1      36.985  33.237  22.987  1.00  0.00     0.005 C 
ENDBRANCH  27  28
ENDBRANCH  26  27
ENDBRANCH   1  26
BRANCH   8  30
HETATM   30  N8  UNL     1      36.583  29.672  23.909  1.00  0.00    -0.173 N 
HETATM   31  C13 UNL     1      35.975  29.248  25.088  1.00  0.00     0.494 C 
HETATM   32  N9  UNL     1      36.226  27.955  25.599  1.00  0.00    -0.032 N 
HETATM   33  N10 UNL     1      36.560  30.149  26.165  1.00  0.00    -0.032 N 
ATOM     34  H93 UNL     1      36.015  27.275  24.868  1.00  0.00     0.278 HD
ATOM     35  H92 UNL     1      37.235  27.841  25.701  1.00  0.00     0.278 HD
ATOM     36  H91 UNL     1      35.780  27.644  26.462  1.00  0.00     0.278 HD
ATOM     37 3H10 UNL     1      37.580  30.148  26.199  1.00  0.00     0.278 HD
ATOM     38 2H10 UNL     1      36.453  31.146  25.978  1.00  0.00     0.278 HD
ATOM     39 1H10 UNL     1      36.114  29.838  27.029  1.00  0.00     0.278 HD
ATOM     40  H8  UNL     1      36.350  30.643  23.701  1.00  0.00     0.181 HD
ENDBRANCH   8  30
TORSDOF 9
ENDMDL
MODEL 2
REMARK VINA RESULT: -8.203411210      0.464      1.638
REMARK  9 active torsions:
REMARK  status: ('A' for Active; 'I' for Inactive)
REMARK    1  A    between atoms: C2_2  and  C3_3 
REMARK    2  A    between atoms: C3_3  and  C4_4 
REMARK    3  A    between atoms: C4_4  and  N1_5 
REMARK    4  A    between atoms: C6_7  and  C7_8 
REMARK    5  A    between atoms: C7_8  and  S1_9 
REMARK    6  A    between atoms: S1_9  and  C8_10 
REMARK    7  A    between atoms: C9_13  and  N3_14 
REMARK    8  A    between atoms: C10_19  and  N5_20 
REMARK    9  A    between atoms: C12_29  and  N8_30 
REMARK       I    between atoms: N8_30  and  C13_32 
REMARK       I    between atoms: C13_32  and  N9_33 
REMARK       I    between atoms: C13_32  and  N10_37 
ROOT
HETATM    1  N1  UNL     1      38.129  29.515  22.474  1.00  0.00    -0.193 N 
HETATM    2  C5  UNL     1      38.918  28.932  21.496  1.00  0.00     0.122 A 
HETATM    3  C6  UNL     1      38.563  27.771  20.923  1.00  0.00     0.036 A 
HETATM    4  C11 UNL     1      37.374  27.190  21.343  1.00  0.00     0.268 A 
HETATM    5  O1  UNL     1      37.021  26.095  20.788  1.00  0.00    -0.267 OA
HETATM    6  N7  UNL     1      36.625  27.769  22.296  1.00  0.00    -0.155 N 
ATOM      7  H7  UNL     1      35.760  27.313  22.584  1.00  0.00     0.187 HD
HETATM    8  C12 UNL     1      36.981  28.948  22.895  1.00  0.00     0.686 A 
ENDROOT
BRANCH   3   9
HETATM    9  C7  UNL     1      39.327  27.019  19.872  1.00  0.00     0.128 C 
BRANCH   9  10
HETATM   10  S1  UNL     1      39.371  28.210  18.460  1.00  0.00    -0.088 SA
BRANCH  10  11
HETATM   11  C8  UNL     1      40.893  28.221  17.588  1.00  0.00     0.174 A 
HETATM   12  N2  UNL     1      40.935  27.482  16.432  1.00  0.00    -0.170 N 
HETATM   13  C9  UNL     1      42.015  27.492  15.667  1.00  0.00     0.692 A 
ATOM     14  H2  UNL     1      40.127  26.921  16.161  1.00  0.00     0.186 HD
HETATM   15  N4  UNL     1      43.112  28.199  15.951  1.00  0.00    -0.023 N 
HETATM   16  C10 UNL     1      43.073  28.925  17.090  1.00  0.00     0.692 A 
ATOM     17  H4  UNL     1      43.932  28.191  15.343  1.00  0.00     0.203 HD
HETATM   18  N6  UNL     1      41.978  28.941  17.898  1.00  0.00    -0.170 N 
ATOM     19  H6  UNL     1      41.984  29.507  18.746  1.00  0.00     0.186 HD
BRANCH  13  20
HETATM   20  N3  UNL     1      42.009  26.822  14.574  1.00  0.00    -0.234 N 
ATOM     21  H32 UNL     1      42.226  25.827  14.630  1.00  0.00     0.174 HD
ATOM     22  H31 UNL     1      41.818  27.308  13.697  1.00  0.00     0.174 HD
ENDBRANCH  13  20
BRANCH  16  23
HETATM   23  N5  UNL     1      44.108  29.600  17.437  1.00  0.00    -0.234 N 
ATOM     24  H52 UNL     1      44.925  29.596  16.826  1.00  0.00     0.174 HD
ATOM     25  H51 UNL     1      44.082  30.139  18.303  1.00  0.00     0.174 HD
ENDBRANCH  16  23
ENDBRANCH  10  11
ENDBRANCH   9  10
ENDBRANCH   3   9
BRANCH   1  26
HETATM   26  C4  UNL     1      38.587  30.771  22.961  1.00  0.00     0.147 C 
BRANCH  26  27
HETATM   27  C3  UNL     1      38.811  31.842  21.953  1.00  0.00     0.020 C 
BRANCH  27  28
HETATM   28  C2  UNL     1      38.287  33.145  22.576  1.00  0.00    -0.003 C 
HETATM   29  C1  UNL     1      36.829  33.033  22.988  1.00  0.00     0.005 C 
ENDBRANCH  27  28
ENDBRANCH  26  27
ENDBRANCH   1  26
BRANCH   8  30
HETATM   30  N8  UNL     1      36.354  29.482  23.833  1.00  0.00    -0.173 N 
HETATM   31  C13 UNL     1      35.927  29.134  25.112  1.00  0.00     0.494 C 
HETATM   32  N9  UNL     1      36.267  27.879  25.665  1.00  0.00    -0.032 N 
HETATM   33  N10 UNL     1      36.646  30.108  26.034  1.00  0.00    -0.032 N 
ATOM     34  H93 UNL     1      35.963  27.152  25.017  1.00  0.00     0.278 HD
ATOM     35  H92 UNL     1      37.281  27.777  25.628  1.00  0.00     0.278 HD
ATOM     36  H91 UNL     1      35.953  27.624  26.601  1.00  0.00     0.278 HD
ATOM     37 3H10 UNL     1      37.660  30.114  25.922  1.00  0.00     0.278 HD
ATOM     38 2H10 UNL     1      36.499  31.090  25.799  1.00  0.00     0.278 HD
ATOM     39 1H10 UNL     1      36.332  29.853  26.970  1.00  0.00     0.278 HD
ATOM     40  H8  UNL     1      36.080  30.436  23.598  1.00  0.00     0.181 HD
ENDBRANCH   8  30
TORSDOF 9
ENDMDL
MODEL 3
REMARK VINA RESULT: -8.157730534      1.822      3.514
REMARK  9 active torsions:
REMARK  status: ('A' for Active; 'I' for Inactive)
REMARK    1  A    between atoms: C2_2  and  C3_3 
REMARK    2  A    between atoms: C3_3  and  C4_4 
REMARK    3  A    between atoms: C4_4  and  N1_5 
REMARK    4  A    between atoms: C6_7  and  C7_8 
REMARK    5  A    between atoms: C7_8  and  S1_9 
REMARK    6  A    between atoms: S1_9  and  C8_10 
REMARK    7  A    between atoms: C9_13  and  N3_14 
REMARK    8  A    between atoms: C10_19  and  N5_20 
REMARK    9  A    between atoms: C12_29  and  N8_30 
REMARK       I    between atoms: N8_30  and  C13_32 
REMARK       I    between atoms: C13_32  and  N9_33 
REMARK       I    between atoms: C13_32  and  N10_37 
ROOT
HETATM    1  N1  UNL     1      38.166  28.253  21.709  1.00  0.00    -0.193 N 
HETATM    2  C5  UNL     1      38.617  28.660  20.464  1.00  0.00     0.122 A 
HETATM    3  C6  UNL     1      39.032  29.920  20.257  1.00  0.00     0.036 A 
HETATM    4  C11 UNL     1      38.998  30.788  21.339  1.00  0.00     0.268 A 
HETATM    5  O1  UNL     1      39.409  31.984  21.154  1.00  0.00    -0.267 OA
HETATM    6  N7  UNL     1      38.552  30.376  22.538  1.00  0.00    -0.155 N 
ATOM      7  H7  UNL     1      38.537  31.041  23.311  1.00  0.00     0.187 HD
HETATM    8  C12 UNL     1      38.118  29.097  22.760  1.00  0.00     0.686 A 
ENDROOT
BRANCH   3   9
HETATM    9  C7  UNL     1      39.524  30.501  18.964  1.00  0.00     0.128 C 
BRANCH   9  10
HETATM   10  S1  UNL     1      39.509  29.047  17.824  1.00  0.00    -0.088 SA
BRANCH  10  11
HETATM   11  C8  UNL     1      41.077  28.668  17.135  1.00  0.00     0.174 A 
HETATM   12  N2  UNL     1      41.076  27.832  16.047  1.00  0.00    -0.170 N 
HETATM   13  C9  UNL     1      42.203  27.552  15.413  1.00  0.00     0.692 A 
ATOM     14  H2  UNL     1      40.198  27.424  15.723  1.00  0.00     0.186 HD
HETATM   15  N4  UNL     1      43.392  28.043  15.772  1.00  0.00    -0.023 N 
HETATM   16  C10 UNL     1      43.395  28.864  16.846  1.00  0.00     0.692 A 
ATOM     17  H4  UNL     1      44.247  27.812  15.266  1.00  0.00     0.203 HD
HETATM   18  N6  UNL     1      42.254  29.178  17.518  1.00  0.00    -0.170 N 
ATOM     19  H6  UNL     1      42.296  29.807  18.319  1.00  0.00     0.186 HD
BRANCH  13  20
HETATM   20  N3  UNL     1      42.163  26.799  14.375  1.00  0.00    -0.234 N 
ATOM     21  H32 UNL     1      41.427  26.094  14.334  1.00  0.00     0.174 HD
ATOM     22  H31 UNL     1      42.876  26.911  13.655  1.00  0.00     0.174 HD
ENDBRANCH  13  20
BRANCH  16  23
HETATM   23  N5  UNL     1      44.511  29.344  17.263  1.00  0.00    -0.234 N 
ATOM     24  H52 UNL     1      45.362  29.132  16.742  1.00  0.00     0.174 HD
ATOM     25  H51 UNL     1      44.516  29.940  18.091  1.00  0.00     0.174 HD
ENDBRANCH  16  23
ENDBRANCH  10  11
ENDBRANCH   9  10
ENDBRANCH   3   9
BRANCH   1  26
HETATM   26  C4  UNL     1      37.809  26.880  21.812  1.00  0.00     0.147 C 
BRANCH  26  27
HETATM   27  C3  UNL     1      36.701  26.406  20.939  1.00  0.00     0.020 C 
BRANCH  27  28
HETATM   28  C2  UNL     1      35.450  27.194  21.355  1.00  0.00    -0.003 C 
HETATM   29  C1  UNL     1      34.880  28.007  20.206  1.00  0.00     0.005 C 
ENDBRANCH  27  28
ENDBRANCH  26  27
ENDBRANCH   1  26
BRANCH   8  30
HETATM   30  N8  UNL     1      37.630  28.692  23.835  1.00  0.00    -0.173 N 
HETATM   31  C13 UNL     1      36.794  29.186  24.834  1.00  0.00     0.494 C 
HETATM   32  N9  UNL     1      36.213  30.468  24.713  1.00  0.00    -0.032 N 
HETATM   33  N10 UNL     1      35.580  28.269  24.806  1.00  0.00    -0.032 N 
ATOM     34  H93 UNL     1      36.961  31.145  24.557  1.00  0.00     0.278 HD
ATOM     35  H92 UNL     1      35.710  30.510  23.826  1.00  0.00     0.278 HD
ATOM     36  H91 UNL     1      35.602  30.830  25.444  1.00  0.00     0.278 HD
ATOM     37 3H10 UNL     1      35.136  28.196  23.890  1.00  0.00     0.278 HD
ATOM     38 2H10 UNL     1      35.804  27.278  24.904  1.00  0.00     0.278 HD
ATOM     39 1H10 UNL     1      34.969  28.631  25.537  1.00  0.00     0.278 HD
ATOM     40  H8  UNL     1      37.923  27.736  24.038  1.00  0.00     0.181 HD
ENDBRANCH   8  30
TORSDOF 9
ENDMDL
MODEL 4
REMARK VINA RESULT: -8.142134275      1.817      3.096
REMARK  9 active torsions:
REMARK  status: ('A' for Active; 'I' for Inactive)
REMARK    1  A    between atoms: C2_2  and  C3_3 
REMARK    2  A    between atoms: C3_3  and  C4_4 
REMARK    3  A    between atoms: C4_4  and  N1_5 
REMARK    4  A    between atoms: C6_7  and  C7_8 
REMARK    5  A    between atoms: C7_8  and  S1_9 
REMARK    6  A    between atoms: S1_9  and  C8_10 
REMARK    7  A    between atoms: C9_13  and  N3_14 
REMARK    8  A    between atoms: C10_19  and  N5_20 
REMARK    9  A    between atoms: C12_29  and  N8_30 
REMARK       I    between atoms: N8_30  and  C13_32 
REMARK       I    between atoms: C13_32  and  N9_33 
REMARK       I    between atoms: C13_32  and  N10_37 
ROOT
HETATM    1  N1  UNL     1      38.176  28.573  22.136  1.00  0.00    -0.193 N 
HETATM    2  C5  UNL     1      38.642  28.778  20.848  1.00  0.00     0.122 A 
HETATM    3  C6  UNL     1      39.157  29.961  20.479  1.00  0.00     0.036 A 
HETATM    4  C11 UNL     1      39.209  30.961  21.440  1.00  0.00     0.268 A 
HETATM    5  O1  UNL     1      39.715  32.085  21.101  1.00  0.00    -0.267 OA
HETATM    6  N7  UNL     1      38.747  30.745  22.683  1.00  0.00    -0.155 N 
ATOM      7  H7  UNL     1      38.797  31.503  23.364  1.00  0.00     0.187 HD
HETATM    8  C12 UNL     1      38.212  29.546  23.069  1.00  0.00     0.686 A 
ENDROOT
BRANCH   3   9
HETATM    9  C7  UNL     1      39.678  30.329  19.120  1.00  0.00     0.128 C 
BRANCH   9  10
HETATM   10  S1  UNL     1      39.640  28.720  18.213  1.00  0.00    -0.088 SA
BRANCH  10  11
HETATM   11  C8  UNL     1      41.021  28.462  17.164  1.00  0.00     0.174 A 
HETATM   12  N2  UNL     1      42.205  29.025  17.571  1.00  0.00    -0.170 N 
HETATM   13  C9  UNL     1      43.318  28.820  16.885  1.00  0.00     0.692 A 
ATOM     14  H2  UNL     1      42.227  29.605  18.410  1.00  0.00     0.186 HD
HETATM   15  N4  UNL     1      43.374  28.074  15.778  1.00  0.00    -0.023 N 
HETATM   16  C10 UNL     1      42.208  27.523  15.374  1.00  0.00     0.692 A 
ATOM     17  H4  UNL     1      44.245  27.931  15.267  1.00  0.00     0.203 HD
HETATM   18  N6  UNL     1      41.047  27.709  16.058  1.00  0.00    -0.170 N 
ATOM     19  H6  UNL     1      40.188  27.270  15.726  1.00  0.00     0.186 HD
BRANCH  13  20
HETATM   20  N3  UNL     1      44.416  29.326  17.313  1.00  0.00    -0.234 N 
ATOM     21  H32 UNL     1      44.612  29.248  18.311  1.00  0.00     0.174 HD
ATOM     22  H31 UNL     1      45.029  29.807  16.655  1.00  0.00     0.174 HD
ENDBRANCH  13  20
BRANCH  16  23
HETATM   23  N5  UNL     1      42.188  26.823  14.298  1.00  0.00    -0.234 N 
ATOM     24  H52 UNL     1      41.928  25.838  14.356  1.00  0.00     0.174 HD
ATOM     25  H51 UNL     1      42.411  27.272  13.409  1.00  0.00     0.174 HD
ENDBRANCH  16  23
ENDBRANCH  10  11
ENDBRANCH   9  10
ENDBRANCH   3   9
BRANCH   1  26
HETATM   26  C4  UNL     1      37.708  27.260  22.417  1.00  0.00     0.147 C 
BRANCH  26  27
HETATM   27  C3  UNL     1      36.840  26.622  21.390  1.00  0.00     0.020 C 
BRANCH  27  28
HETATM   28  C2  UNL     1      35.442  27.239  21.555  1.00  0.00    -0.003 C 
HETATM   29  C1  UNL     1      34.959  27.904  20.279  1.00  0.00     0.005 C 
ENDBRANCH  27  28
ENDBRANCH  26  27
ENDBRANCH   1  26
BRANCH   8  30
HETATM   30  N8  UNL     1      37.706  29.324  24.189  1.00  0.00    -0.173 N 
HETATM   31  C13 UNL     1      36.827  29.960  25.063  1.00  0.00     0.494 C 
HETATM   32  N9  UNL     1      36.209  31.178  24.698  1.00  0.00    -0.032 N 
HETATM   33  N10 UNL     1      35.644  29.010  25.175  1.00  0.00    -0.032 N 
ATOM     34  H93 UNL     1      36.939  31.842  24.438  1.00  0.00     0.278 HD
ATOM     35  H92 UNL     1      35.731  31.039  23.807  1.00  0.00     0.278 HD
ATOM     36  H91 UNL     1      35.566  31.644  25.338  1.00  0.00     0.278 HD
ATOM     37 3H10 UNL     1      35.229  28.756  24.278  1.00  0.00     0.278 HD
ATOM     38 2H10 UNL     1      35.897  28.062  25.456  1.00  0.00     0.278 HD
ATOM     39 1H10 UNL     1      35.001  29.476  25.815  1.00  0.00     0.278 HD
ATOM     40  H8  UNL     1      38.024  28.433  24.569  1.00  0.00     0.181 HD
ENDBRANCH   8  30
TORSDOF 9
ENDMDL
MODEL 5
REMARK VINA RESULT: -7.972292376      1.982      3.190
REMARK  9 active torsions:
REMARK  status: ('A' for Active; 'I' for Inactive)
REMARK    1  A    between atoms: C2_2  and  C3_3 
REMARK    2  A    between atoms: C3_3  and  C4_4 
REMARK    3  A    between atoms: C4_4  and  N1_5 
REMARK    4  A    between atoms: C6_7  and  C7_8 
REMARK    5  A    between atoms: C7_8  and  S1_9 
REMARK    6  A    between atoms: S1_9  and  C8_10 
REMARK    7  A    between atoms: C9_13  and  N3_14 
REMARK    8  A    between atoms: C10_19  and  N5_20 
REMARK    9  A    between atoms: C12_29  and  N8_30 
REMARK       I    between atoms: N8_30  and  C13_32 
REMARK       I    between atoms: C13_32  and  N9_33 
REMARK       I    between atoms: C13_32  and  N10_37 
ROOT
HETATM    1  N1  UNL     1      38.254  29.337  22.476  1.00  0.00    -0.193 N 
HETATM    2  C5  UNL     1      39.306  28.875  21.702  1.00  0.00     0.122 A 
HETATM    3  C6  UNL     1      40.210  29.722  21.187  1.00  0.00     0.036 A 
HETATM    4  C11 UNL     1      40.052  31.073  21.471  1.00  0.00     0.268 A 
HETATM    5  O1  UNL     1      40.921  31.883  21.000  1.00  0.00    -0.267 OA
HETATM    6  N7  UNL     1      39.022  31.502  22.219  1.00  0.00    -0.155 N 
ATOM      7  H7  UNL     1      38.933  32.501  22.404  1.00  0.00     0.187 HD
HETATM    8  C12 UNL     1      38.088  30.649  22.741  1.00  0.00     0.686 A 
ENDROOT
BRANCH   3   9
HETATM    9  C7  UNL     1      41.382  29.367  20.320  1.00  0.00     0.128 C 
BRANCH   9  10
HETATM   10  S1  UNL     1      40.595  28.477  18.905  1.00  0.00    -0.088 SA
BRANCH  10  11
HETATM   11  C8  UNL     1      41.653  28.263  17.523  1.00  0.00     0.174 A 
HETATM   12  N2  UNL     1      42.939  28.722  17.666  1.00  0.00    -0.170 N 
HETATM   13  C9  UNL     1      43.830  28.536  16.706  1.00  0.00     0.692 A 
ATOM     14  H2  UNL     1      43.209  29.212  18.520  1.00  0.00     0.186 HD
HETATM   15  N4  UNL     1      43.558  27.906  15.560  1.00  0.00    -0.023 N 
HETATM   16  C10 UNL     1      42.292  27.456  15.417  1.00  0.00     0.692 A 
ATOM     17  H4  UNL     1      44.264  27.774  14.836  1.00  0.00     0.203 HD
HETATM   18  N6  UNL     1      41.351  27.626  16.385  1.00  0.00    -0.170 N 
ATOM     19  H6  UNL     1      40.408  27.266  16.243  1.00  0.00     0.186 HD
BRANCH  13  20
HETATM   20  N3  UNL     1      45.033  28.942  16.887  1.00  0.00    -0.234 N 
ATOM     21  H32 UNL     1      45.466  29.480  16.135  1.00  0.00     0.174 HD
ATOM     22  H31 UNL     1      45.516  28.692  17.750  1.00  0.00     0.174 HD
ENDBRANCH  13  20
BRANCH  16  23
HETATM   23  N5  UNL     1      41.956  26.872  14.324  1.00  0.00    -0.234 N 
ATOM     24  H52 UNL     1      41.160  27.233  13.798  1.00  0.00     0.174 HD
ATOM     25  H51 UNL     1      42.505  26.076  13.998  1.00  0.00     0.174 HD
ENDBRANCH  16  23
ENDBRANCH  10  11
ENDBRANCH   9  10
ENDBRANCH   3   9
BRANCH   1  26
HETATM   26  C4  UNL     1      37.398  28.334  23.008  1.00  0.00     0.147 C 
BRANCH  26  27
HETATM   27  C3  UNL     1      37.332  27.044  22.268  1.00  0.00     0.020 C 
BRANCH  27  28
HETATM   28  C2  UNL     1      35.942  26.985  21.616  1.00  0.00    -0.003 C 
HETATM   29  C1  UNL     1      36.000  27.259  20.124  1.00  0.00     0.005 C 
ENDBRANCH  27  28
ENDBRANCH  26  27
ENDBRANCH   1  26
BRANCH   8  30
HETATM   30  N8  UNL     1      37.078  31.010  23.380  1.00  0.00    -0.173 N 
HETATM   31  C13 UNL     1      36.752  31.316  24.699  1.00  0.00     0.494 C 
HETATM   32  N9  UNL     1      37.748  31.315  25.702  1.00  0.00    -0.032 N 
HETATM   33  N10 UNL     1      36.325  32.776  24.659  1.00  0.00    -0.032 N 
ATOM     34  H93 UNL     1      38.213  30.407  25.690  1.00  0.00     0.278 HD
ATOM     35  H92 UNL     1      38.501  31.936  25.406  1.00  0.00     0.278 HD
ATOM     36  H91 UNL     1      37.509  31.538  26.668  1.00  0.00     0.278 HD
ATOM     37 3H10 UNL     1      37.018  33.401  24.246  1.00  0.00     0.278 HD
ATOM     38 2H10 UNL     1      35.580  32.974  23.991  1.00  0.00     0.278 HD
ATOM     39 1H10 UNL     1      36.086  32.999  25.625  1.00  0.00     0.278 HD
ATOM     40  H8  UNL     1      36.269  31.109  22.767  1.00  0.00     0.181 HD
ENDBRANCH   8  30
TORSDOF 9
ENDMDL
