MODEL 1
REMARK VINA RESULT: -7.509091291      0.000      0.000
REMARK  7 active torsions:
REMARK  status: ('A' for Active; 'I' for Inactive)
REMARK    1  A    between atoms: C2_2  and  C4_4 
REMARK    2  A    between atoms: C4_4  and  N1_5 
REMARK    3  A    between atoms: N1_5  and  N2_7 
REMARK       I    between atoms: N2_7  and  C5_9 
REMARK    4  A    between atoms: C5_9  and  C6_11 
REMARK    5  A    between atoms: C6_11  and  N3_12 
REMARK    6  A    between atoms: C6_11  and  C7_16 
REMARK       I    between atoms: C7_16  and  N4_18 
REMARK    7  A    between atoms: N4_18  and  C8_20 
ROOT
HETATM    1  C8  UNL     1      12.727  50.099 -47.976  1.00  0.00     0.133 A 
HETATM    2  N5  UNL     1      12.666  50.588 -46.726  1.00  0.00    -0.337 N 
ATOM      3  H5  UNL     1      11.977  51.304 -46.497  1.00  0.00     0.168 HD
HETATM    4  C9  UNL     1      13.492  50.150 -45.788  1.00  0.00     0.183 A 
HETATM    5  N6  UNL     1      14.404  49.202 -46.092  1.00  0.00    -0.340 N 
ATOM      6  H6  UNL     1      15.035  48.871 -45.362  1.00  0.00     0.167 HD
HETATM    7  C10 UNL     1      14.506  48.681 -47.326  1.00  0.00     0.141 A 
HETATM    8  N7  UNL     1      15.465  47.695 -47.612  1.00  0.00    -0.081 NA
HETATM    9  C11 UNL     1      13.648  49.134 -48.309  1.00  0.00     0.129 A 
HETATM   10  C12 UNL     1      13.723  48.598 -49.661  1.00  0.00     0.107 C 
HETATM   11  N8  UNL     1      13.762  48.178 -50.739  1.00  0.00    -0.191 NA
ENDROOT
BRANCH   1  12
HETATM   12  N4  UNL     1      11.927  50.522 -48.895  1.00  0.00    -0.309 N 
HETATM   13  C7  UNL     1      11.916  51.848 -49.380  1.00  0.00     0.263 C 
HETATM   14  O2  UNL     1      11.191  52.685 -48.795  1.00  0.00    -0.270 OA
ATOM     15  H4  UNL     1      11.263  49.858 -49.296  1.00  0.00     0.170 HD
BRANCH  13  16
HETATM   16  C6  UNL     1      12.734  52.207 -50.530  1.00  0.00     0.367 C 
BRANCH  16  17
HETATM   17  C5  UNL     1      12.058  52.973 -51.580  1.00  0.00     0.276 C 
HETATM   18  N2  UNL     1      12.329  54.295 -51.933  1.00  0.00    -0.269 N 
ATOM     19  H2  UNL     1      13.057  54.807 -51.435  1.00  0.00     0.190 HD
HETATM   20  O1  UNL     1      11.138  52.375 -52.231  1.00  0.00    -0.269 OA
BRANCH  18  21
HETATM   21  N1  UNL     1      11.626  54.925 -52.947  1.00  0.00    -0.313 N 
ATOM     22  H1  UNL     1      10.906  54.395 -53.438  1.00  0.00     0.185 HD
BRANCH  21  23
HETATM   23  C4  UNL     1      11.835  56.151 -53.304  1.00  0.00     0.084 C 
BRANCH  23  24
HETATM   24  C2  UNL     1      11.405  57.265 -52.455  1.00  0.00     0.017 C 
HETATM   25  C1  UNL     1      10.064  57.789 -52.977  1.00  0.00     0.015 C 
HETATM   26  C3  UNL     1      12.424  58.386 -52.451  1.00  0.00     0.015 C 
ENDBRANCH  23  24
ENDBRANCH  21  23
ENDBRANCH  18  21
ENDBRANCH  16  17
BRANCH  16  27
HETATM   27  N3  UNL     1      13.929  52.958 -50.126  1.00  0.00    -0.058 N 
ATOM     28  H33 UNL     1      13.855  53.344 -49.184  1.00  0.00     0.275 HD
ATOM     29  H32 UNL     1      14.737  52.357 -49.961  1.00  0.00     0.275 HD
ATOM     30  H31 UNL     1      14.103  53.671 -50.833  1.00  0.00     0.275 HD
ENDBRANCH  16  27
ENDBRANCH  13  16
ENDBRANCH   1  12
TORSDOF 7
ENDMDL
MODEL 2
REMARK VINA RESULT: -7.228835316      3.197      6.446
REMARK  7 active torsions:
REMARK  status: ('A' for Active; 'I' for Inactive)
REMARK    1  A    between atoms: C2_2  and  C4_4 
REMARK    2  A    between atoms: C4_4  and  N1_5 
REMARK    3  A    between atoms: N1_5  and  N2_7 
REMARK       I    between atoms: N2_7  and  C5_9 
REMARK    4  A    between atoms: C5_9  and  C6_11 
REMARK    5  A    between atoms: C6_11  and  N3_12 
REMARK    6  A    between atoms: C6_11  and  C7_16 
REMARK       I    between atoms: C7_16  and  N4_18 
REMARK    7  A    between atoms: N4_18  and  C8_20 
ROOT
HETATM    1  C8  UNL     1      13.713  50.545 -52.388  1.00  0.00     0.133 A 
HETATM    2  N5  UNL     1      12.763  49.596 -52.438  1.00  0.00    -0.337 N 
ATOM      3  H5  UNL     1      11.794  49.840 -52.233  1.00  0.00     0.168 HD
HETATM    4  C9  UNL     1      13.071  48.346 -52.751  1.00  0.00     0.183 A 
HETATM    5  N6  UNL     1      14.354  48.024 -53.023  1.00  0.00    -0.340 N 
ATOM      6  H6  UNL     1      14.581  47.059 -53.263  1.00  0.00     0.167 HD
HETATM    7  C10 UNL     1      15.341  48.935 -52.987  1.00  0.00     0.141 A 
HETATM    8  N7  UNL     1      16.666  48.569 -53.275  1.00  0.00    -0.081 NA
HETATM    9  C11 UNL     1      15.027  50.239 -52.661  1.00  0.00     0.129 A 
HETATM   10  C12 UNL     1      16.064  51.261 -52.609  1.00  0.00     0.107 C 
HETATM   11  N8  UNL     1      16.873  52.087 -52.571  1.00  0.00    -0.191 NA
ENDROOT
BRANCH   1  12
HETATM   12  N4  UNL     1      13.421  51.764 -52.084  1.00  0.00    -0.309 N 
HETATM   13  C7  UNL     1      12.344  52.128 -51.246  1.00  0.00     0.263 C 
HETATM   14  O2  UNL     1      11.224  52.316 -51.771  1.00  0.00    -0.270 OA
ATOM     15  H4  UNL     1      14.002  52.508 -52.470  1.00  0.00     0.170 HD
BRANCH  13  16
HETATM   16  C6  UNL     1      12.558  52.275 -49.813  1.00  0.00     0.367 C 
BRANCH  16  17
HETATM   17  C5  UNL     1      12.200  51.116 -48.992  1.00  0.00     0.276 C 
HETATM   18  N2  UNL     1      11.759  51.154 -47.669  1.00  0.00    -0.269 N 
ATOM     19  H2  UNL     1      11.667  52.053 -47.198  1.00  0.00     0.190 HD
HETATM   20  O1  UNL     1      12.301  49.967 -49.538  1.00  0.00    -0.269 OA
BRANCH  18  21
HETATM   21  N1  UNL     1      11.446  49.991 -46.984  1.00  0.00    -0.313 N 
ATOM     22  H1  UNL     1      10.502  49.616 -47.074  1.00  0.00     0.185 HD
BRANCH  21  23
HETATM   23  C4  UNL     1      12.288  49.356 -46.235  1.00  0.00     0.084 C 
BRANCH  23  24
HETATM   24  C2  UNL     1      13.428  50.050 -45.630  1.00  0.00     0.017 C 
HETATM   25  C1  UNL     1      14.719  49.364 -46.088  1.00  0.00     0.015 C 
HETATM   26  C3  UNL     1      13.350  50.032 -44.117  1.00  0.00     0.015 C 
ENDBRANCH  23  24
ENDBRANCH  21  23
ENDBRANCH  18  21
ENDBRANCH  16  17
BRANCH  16  27
HETATM   27  N3  UNL     1      13.951  52.626 -49.510  1.00  0.00    -0.058 N 
ATOM     28  H33 UNL     1      14.032  53.447 -48.911  1.00  0.00     0.275 HD
ATOM     29  H32 UNL     1      14.400  51.957 -48.884  1.00  0.00     0.275 HD
ATOM     30  H31 UNL     1      14.445  52.732 -50.396  1.00  0.00     0.275 HD
ENDBRANCH  16  27
ENDBRANCH  13  16
ENDBRANCH   1  12
TORSDOF 7
ENDMDL
MODEL 3
REMARK VINA RESULT: -7.179169725      1.767      2.602
REMARK  7 active torsions:
REMARK  status: ('A' for Active; 'I' for Inactive)
REMARK    1  A    between atoms: C2_2  and  C4_4 
REMARK    2  A    between atoms: C4_4  and  N1_5 
REMARK    3  A    between atoms: N1_5  and  N2_7 
REMARK       I    between atoms: N2_7  and  C5_9 
REMARK    4  A    between atoms: C5_9  and  C6_11 
REMARK    5  A    between atoms: C6_11  and  N3_12 
REMARK    6  A    between atoms: C6_11  and  C7_16 
REMARK       I    between atoms: C7_16  and  N4_18 
REMARK    7  A    between atoms: N4_18  and  C8_20 
ROOT
HETATM    1  C8  UNL     1      12.686  51.176 -48.160  1.00  0.00     0.133 A 
HETATM    2  N5  UNL     1      13.806  50.523 -47.803  1.00  0.00    -0.337 N 
ATOM      3  H5  UNL     1      14.715  50.888 -48.086  1.00  0.00     0.168 HD
HETATM    4  C9  UNL     1      13.739  49.411 -47.088  1.00  0.00     0.183 A 
HETATM    5  N6  UNL     1      12.535  48.929 -46.714  1.00  0.00    -0.340 N 
ATOM      6  H6  UNL     1      12.495  48.071 -46.163  1.00  0.00     0.167 HD
HETATM    7  C10 UNL     1      11.387  49.543 -47.045  1.00  0.00     0.141 A 
HETATM    8  N7  UNL     1      10.149  49.016 -46.641  1.00  0.00    -0.081 NA
HETATM    9  C11 UNL     1      11.448  50.703 -47.791  1.00  0.00     0.129 A 
HETATM   10  C12 UNL     1      10.230  51.403 -48.174  1.00  0.00     0.107 C 
HETATM   11  N8  UNL     1       9.272  51.977 -48.480  1.00  0.00    -0.191 NA
ENDROOT
BRANCH   1  12
HETATM   12  N4  UNL     1      12.742  52.260 -48.858  1.00  0.00    -0.309 N 
HETATM   13  C7  UNL     1      13.655  52.469 -49.914  1.00  0.00     0.263 C 
HETATM   14  O2  UNL     1      14.776  52.954 -49.639  1.00  0.00    -0.270 OA
ATOM     15  H4  UNL     1      12.087  53.010 -48.633  1.00  0.00     0.170 HD
BRANCH  13  16
HETATM   16  C6  UNL     1      13.279  52.122 -51.277  1.00  0.00     0.367 C 
BRANCH  16  17
HETATM   17  C5  UNL     1      12.344  53.039 -51.934  1.00  0.00     0.276 C 
HETATM   18  N2  UNL     1      12.561  54.396 -52.174  1.00  0.00    -0.269 N 
ATOM     19  H2  UNL     1      13.439  54.823 -51.878  1.00  0.00     0.190 HD
HETATM   20  O1  UNL     1      11.231  52.551 -52.322  1.00  0.00    -0.269 OA
BRANCH  18  21
HETATM   21  N1  UNL     1      11.604  55.175 -52.806  1.00  0.00    -0.313 N 
ATOM     22  H1  UNL     1      10.694  54.759 -53.001  1.00  0.00     0.185 HD
BRANCH  21  23
HETATM   23  C4  UNL     1      11.807  56.401 -53.164  1.00  0.00     0.084 C 
BRANCH  23  24
HETATM   24  C2  UNL     1      11.291  57.513 -52.360  1.00  0.00     0.017 C 
HETATM   25  C1  UNL     1       9.910  57.904 -52.895  1.00  0.00     0.015 C 
HETATM   26  C3  UNL     1      12.216  58.712 -52.411  1.00  0.00     0.015 C 
ENDBRANCH  23  24
ENDBRANCH  21  23
ENDBRANCH  18  21
ENDBRANCH  16  17
BRANCH  16  27
HETATM   27  N3  UNL     1      14.457  51.986 -52.143  1.00  0.00    -0.058 N 
ATOM     28  H33 UNL     1      14.228  51.625 -53.069  1.00  0.00     0.275 HD
ATOM     29  H32 UNL     1      14.836  52.886 -52.438  1.00  0.00     0.275 HD
ATOM     30  H31 UNL     1      15.140  51.411 -51.651  1.00  0.00     0.275 HD
ENDBRANCH  16  27
ENDBRANCH  13  16
ENDBRANCH   1  12
TORSDOF 7
ENDMDL
MODEL 4
REMARK VINA RESULT: -7.148519806      3.215      6.443
REMARK  7 active torsions:
REMARK  status: ('A' for Active; 'I' for Inactive)
REMARK    1  A    between atoms: C2_2  and  C4_4 
REMARK    2  A    between atoms: C4_4  and  N1_5 
REMARK    3  A    between atoms: N1_5  and  N2_7 
REMARK       I    between atoms: N2_7  and  C5_9 
REMARK    4  A    between atoms: C5_9  and  C6_11 
REMARK    5  A    between atoms: C6_11  and  N3_12 
REMARK    6  A    between atoms: C6_11  and  C7_16 
REMARK       I    between atoms: C7_16  and  N4_18 
REMARK    7  A    between atoms: N4_18  and  C8_20 
ROOT
HETATM    1  C8  UNL     1      13.636  50.361 -51.444  1.00  0.00     0.133 A 
HETATM    2  N5  UNL     1      12.713  49.827 -52.263  1.00  0.00    -0.337 N 
ATOM      3  H5  UNL     1      11.831  50.315 -52.414  1.00  0.00     0.168 HD
HETATM    4  C9  UNL     1      12.939  48.675 -52.875  1.00  0.00     0.183 A 
HETATM    5  N6  UNL     1      14.109  48.031 -52.673  1.00  0.00    -0.340 N 
ATOM      6  H6  UNL     1      14.273  47.144 -53.150  1.00  0.00     0.167 HD
HETATM    7  C10 UNL     1      15.063  48.521 -51.865  1.00  0.00     0.141 A 
HETATM    8  N7  UNL     1      16.270  47.827 -51.676  1.00  0.00    -0.081 NA
HETATM    9  C11 UNL     1      14.834  49.722 -51.224  1.00  0.00     0.129 A 
HETATM   10  C12 UNL     1      15.840  50.292 -50.338  1.00  0.00     0.107 C 
HETATM   11  N8  UNL     1      16.631  50.764 -49.637  1.00  0.00    -0.191 NA
ENDROOT
BRANCH   1  12
HETATM   12  N4  UNL     1      13.424  51.483 -50.844  1.00  0.00    -0.309 N 
HETATM   13  C7  UNL     1      12.139  51.963 -50.506  1.00  0.00     0.263 C 
HETATM   14  O2  UNL     1      11.525  52.652 -51.351  1.00  0.00    -0.270 OA
ATOM     15  H4  UNL     1      14.231  52.057 -50.598  1.00  0.00     0.170 HD
BRANCH  13  16
HETATM   16  C6  UNL     1      11.568  51.651 -49.204  1.00  0.00     0.367 C 
BRANCH  16  17
HETATM   17  C5  UNL     1      12.526  51.513 -48.103  1.00  0.00     0.276 C 
HETATM   18  N2  UNL     1      12.400  50.654 -47.012  1.00  0.00    -0.269 N 
ATOM     19  H2  UNL     1      11.579  50.053 -46.939  1.00  0.00     0.190 HD
HETATM   20  O1  UNL     1      13.569  52.246 -48.149  1.00  0.00    -0.269 OA
BRANCH  18  21
HETATM   21  N1  UNL     1      13.370  50.603 -46.023  1.00  0.00    -0.313 N 
ATOM     22  H1  UNL     1      13.556  51.449 -45.485  1.00  0.00     0.185 HD
BRANCH  21  23
HETATM   23  C4  UNL     1      14.053  49.539 -45.749  1.00  0.00     0.084 C 
BRANCH  23  24
HETATM   24  C2  UNL     1      15.252  49.196 -46.520  1.00  0.00     0.017 C 
HETATM   25  C1  UNL     1      14.894  48.087 -47.514  1.00  0.00     0.015 C 
HETATM   26  C3  UNL     1      16.376  48.730 -45.619  1.00  0.00     0.015 C 
ENDBRANCH  23  24
ENDBRANCH  21  23
ENDBRANCH  18  21
ENDBRANCH  16  17
BRANCH  16  27
HETATM   27  N3  UNL     1      10.566  52.646 -48.803  1.00  0.00    -0.058 N 
ATOM     28  H33 UNL     1      10.620  52.887 -47.814  1.00  0.00     0.275 HD
ATOM     29  H32 UNL     1      10.759  53.575 -49.178  1.00  0.00     0.275 HD
ATOM     30  H31 UNL     1       9.649  52.292 -49.075  1.00  0.00     0.275 HD
ENDBRANCH  16  27
ENDBRANCH  13  16
ENDBRANCH   1  12
TORSDOF 7
ENDMDL
MODEL 5
REMARK VINA RESULT: -7.066357008      2.855      7.269
REMARK  7 active torsions:
REMARK  status: ('A' for Active; 'I' for Inactive)
REMARK    1  A    between atoms: C2_2  and  C4_4 
REMARK    2  A    between atoms: C4_4  and  N1_5 
REMARK    3  A    between atoms: N1_5  and  N2_7 
REMARK       I    between atoms: N2_7  and  C5_9 
REMARK    4  A    between atoms: C5_9  and  C6_11 
REMARK    5  A    between atoms: C6_11  and  N3_12 
REMARK    6  A    between atoms: C6_11  and  C7_16 
REMARK       I    between atoms: C7_16  and  N4_18 
REMARK    7  A    between atoms: N4_18  and  C8_20 
ROOT
HETATM    1  C8  UNL     1      12.571  52.203 -49.872  1.00  0.00     0.133 A 
HETATM    2  N5  UNL     1      11.647  52.598 -50.764  1.00  0.00    -0.337 N 
ATOM      3  H5  UNL     1      10.708  52.839 -50.445  1.00  0.00     0.168 HD
HETATM    4  C9  UNL     1      11.942  52.676 -52.052  1.00  0.00     0.183 A 
HETATM    5  N6  UNL     1      13.184  52.357 -52.472  1.00  0.00    -0.340 N 
ATOM      6  H6  UNL     1      13.401  52.421 -53.467  1.00  0.00     0.167 HD
HETATM    7  C10 UNL     1      14.144  51.957 -51.622  1.00  0.00     0.141 A 
HETATM    8  N7  UNL     1      15.428  51.632 -52.090  1.00  0.00    -0.081 NA
HETATM    9  C11 UNL     1      13.843  51.872 -50.277  1.00  0.00     0.129 A 
HETATM   10  C12 UNL     1      14.852  51.443 -49.318  1.00  0.00     0.107 C 
HETATM   11  N8  UNL     1      15.643  51.113 -48.541  1.00  0.00    -0.191 NA
ENDROOT
BRANCH   1  12
HETATM   12  N4  UNL     1      12.292  52.123 -48.615  1.00  0.00    -0.309 N 
HETATM   13  C7  UNL     1      11.195  51.399 -48.097  1.00  0.00     0.263 C 
HETATM   14  O2  UNL     1      10.096  51.988 -47.990  1.00  0.00    -0.270 OA
ATOM     15  H4  UNL     1      12.899  52.612 -47.956  1.00  0.00     0.170 HD
BRANCH  13  16
HETATM   16  C6  UNL     1      11.365  50.006 -47.708  1.00  0.00     0.367 C 
BRANCH  16  17
HETATM   17  C5  UNL     1      12.681  49.651 -47.169  1.00  0.00     0.276 C 
HETATM   18  N2  UNL     1      13.532  48.666 -47.671  1.00  0.00    -0.269 N 
ATOM     19  H2  UNL     1      13.245  48.124 -48.487  1.00  0.00     0.190 HD
HETATM   20  O1  UNL     1      13.083  50.301 -46.148  1.00  0.00    -0.269 OA
BRANCH  18  21
HETATM   21  N1  UNL     1      14.760  48.412 -47.082  1.00  0.00    -0.313 N 
ATOM     22  H1  UNL     1      14.998  48.910 -46.225  1.00  0.00     0.185 HD
BRANCH  21  23
HETATM   23  C4  UNL     1      15.621  47.575 -47.564  1.00  0.00     0.084 C 
BRANCH  23  24
HETATM   24  C2  UNL     1      16.807  47.191 -46.794  1.00  0.00     0.017 C 
HETATM   25  C1  UNL     1      17.053  48.248 -45.712  1.00  0.00     0.015 C 
HETATM   26  C3  UNL     1      18.031  47.072 -47.679  1.00  0.00     0.015 C 
ENDBRANCH  23  24
ENDBRANCH  21  23
ENDBRANCH  18  21
ENDBRANCH  16  17
BRANCH  16  27
HETATM   27  N3  UNL     1      10.353  49.595 -46.728  1.00  0.00    -0.058 N 
ATOM     28  H33 UNL     1      10.693  49.635 -45.767  1.00  0.00     0.275 HD
ATOM     29  H32 UNL     1       9.596  50.272 -46.632  1.00  0.00     0.275 HD
ATOM     30  H31 UNL     1      10.023  48.667 -46.992  1.00  0.00     0.275 HD
ENDBRANCH  16  27
ENDBRANCH  13  16
ENDBRANCH   1  12
TORSDOF 7
ENDMDL
