MODEL 1
REMARK VINA RESULT: -7.183949604      0.000      0.000
REMARK  10 active torsions:
REMARK  status: ('A' for Active; 'I' for Inactive)
REMARK    1  A    between atoms: N1_1  and  C1_4 
REMARK    2  A    between atoms: C2_7  and  N3_8 
REMARK    3  A    between atoms: N3_8  and  C3_9 
REMARK    4  A    between atoms: C3_9  and  C4_10 
REMARK    5  A    between atoms: C4_10  and  C5_11 
REMARK    6  A    between atoms: C5_11  and  N4_12 
REMARK    7  A    between atoms: N4_12  and  C6_14 
REMARK    8  A    between atoms: C6_14  and  C7_15 
REMARK    9  A    between atoms: C7_15  and  N5_16 
REMARK   10  A    between atoms: C7_15  and  N6_20 
ROOT
HETATM    1  C1  UNL     1       5.534 -15.225   0.090  1.00  0.00     0.680 A 
HETATM    2  N2  UNL     1       5.041 -15.244   1.336  1.00  0.00    -0.162 N 
ATOM      3  H2  UNL     1       5.042 -16.129   1.841  1.00  0.00     0.187 HD
HETATM    4  C2  UNL     1       4.537 -14.139   1.965  1.00  0.00     0.224 A 
HETATM    5  C8  UNL     1       4.546 -12.932   1.247  1.00  0.00     0.154 A 
HETATM    6  N7  UNL     1       4.145 -11.689   1.540  1.00  0.00    -0.278 N 
ATOM      7  H7  UNL     1       3.724 -11.381   2.417  1.00  0.00     0.189 HD
HETATM    8  N8  UNL     1       4.391 -10.938   0.493  1.00  0.00    -0.240 N 
ATOM      9  H8  UNL     1       4.188  -9.941   0.430  1.00  0.00     0.208 HD
HETATM   10  N9  UNL     1       4.939 -11.658  -0.469  1.00  0.00    -0.268 N 
ATOM     11  H9  UNL     1       5.225 -11.313  -1.385  1.00  0.00     0.190 HD
HETATM   12  C9  UNL     1       5.056 -12.936  -0.028  1.00  0.00     0.170 A 
HETATM   13  N10 UNL     1       5.541 -14.064  -0.596  1.00  0.00    -0.173 N 
ATOM     14  H10 UNL     1       5.914 -14.036  -1.546  1.00  0.00     0.186 HD
ENDROOT
BRANCH   4  15
HETATM   15  N3  UNL     1       4.107 -14.188   3.069  1.00  0.00    -0.401 NA
BRANCH  15  16
HETATM   16  C3  UNL     1       3.611 -14.211   4.305  1.00  0.00     0.159 C 
BRANCH  16  17
HETATM   17  C4  UNL     1       4.575 -14.023   5.468  1.00  0.00     0.078 C 
BRANCH  17  18
HETATM   18  C5  UNL     1       4.496 -12.513   5.821  1.00  0.00     0.120 C 
BRANCH  18  19
HETATM   19  N4  UNL     1       3.697 -11.819   4.886  1.00  0.00    -0.417 N 
ATOM     20  H4  UNL     1       3.068 -12.306   4.248  1.00  0.00     0.153 HD
BRANCH  19  21
HETATM   21  C6  UNL     1       3.820 -10.410   4.887  1.00  0.00     0.175 C 
BRANCH  21  22
HETATM   22  C7  UNL     1       2.593  -9.582   4.733  1.00  0.00     0.394 C 
BRANCH  22  23
HETATM   23  N5  UNL     1       2.745  -8.252   4.264  1.00  0.00    -0.049 N 
ATOM     24  H53 UNL     1       2.623  -7.606   5.044  1.00  0.00     0.276 HD
ATOM     25  H52 UNL     1       3.725  -8.090   4.030  1.00  0.00     0.276 HD
ATOM     26  H51 UNL     1       2.160  -7.951   3.486  1.00  0.00     0.276 HD
ENDBRANCH  22  23
BRANCH  22  27
HETATM   27  N6  UNL     1       1.735 -10.293   3.775  1.00  0.00    -0.049 N 
ATOM     28  H63 UNL     1       0.940 -10.760   4.211  1.00  0.00     0.276 HD
ATOM     29  H62 UNL     1       1.198  -9.669   3.172  1.00  0.00     0.276 HD
ATOM     30  H61 UNL     1       2.345 -10.927   3.260  1.00  0.00     0.276 HD
ENDBRANCH  22  27
ENDBRANCH  21  22
ENDBRANCH  19  21
ENDBRANCH  18  19
ENDBRANCH  17  18
ENDBRANCH  16  17
ENDBRANCH  15  16
ENDBRANCH   4  15
BRANCH   1  31
HETATM   31  N1  UNL     1       6.008 -16.270  -0.500  1.00  0.00    -0.234 N 
ATOM     32  H12 UNL     1       6.865 -16.676  -0.125  1.00  0.00     0.174 HD
ATOM     33  H11 UNL     1       5.569 -16.701  -1.314  1.00  0.00     0.174 HD
ENDBRANCH   1  31
TORSDOF 10
ENDMDL
MODEL 2
REMARK VINA RESULT: -7.182243288      1.794      6.750
REMARK  10 active torsions:
REMARK  status: ('A' for Active; 'I' for Inactive)
REMARK    1  A    between atoms: N1_1  and  C1_4 
REMARK    2  A    between atoms: C2_7  and  N3_8 
REMARK    3  A    between atoms: N3_8  and  C3_9 
REMARK    4  A    between atoms: C3_9  and  C4_10 
REMARK    5  A    between atoms: C4_10  and  C5_11 
REMARK    6  A    between atoms: C5_11  and  N4_12 
REMARK    7  A    between atoms: N4_12  and  C6_14 
REMARK    8  A    between atoms: C6_14  and  C7_15 
REMARK    9  A    between atoms: C7_15  and  N5_16 
REMARK   10  A    between atoms: C7_15  and  N6_20 
ROOT
HETATM    1  C1  UNL     1       3.596 -10.691   4.468  1.00  0.00     0.680 A 
HETATM    2  N2  UNL     1       3.506 -11.339   3.299  1.00  0.00    -0.162 N 
ATOM      3  H2  UNL     1       3.204 -10.814   2.478  1.00  0.00     0.187 HD
HETATM    4  C2  UNL     1       3.799 -12.666   3.147  1.00  0.00     0.224 A 
HETATM    5  C8  UNL     1       4.212 -13.367   4.292  1.00  0.00     0.154 A 
HETATM    6  N7  UNL     1       4.570 -14.639   4.509  1.00  0.00    -0.278 N 
ATOM      7  H7  UNL     1       4.604 -15.383   3.812  1.00  0.00     0.189 HD
HETATM    8  N8  UNL     1       4.868 -14.753   5.781  1.00  0.00    -0.240 N 
ATOM      9  H8  UNL     1       5.175 -15.614   6.232  1.00  0.00     0.208 HD
HETATM   10  N9  UNL     1       4.713 -13.594   6.394  1.00  0.00    -0.268 N 
ATOM     11  H9  UNL     1       4.879 -13.415   7.384  1.00  0.00     0.190 HD
HETATM   12  C9  UNL     1       4.296 -12.682   5.480  1.00  0.00     0.170 A 
HETATM   13  N10 UNL     1       3.993 -11.367   5.565  1.00  0.00    -0.173 N 
ATOM     14  H10 UNL     1       4.066 -10.885   6.462  1.00  0.00     0.186 HD
ENDROOT
BRANCH   4  15
HETATM   15  N3  UNL     1       3.710 -13.212   2.098  1.00  0.00    -0.401 NA
BRANCH  15  16
HETATM   16  C3  UNL     1       3.620 -13.855   0.935  1.00  0.00     0.159 C 
BRANCH  16  17
HETATM   17  C4  UNL     1       4.760 -13.696  -0.062  1.00  0.00     0.078 C 
BRANCH  17  18
HETATM   18  C5  UNL     1       5.514 -15.053  -0.035  1.00  0.00     0.120 C 
BRANCH  18  19
HETATM   19  N4  UNL     1       5.473 -15.626   1.254  1.00  0.00    -0.417 N 
ATOM     20  H4  UNL     1       4.912 -15.226   2.005  1.00  0.00     0.153 HD
BRANCH  19  21
HETATM   21  C6  UNL     1       6.256 -16.789   1.442  1.00  0.00     0.175 C 
BRANCH  21  22
HETATM   22  C7  UNL     1       6.222 -17.854   0.402  1.00  0.00     0.394 C 
BRANCH  22  23
HETATM   23  N5  UNL     1       7.431 -18.159  -0.274  1.00  0.00    -0.049 N 
ATOM     24  H53 UNL     1       7.821 -17.302  -0.667  1.00  0.00     0.276 HD
ATOM     25  H52 UNL     1       8.147 -18.400   0.413  1.00  0.00     0.276 HD
ATOM     26  H51 UNL     1       7.405 -18.878  -0.997  1.00  0.00     0.276 HD
ENDBRANCH  22  23
BRANCH  22  27
HETATM   27  N6  UNL     1       5.773 -19.078   1.080  1.00  0.00    -0.049 N 
ATOM     28  H63 UNL     1       5.809 -19.014   2.097  1.00  0.00     0.276 HD
ATOM     29  H62 UNL     1       4.770 -19.240   0.999  1.00  0.00     0.276 HD
ATOM     30  H61 UNL     1       6.338 -19.838   0.702  1.00  0.00     0.276 HD
ENDBRANCH  22  27
ENDBRANCH  21  22
ENDBRANCH  19  21
ENDBRANCH  18  19
ENDBRANCH  17  18
ENDBRANCH  16  17
ENDBRANCH  15  16
ENDBRANCH   4  15
BRANCH   1  31
HETATM   31  N1  UNL     1       3.318  -9.438   4.607  1.00  0.00    -0.234 N 
ATOM     32  H12 UNL     1       3.594  -8.807   3.855  1.00  0.00     0.174 HD
ATOM     33  H11 UNL     1       2.841  -9.058   5.424  1.00  0.00     0.174 HD
ENDBRANCH   1  31
TORSDOF 10
ENDMDL
MODEL 3
REMARK VINA RESULT: -7.147561335      1.971      6.524
REMARK  10 active torsions:
REMARK  status: ('A' for Active; 'I' for Inactive)
REMARK    1  A    between atoms: N1_1  and  C1_4 
REMARK    2  A    between atoms: C2_7  and  N3_8 
REMARK    3  A    between atoms: N3_8  and  C3_9 
REMARK    4  A    between atoms: C3_9  and  C4_10 
REMARK    5  A    between atoms: C4_10  and  C5_11 
REMARK    6  A    between atoms: C5_11  and  N4_12 
REMARK    7  A    between atoms: N4_12  and  C6_14 
REMARK    8  A    between atoms: C6_14  and  C7_15 
REMARK    9  A    between atoms: C7_15  and  N5_16 
REMARK   10  A    between atoms: C7_15  and  N6_20 
ROOT
HETATM    1  C1  UNL     1       3.630 -10.769   4.447  1.00  0.00     0.680 A 
HETATM    2  N2  UNL     1       3.567 -11.414   3.274  1.00  0.00    -0.162 N 
ATOM      3  H2  UNL     1       3.285 -10.886   2.448  1.00  0.00     0.187 HD
HETATM    4  C2  UNL     1       3.861 -12.741   3.125  1.00  0.00     0.224 A 
HETATM    5  C8  UNL     1       4.246 -13.446   4.278  1.00  0.00     0.154 A 
HETATM    6  N7  UNL     1       4.596 -14.719   4.500  1.00  0.00    -0.278 N 
ATOM      7  H7  UNL     1       4.647 -15.461   3.802  1.00  0.00     0.189 HD
HETATM    8  N8  UNL     1       4.863 -14.837   5.779  1.00  0.00    -0.240 N 
ATOM      9  H8  UNL     1       5.158 -15.700   6.234  1.00  0.00     0.208 HD
HETATM   10  N9  UNL     1       4.696 -13.680   6.391  1.00  0.00    -0.268 N 
ATOM     11  H9  UNL     1       4.838 -13.503   7.386  1.00  0.00     0.190 HD
HETATM   12  C9  UNL     1       4.302 -12.765   5.469  1.00  0.00     0.170 A 
HETATM   13  N10 UNL     1       3.999 -11.449   5.551  1.00  0.00    -0.173 N 
ATOM     14  H10 UNL     1       4.051 -10.970   6.451  1.00  0.00     0.186 HD
ENDROOT
BRANCH   4  15
HETATM   15  N3  UNL     1       3.797 -13.284   2.073  1.00  0.00    -0.401 NA
BRANCH  15  16
HETATM   16  C3  UNL     1       3.758 -13.887   0.886  1.00  0.00     0.159 C 
BRANCH  16  17
HETATM   17  C4  UNL     1       5.008 -13.839   0.017  1.00  0.00     0.078 C 
BRANCH  17  18
HETATM   18  C5  UNL     1       5.585 -15.280   0.055  1.00  0.00     0.120 C 
BRANCH  18  19
HETATM   19  N4  UNL     1       5.481 -15.829   1.351  1.00  0.00    -0.417 N 
ATOM     20  H4  UNL     1       4.727 -15.571   1.987  1.00  0.00     0.153 HD
BRANCH  19  21
HETATM   21  C6  UNL     1       6.484 -16.758   1.715  1.00  0.00     0.175 C 
BRANCH  21  22
HETATM   22  C7  UNL     1       6.073 -18.075   2.274  1.00  0.00     0.394 C 
BRANCH  22  23
HETATM   23  N5  UNL     1       5.082 -18.084   3.289  1.00  0.00    -0.049 N 
ATOM     24  H53 UNL     1       5.082 -18.995   3.749  1.00  0.00     0.276 HD
ATOM     25  H52 UNL     1       5.381 -17.480   4.055  1.00  0.00     0.276 HD
ATOM     26  H51 UNL     1       4.127 -17.843   3.025  1.00  0.00     0.276 HD
ENDBRANCH  22  23
BRANCH  22  27
HETATM   27  N6  UNL     1       5.556 -18.859   1.144  1.00  0.00    -0.049 N 
ATOM     28  H63 UNL     1       4.964 -18.319   0.513  1.00  0.00     0.276 HD
ATOM     29  H62 UNL     1       6.272 -19.109   0.463  1.00  0.00     0.276 HD
ATOM     30  H61 UNL     1       5.084 -19.667   1.549  1.00  0.00     0.276 HD
ENDBRANCH  22  27
ENDBRANCH  21  22
ENDBRANCH  19  21
ENDBRANCH  18  19
ENDBRANCH  17  18
ENDBRANCH  16  17
ENDBRANCH  15  16
ENDBRANCH   4  15
BRANCH   1  31
HETATM   31  N1  UNL     1       3.350  -9.516   4.582  1.00  0.00    -0.234 N 
ATOM     32  H12 UNL     1       3.587  -8.894   3.810  1.00  0.00     0.174 HD
ATOM     33  H11 UNL     1       2.910  -9.128   5.416  1.00  0.00     0.174 HD
ENDBRANCH   1  31
TORSDOF 10
ENDMDL
MODEL 4
REMARK VINA RESULT: -7.112882855      2.204      4.936
REMARK  10 active torsions:
REMARK  status: ('A' for Active; 'I' for Inactive)
REMARK    1  A    between atoms: N1_1  and  C1_4 
REMARK    2  A    between atoms: C2_7  and  N3_8 
REMARK    3  A    between atoms: N3_8  and  C3_9 
REMARK    4  A    between atoms: C3_9  and  C4_10 
REMARK    5  A    between atoms: C4_10  and  C5_11 
REMARK    6  A    between atoms: C5_11  and  N4_12 
REMARK    7  A    between atoms: N4_12  and  C6_14 
REMARK    8  A    between atoms: C6_14  and  C7_15 
REMARK    9  A    between atoms: C7_15  and  N5_16 
REMARK   10  A    between atoms: C7_15  and  N6_20 
ROOT
HETATM    1  C1  UNL     1       4.763 -14.535   5.417  1.00  0.00     0.680 A 
HETATM    2  N2  UNL     1       4.825 -14.096   4.152  1.00  0.00    -0.162 N 
ATOM      3  H2  UNL     1       4.758 -13.093   3.986  1.00  0.00     0.187 HD
HETATM    4  C2  UNL     1       4.974 -14.923   3.073  1.00  0.00     0.224 A 
HETATM    5  C8  UNL     1       5.063 -16.301   3.328  1.00  0.00     0.154 A 
HETATM    6  N7  UNL     1       5.210 -17.373   2.538  1.00  0.00    -0.278 N 
ATOM      7  H7  UNL     1       5.287 -17.366   1.521  1.00  0.00     0.189 HD
HETATM    8  N8  UNL     1       5.235 -18.432   3.311  1.00  0.00    -0.240 N 
ATOM      9  H8  UNL     1       5.337 -19.391   2.981  1.00  0.00     0.208 HD
HETATM   10  N9  UNL     1       5.109 -18.080   4.577  1.00  0.00    -0.268 N 
ATOM     11  H9  UNL     1       5.097 -18.714   5.376  1.00  0.00     0.190 HD
HETATM   12  C9  UNL     1       4.997 -16.728   4.632  1.00  0.00     0.170 A 
HETATM   13  N10 UNL     1       4.849 -15.859   5.658  1.00  0.00    -0.173 N 
ATOM     14  H10 UNL     1       4.803 -16.206   6.617  1.00  0.00     0.186 HD
ENDROOT
BRANCH   4  15
HETATM   15  N3  UNL     1       5.026 -14.505   1.965  1.00  0.00    -0.401 NA
BRANCH  15  16
HETATM   16  C3  UNL     1       5.051 -14.043   0.716  1.00  0.00     0.159 C 
BRANCH  16  17
HETATM   17  C4  UNL     1       3.810 -13.335   0.188  1.00  0.00     0.078 C 
BRANCH  17  18
HETATM   18  C5  UNL     1       4.056 -11.827   0.460  1.00  0.00     0.120 C 
BRANCH  18  19
HETATM   19  N4  UNL     1       3.977 -11.545   1.841  1.00  0.00    -0.417 N 
ATOM     20  H4  UNL     1       4.797 -11.281   2.386  1.00  0.00     0.153 HD
BRANCH  19  21
HETATM   21  C6  UNL     1       2.692 -11.651   2.424  1.00  0.00     0.175 C 
BRANCH  21  22
HETATM   22  C7  UNL     1       2.508 -11.221   3.838  1.00  0.00     0.394 C 
BRANCH  22  23
HETATM   23  N5  UNL     1       3.663 -10.851   4.574  1.00  0.00    -0.049 N 
ATOM     24  H53 UNL     1       4.194 -10.162   4.040  1.00  0.00     0.276 HD
ATOM     25  H52 UNL     1       3.381 -10.294   5.381  1.00  0.00     0.276 HD
ATOM     26  H51 UNL     1       4.291 -11.593   4.881  1.00  0.00     0.276 HD
ENDBRANCH  22  23
BRANCH  22  27
HETATM   27  N6  UNL     1       1.615 -10.055   3.800  1.00  0.00    -0.049 N 
ATOM     28  H63 UNL     1       0.631 -10.302   3.700  1.00  0.00     0.276 HD
ATOM     29  H62 UNL     1       1.534  -9.578   4.698  1.00  0.00     0.276 HD
ATOM     30  H61 UNL     1       1.960  -9.454   3.052  1.00  0.00     0.276 HD
ENDBRANCH  22  27
ENDBRANCH  21  22
ENDBRANCH  19  21
ENDBRANCH  18  19
ENDBRANCH  17  18
ENDBRANCH  16  17
ENDBRANCH  15  16
ENDBRANCH   4  15
BRANCH   1  31
HETATM   31  N1  UNL     1       4.622 -13.751   6.432  1.00  0.00    -0.234 N 
ATOM     32  H12 UNL     1       4.510 -12.754   6.247  1.00  0.00     0.174 HD
ATOM     33  H11 UNL     1       4.619 -14.080   7.398  1.00  0.00     0.174 HD
ENDBRANCH   1  31
TORSDOF 10
ENDMDL
MODEL 5
REMARK VINA RESULT: -7.070747604      2.211      4.136
REMARK  10 active torsions:
REMARK  status: ('A' for Active; 'I' for Inactive)
REMARK    1  A    between atoms: N1_1  and  C1_4 
REMARK    2  A    between atoms: C2_7  and  N3_8 
REMARK    3  A    between atoms: N3_8  and  C3_9 
REMARK    4  A    between atoms: C3_9  and  C4_10 
REMARK    5  A    between atoms: C4_10  and  C5_11 
REMARK    6  A    between atoms: C5_11  and  N4_12 
REMARK    7  A    between atoms: N4_12  and  C6_14 
REMARK    8  A    between atoms: C6_14  and  C7_15 
REMARK    9  A    between atoms: C7_15  and  N5_16 
REMARK   10  A    between atoms: C7_15  and  N6_20 
ROOT
HETATM    1  C1  UNL     1       5.466 -17.740   2.115  1.00  0.00     0.680 A 
HETATM    2  N2  UNL     1       5.403 -16.541   1.519  1.00  0.00    -0.162 N 
ATOM      3  H2  UNL     1       5.518 -16.499   0.507  1.00  0.00     0.187 HD
HETATM    4  C2  UNL     1       5.194 -15.371   2.197  1.00  0.00     0.224 A 
HETATM    5  C8  UNL     1       5.040 -15.456   3.590  1.00  0.00     0.154 A 
HETATM    6  N7  UNL     1       4.827 -14.543   4.546  1.00  0.00    -0.278 N 
ATOM      7  H7  UNL     1       4.731 -13.537   4.409  1.00  0.00     0.189 HD
HETATM    8  N8  UNL     1       4.763 -15.179   5.691  1.00  0.00    -0.240 N 
ATOM      9  H8  UNL     1       4.606 -14.735   6.596  1.00  0.00     0.208 HD
HETATM   10  N9  UNL     1       4.929 -16.476   5.506  1.00  0.00    -0.268 N 
ATOM     11  H9  UNL     1       4.923 -17.189   6.235  1.00  0.00     0.190 HD
HETATM   12  C9  UNL     1       5.109 -16.695   4.179  1.00  0.00     0.170 A 
HETATM   13  N10 UNL     1       5.319 -17.817   3.453  1.00  0.00    -0.173 N 
ATOM     14  H10 UNL     1       5.364 -18.724   3.919  1.00  0.00     0.186 HD
ENDROOT
BRANCH   4  15
HETATM   15  N3  UNL     1       5.143 -14.325   1.641  1.00  0.00    -0.401 NA
BRANCH  15  16
HETATM   16  C3  UNL     1       5.120 -13.152   1.011  1.00  0.00     0.159 C 
BRANCH  16  17
HETATM   17  C4  UNL     1       3.910 -12.826   0.147  1.00  0.00     0.078 C 
BRANCH  17  18
HETATM   18  C5  UNL     1       2.935 -12.064   1.084  1.00  0.00     0.120 C 
BRANCH  18  19
HETATM   19  N4  UNL     1       2.487 -12.898   2.131  1.00  0.00    -0.417 N 
ATOM     20  H4  UNL     1       2.468 -13.914   2.040  1.00  0.00     0.153 HD
BRANCH  19  21
HETATM   21  C6  UNL     1       2.068 -12.243   3.313  1.00  0.00     0.175 C 
BRANCH  21  22
HETATM   22  C7  UNL     1       2.751 -10.983   3.716  1.00  0.00     0.394 C 
BRANCH  22  23
HETATM   23  N5  UNL     1       1.942  -9.888   4.109  1.00  0.00    -0.049 N 
ATOM     24  H53 UNL     1       2.327  -9.028   3.716  1.00  0.00     0.276 HD
ATOM     25  H52 UNL     1       1.047  -9.940   3.622  1.00  0.00     0.276 HD
ATOM     26  H51 UNL     1       1.774  -9.753   5.106  1.00  0.00     0.276 HD
ENDBRANCH  22  23
BRANCH  22  27
HETATM   27  N6  UNL     1       3.613 -11.328   4.855  1.00  0.00    -0.049 N 
ATOM     28  H63 UNL     1       3.880 -12.312   4.878  1.00  0.00     0.276 HD
ATOM     29  H62 UNL     1       4.555 -10.945   4.781  1.00  0.00     0.276 HD
ATOM     30  H61 UNL     1       3.117 -11.024   5.692  1.00  0.00     0.276 HD
ENDBRANCH  22  27
ENDBRANCH  21  22
ENDBRANCH  19  21
ENDBRANCH  18  19
ENDBRANCH  17  18
ENDBRANCH  16  17
ENDBRANCH  15  16
ENDBRANCH   4  15
BRANCH   1  31
HETATM   31  N1  UNL     1       5.665 -18.840   1.471  1.00  0.00    -0.234 N 
ATOM     32  H12 UNL     1       5.364 -18.879   0.498  1.00  0.00     0.174 HD
ATOM     33  H11 UNL     1       6.103 -19.662   1.889  1.00  0.00     0.174 HD
ENDBRANCH   1  31
TORSDOF 10
ENDMDL
