MODEL 1
REMARK VINA RESULT: -4.808832843      0.000      0.000
REMARK  4 active torsions:
REMARK  status: ('A' for Active; 'I' for Inactive)
REMARK    1  A    between atoms: N1_2  and  C2_5 
REMARK    2  A    between atoms: C2_5  and  C3_6 
REMARK    3  A    between atoms: C3_6  and  C4_7 
REMARK    4  A    between atoms: C4_7  and  N2_9 
ROOT
HETATM    1  C3  UNL     1      24.014   0.759  26.099  1.00  0.00     0.014 C 
HETATM    2  C6  UNL     1      25.387   0.436  25.583  1.00  0.00     0.041 C 
HETATM    3  C7  UNL     1      26.137   1.582  25.011  1.00  0.00     0.233 C 
HETATM    4  N3  UNL     1      26.087   2.765  25.853  1.00  0.00    -0.075 N 
ATOM      5  H31 UNL     1      26.630   3.529  25.450  1.00  0.00     0.277 HD
ATOM      6  H32 UNL     1      26.615   2.629  26.714  1.00  0.00     0.277 HD
HETATM    7  C8  UNL     1      24.747   3.169  26.124  1.00  0.00     0.233 C 
HETATM    8  C9  UNL     1      23.877   2.105  26.705  1.00  0.00     0.041 C 
ENDROOT
BRANCH   1   9
HETATM    9  C2  UNL     1      23.642  -0.323  27.094  1.00  0.00     0.243 C 
BRANCH   9  10
HETATM   10  N1  UNL     1      23.975  -0.044  28.448  1.00  0.00    -0.078 N 
HETATM   11  C1  UNL     1      22.958  -0.735  29.263  1.00  0.00     0.267 C 
ATOM     12  H12 UNL     1      24.053   0.952  28.652  1.00  0.00     0.276 HD
ATOM     13  H11 UNL     1      24.933  -0.295  28.692  1.00  0.00     0.276 HD
ENDBRANCH   9  10
ENDBRANCH   1   9
BRANCH   1  14
HETATM   14  C4  UNL     1      23.052   0.536  24.916  1.00  0.00     0.189 C 
HETATM   15  C5  UNL     1      22.832  -0.906  24.619  1.00  0.00     0.040 C 
BRANCH  14  16
HETATM   16  N2  UNL     1      21.801   1.198  25.122  1.00  0.00    -0.075 N 
ATOM     17  H23 UNL     1      21.526   1.176  26.104  1.00  0.00     0.274 HD
ATOM     18  H22 UNL     1      21.891   2.207  25.004  1.00  0.00     0.274 HD
ATOM     19  H21 UNL     1      21.070   0.815  24.522  1.00  0.00     0.274 HD
ENDBRANCH  14  16
ENDBRANCH   1  14
TORSDOF 4
ENDMDL
MODEL 2
REMARK VINA RESULT: -4.792405788      1.719      4.141
REMARK  4 active torsions:
REMARK  status: ('A' for Active; 'I' for Inactive)
REMARK    1  A    between atoms: N1_2  and  C2_5 
REMARK    2  A    between atoms: C2_5  and  C3_6 
REMARK    3  A    between atoms: C3_6  and  C4_7 
REMARK    4  A    between atoms: C4_7  and  N2_9 
ROOT
HETATM    1  C3  UNL     1      23.537  -0.045  25.995  1.00  0.00     0.014 C 
HETATM    2  C6  UNL     1      23.207  -0.858  27.213  1.00  0.00     0.041 C 
HETATM    3  C7  UNL     1      22.093  -1.825  27.050  1.00  0.00     0.233 C 
HETATM    4  N3  UNL     1      22.200  -2.608  25.830  1.00  0.00    -0.075 N 
ATOM      5  H31 UNL     1      21.437  -3.281  25.754  1.00  0.00     0.277 HD
ATOM      6  H32 UNL     1      22.984  -3.258  25.875  1.00  0.00     0.277 HD
HETATM    7  C8  UNL     1      22.278  -1.781  24.672  1.00  0.00     0.233 C 
HETATM    8  C9  UNL     1      23.361  -0.756  24.705  1.00  0.00     0.041 C 
ENDROOT
BRANCH   1   9
HETATM    9  C2  UNL     1      24.963   0.444  26.153  1.00  0.00     0.243 C 
BRANCH   9  10
HETATM   10  N1  UNL     1      25.721   0.507  24.951  1.00  0.00    -0.078 N 
HETATM   11  C1  UNL     1      26.240   1.885  24.873  1.00  0.00     0.267 C 
ATOM     12  H12 UNL     1      25.198   0.221  24.123  1.00  0.00     0.276 HD
ATOM     13  H11 UNL     1      26.448  -0.206  24.890  1.00  0.00     0.276 HD
ENDBRANCH   9  10
ENDBRANCH   1   9
BRANCH   1  14
HETATM   14  C4  UNL     1      22.683   1.233  26.092  1.00  0.00     0.189 C 
HETATM   15  C5  UNL     1      23.243   2.226  27.051  1.00  0.00     0.040 C 
BRANCH  14  16
HETATM   16  N2  UNL     1      22.486   1.835  24.811  1.00  0.00    -0.075 N 
ATOM     17  H23 UNL     1      23.112   1.436  24.111  1.00  0.00     0.274 HD
ATOM     18  H22 UNL     1      21.594   1.558  24.402  1.00  0.00     0.274 HD
ATOM     19  H21 UNL     1      22.576   2.851  24.854  1.00  0.00     0.274 HD
ENDBRANCH  14  16
ENDBRANCH   1  14
TORSDOF 4
ENDMDL
MODEL 3
REMARK VINA RESULT: -4.634356672      1.872      4.178
REMARK  4 active torsions:
REMARK  status: ('A' for Active; 'I' for Inactive)
REMARK    1  A    between atoms: N1_2  and  C2_5 
REMARK    2  A    between atoms: C2_5  and  C3_6 
REMARK    3  A    between atoms: C3_6  and  C4_7 
REMARK    4  A    between atoms: C4_7  and  N2_9 
ROOT
HETATM    1  C3  UNL     1      22.805   0.052  25.246  1.00  0.00     0.014 C 
HETATM    2  C6  UNL     1      23.315  -0.552  26.523  1.00  0.00     0.041 C 
HETATM    3  C7  UNL     1      22.555  -1.727  27.018  1.00  0.00     0.233 C 
HETATM    4  N3  UNL     1      22.279  -2.700  25.976  1.00  0.00    -0.075 N 
ATOM      5  H31 UNL     1      21.779  -3.508  26.346  1.00  0.00     0.277 HD
ATOM      6  H32 UNL     1      23.132  -3.166  25.668  1.00  0.00     0.277 HD
HETATM    7  C8  UNL     1      21.582  -2.119  24.877  1.00  0.00     0.233 C 
HETATM    8  C9  UNL     1      22.239  -0.920  24.280  1.00  0.00     0.041 C 
ENDROOT
BRANCH   1   9
HETATM    9  C2  UNL     1      23.951   0.826  24.625  1.00  0.00     0.243 C 
BRANCH   9  10
HETATM   10  N1  UNL     1      25.252   0.357  24.957  1.00  0.00    -0.078 N 
HETATM   11  C1  UNL     1      26.098   1.559  25.070  1.00  0.00     0.267 C 
ATOM     12  H12 UNL     1      25.615  -0.337  24.303  1.00  0.00     0.276 HD
ATOM     13  H11 UNL     1      25.272  -0.235  25.788  1.00  0.00     0.276 HD
ENDBRANCH   9  10
ENDBRANCH   1   9
BRANCH   1  14
HETATM   14  C4  UNL     1      21.793   1.136  25.662  1.00  0.00     0.189 C 
HETATM   15  C5  UNL     1      22.452   2.359  26.199  1.00  0.00     0.040 C 
BRANCH  14  16
HETATM   16  N2  UNL     1      20.913   1.477  24.589  1.00  0.00    -0.075 N 
ATOM     17  H23 UNL     1      19.943   1.520  24.902  1.00  0.00     0.274 HD
ATOM     18  H22 UNL     1      21.032   2.449  24.304  1.00  0.00     0.274 HD
ATOM     19  H21 UNL     1      21.019   0.841  23.798  1.00  0.00     0.274 HD
ENDBRANCH  14  16
ENDBRANCH   1  14
TORSDOF 4
ENDMDL
MODEL 4
REMARK VINA RESULT: -4.575123746      1.194      3.593
REMARK  4 active torsions:
REMARK  status: ('A' for Active; 'I' for Inactive)
REMARK    1  A    between atoms: N1_2  and  C2_5 
REMARK    2  A    between atoms: C2_5  and  C3_6 
REMARK    3  A    between atoms: C3_6  and  C4_7 
REMARK    4  A    between atoms: C4_7  and  N2_9 
ROOT
HETATM    1  C3  UNL     1      23.919   1.143  26.138  1.00  0.00     0.014 C 
HETATM    2  C6  UNL     1      23.963   2.353  27.026  1.00  0.00     0.041 C 
HETATM    3  C7  UNL     1      23.414   2.159  28.392  1.00  0.00     0.233 C 
HETATM    4  N3  UNL     1      23.896   0.945  29.027  1.00  0.00    -0.075 N 
ATOM      5  H31 UNL     1      23.524   0.848  29.972  1.00  0.00     0.277 HD
ATOM      6  H32 UNL     1      24.888   1.012  29.251  1.00  0.00     0.277 HD
HETATM    7  C8  UNL     1      23.620  -0.212  28.241  1.00  0.00     0.233 C 
HETATM    8  C9  UNL     1      24.119  -0.150  26.837  1.00  0.00     0.041 C 
ENDROOT
BRANCH   1   9
HETATM    9  C2  UNL     1      24.963   1.340  25.057  1.00  0.00     0.243 C 
BRANCH   9  10
HETATM   10  N1  UNL     1      26.170   1.962  25.483  1.00  0.00    -0.078 N 
HETATM   11  C1  UNL     1      26.481   2.981  24.464  1.00  0.00     0.267 C 
ATOM     12  H12 UNL     1      26.932   1.303  25.647  1.00  0.00     0.276 HD
ATOM     13  H11 UNL     1      26.123   2.334  26.432  1.00  0.00     0.276 HD
ENDBRANCH   9  10
ENDBRANCH   1   9
BRANCH   1  14
HETATM   14  C4  UNL     1      22.576   1.214  25.389  1.00  0.00     0.189 C 
HETATM   15  C5  UNL     1      22.646   2.061  24.165  1.00  0.00     0.040 C 
BRANCH  14  16
HETATM   16  N2  UNL     1      22.083  -0.088  25.064  1.00  0.00    -0.075 N 
ATOM     17  H23 UNL     1      22.129  -0.264  24.060  1.00  0.00     0.274 HD
ATOM     18  H22 UNL     1      22.720  -0.817  25.382  1.00  0.00     0.274 HD
ATOM     19  H21 UNL     1      21.139  -0.235  25.424  1.00  0.00     0.274 HD
ENDBRANCH  14  16
ENDBRANCH   1  14
TORSDOF 4
ENDMDL
MODEL 5
REMARK VINA RESULT: -4.537367343      0.966      1.024
REMARK  4 active torsions:
REMARK  status: ('A' for Active; 'I' for Inactive)
REMARK    1  A    between atoms: N1_2  and  C2_5 
REMARK    2  A    between atoms: C2_5  and  C3_6 
REMARK    3  A    between atoms: C3_6  and  C4_7 
REMARK    4  A    between atoms: C4_7  and  N2_9 
ROOT
HETATM    1  C3  UNL     1      23.642   1.320  26.562  1.00  0.00     0.014 C 
HETATM    2  C6  UNL     1      24.641   0.242  26.252  1.00  0.00     0.041 C 
HETATM    3  C7  UNL     1      25.660   0.594  25.232  1.00  0.00     0.233 C 
HETATM    4  N3  UNL     1      26.254   1.901  25.455  1.00  0.00    -0.075 N 
ATOM      5  H31 UNL     1      26.968   2.108  24.756  1.00  0.00     0.277 HD
ATOM      6  H32 UNL     1      26.841   1.904  26.289  1.00  0.00     0.277 HD
HETATM    7  C8  UNL     1      25.270   2.930  25.510  1.00  0.00     0.233 C 
HETATM    8  C9  UNL     1      24.178   2.702  26.501  1.00  0.00     0.041 C 
ENDROOT
BRANCH   1   9
HETATM    9  C2  UNL     1      23.070   1.022  27.934  1.00  0.00     0.243 C 
BRANCH   9  10
HETATM   10  N1  UNL     1      23.898   0.235  28.780  1.00  0.00    -0.078 N 
HETATM   11  C1  UNL     1      23.003  -0.741  29.428  1.00  0.00     0.267 C 
ATOM     12  H12 UNL     1      24.446   0.786  29.442  1.00  0.00     0.276 HD
ATOM     13  H11 UNL     1      24.686  -0.193  28.295  1.00  0.00     0.276 HD
ENDBRANCH   9  10
ENDBRANCH   1   9
BRANCH   1  14
HETATM   14  C4  UNL     1      22.462   1.096  25.599  1.00  0.00     0.189 C 
HETATM   15  C5  UNL     1      22.010  -0.323  25.566  1.00  0.00     0.040 C 
BRANCH  14  16
HETATM   16  N2  UNL     1      21.363   1.960  25.900  1.00  0.00    -0.075 N 
ATOM     17  H23 UNL     1      20.484   1.580  25.550  1.00  0.00     0.274 HD
ATOM     18  H22 UNL     1      21.151   1.959  26.897  1.00  0.00     0.274 HD
ATOM     19  H21 UNL     1      21.523   2.907  25.554  1.00  0.00     0.274 HD
ENDBRANCH  14  16
ENDBRANCH   1  14
TORSDOF 4
ENDMDL
