MODEL 1
REMARK VINA RESULT: -6.151616131      0.000      0.000
REMARK  8 active torsions:
REMARK  status: ('A' for Active; 'I' for Inactive)
REMARK    1  A    between atoms: C2_2  and  C5_5 
REMARK    2  A    between atoms: C5_5  and  C6_6 
REMARK    3  A    between atoms: C6_6  and  C7_7 
REMARK    4  A    between atoms: C7_7  and  C8_8 
REMARK    5  A    between atoms: C8_8  and  C9_9 
REMARK    6  A    between atoms: C9_9  and  O1_10 
REMARK    7  A    between atoms: C9_9  and  C14_18 
REMARK    8  A    between atoms: O1_10  and  C10_11 
ROOT
HETATM    1  C9  UNL     1       8.633   2.949  27.630  1.00  0.00     0.193 C 
ENDROOT
BRANCH   1   2
HETATM    2  C8  UNL     1       8.131   1.538  27.598  1.00  0.00     0.038 C 
BRANCH   2   3
HETATM    3  C7  UNL     1       8.217   0.748  28.837  1.00  0.00     0.003 C 
BRANCH   3   4
HETATM    4  C6  UNL     1       6.918   0.854  29.598  1.00  0.00     0.001 C 
BRANCH   4   5
HETATM    5  C5  UNL     1       6.827  -0.098  30.742  1.00  0.00     0.008 C 
BRANCH   5   6
HETATM    6  C2  UNL     1       6.026   0.506  31.877  1.00  0.00    -0.051 C 
HETATM    7  C1  UNL     1       4.614   0.023  31.924  1.00  0.00     0.014 C 
HETATM    8  C3  UNL     1       6.677   0.197  33.209  1.00  0.00     0.014 C 
HETATM    9  C4  UNL     1       6.016   2.012  31.720  1.00  0.00     0.014 C 
ENDBRANCH   5   6
ENDBRANCH   4   5
ENDBRANCH   3   4
ENDBRANCH   2   3
ENDBRANCH   1   2
BRANCH   1  10
HETATM   10  O1  UNL     1       9.607   3.169  26.647  1.00  0.00    -0.373 OA
BRANCH  10  11
HETATM   11  C10 UNL     1       9.264   2.676  25.406  1.00  0.00     0.149 C 
HETATM   12  C11 UNL     1       9.260   3.812  24.360  1.00  0.00     0.061 C 
HETATM   13  C12 UNL     1      10.654   3.797  23.827  1.00  0.00     0.235 C 
HETATM   14  N1  UNL     1      11.365   2.713  24.479  1.00  0.00    -0.073 N 
HETATM   15  C13 UNL     1      10.280   1.766  24.783  1.00  0.00     0.264 C 
ATOM     16  H12 UNL     1      12.139   2.323  23.942  1.00  0.00     0.277 HD
ATOM     17  H11 UNL     1      11.931   2.991  25.281  1.00  0.00     0.277 HD
ENDBRANCH  10  11
ENDBRANCH   1  10
BRANCH   1  18
HETATM   18  C14 UNL     1       7.595   4.011  27.703  1.00  0.00     0.281 C 
HETATM   19  F1  UNL     1       7.201   4.117  29.034  1.00  0.00    -0.204 F 
HETATM   20 CL1  UNL     1       6.271   3.855  26.570  1.00  0.00    -0.063 Cl
HETATM   21 CL2  UNL     1       8.330   5.629  27.372  1.00  0.00    -0.063 Cl
ENDBRANCH   1  18
TORSDOF 8
ENDMDL
MODEL 2
REMARK VINA RESULT: -6.123753621      0.848      1.455
REMARK  8 active torsions:
REMARK  status: ('A' for Active; 'I' for Inactive)
REMARK    1  A    between atoms: C2_2  and  C5_5 
REMARK    2  A    between atoms: C5_5  and  C6_6 
REMARK    3  A    between atoms: C6_6  and  C7_7 
REMARK    4  A    between atoms: C7_7  and  C8_8 
REMARK    5  A    between atoms: C8_8  and  C9_9 
REMARK    6  A    between atoms: C9_9  and  O1_10 
REMARK    7  A    between atoms: C9_9  and  C14_18 
REMARK    8  A    between atoms: O1_10  and  C10_11 
ROOT
HETATM    1  C9  UNL     1       8.529   3.027  27.678  1.00  0.00     0.193 C 
ENDROOT
BRANCH   1   2
HETATM    2  C8  UNL     1       7.979   1.634  27.630  1.00  0.00     0.038 C 
BRANCH   2   3
HETATM    3  C7  UNL     1       8.157   0.782  28.817  1.00  0.00     0.003 C 
BRANCH   3   4
HETATM    4  C6  UNL     1       6.903   0.811  29.657  1.00  0.00     0.001 C 
BRANCH   4   5
HETATM    5  C5  UNL     1       6.918  -0.177  30.773  1.00  0.00     0.008 C 
BRANCH   5   6
HETATM    6  C2  UNL     1       6.160   0.358  31.970  1.00  0.00    -0.051 C 
HETATM    7  C1  UNL     1       6.799   0.013  33.275  1.00  0.00     0.014 C 
HETATM    8  C3  UNL     1       6.035   1.866  31.889  1.00  0.00     0.014 C 
HETATM    9  C4  UNL     1       4.757  -0.211  31.954  1.00  0.00     0.014 C 
ENDBRANCH   5   6
ENDBRANCH   4   5
ENDBRANCH   3   4
ENDBRANCH   2   3
ENDBRANCH   1   2
BRANCH   1  10
HETATM   10  O1  UNL     1       9.531   3.215  26.717  1.00  0.00    -0.373 OA
BRANCH  10  11
HETATM   11  C10 UNL     1       9.220   2.686  25.482  1.00  0.00     0.149 C 
HETATM   12  C11 UNL     1       9.188   3.801  24.414  1.00  0.00     0.061 C 
HETATM   13  C12 UNL     1      10.588   3.826  23.897  1.00  0.00     0.235 C 
HETATM   14  N1  UNL     1      11.330   2.781  24.578  1.00  0.00    -0.073 N 
HETATM   15  C13 UNL     1      10.276   1.801  24.889  1.00  0.00     0.264 C 
ATOM     16  H12 UNL     1      12.124   2.408  24.058  1.00  0.00     0.277 HD
ATOM     17  H11 UNL     1      11.876   3.095  25.381  1.00  0.00     0.277 HD
ENDBRANCH  10  11
ENDBRANCH   1  10
BRANCH   1  18
HETATM   18  C14 UNL     1       7.527   4.124  27.735  1.00  0.00     0.281 C 
HETATM   19  F1  UNL     1       8.130   5.265  27.215  1.00  0.00    -0.204 F 
HETATM   20 CL1  UNL     1       6.750   4.360  29.284  1.00  0.00    -0.063 Cl
HETATM   21 CL2  UNL     1       6.187   3.808  26.562  1.00  0.00    -0.063 Cl
ENDBRANCH   1  18
TORSDOF 8
ENDMDL
MODEL 3
REMARK VINA RESULT: -6.034002189      1.035      1.599
REMARK  8 active torsions:
REMARK  status: ('A' for Active; 'I' for Inactive)
REMARK    1  A    between atoms: C2_2  and  C5_5 
REMARK    2  A    between atoms: C5_5  and  C6_6 
REMARK    3  A    between atoms: C6_6  and  C7_7 
REMARK    4  A    between atoms: C7_7  and  C8_8 
REMARK    5  A    between atoms: C8_8  and  C9_9 
REMARK    6  A    between atoms: C9_9  and  O1_10 
REMARK    7  A    between atoms: C9_9  and  C14_18 
REMARK    8  A    between atoms: O1_10  and  C10_11 
ROOT
HETATM    1  C9  UNL     1       8.397   2.757  27.170  1.00  0.00     0.193 C 
ENDROOT
BRANCH   1   2
HETATM    2  C8  UNL     1       7.523   1.733  27.828  1.00  0.00     0.038 C 
BRANCH   2   3
HETATM    3  C7  UNL     1       8.150   0.804  28.782  1.00  0.00     0.003 C 
BRANCH   3   4
HETATM    4  C6  UNL     1       7.204   0.539  29.928  1.00  0.00     0.001 C 
BRANCH   4   5
HETATM    5  C5  UNL     1       6.499   1.763  30.406  1.00  0.00     0.008 C 
BRANCH   5   6
HETATM    6  C2  UNL     1       5.774   1.489  31.707  1.00  0.00    -0.051 C 
HETATM    7  C1  UNL     1       6.463   0.479  32.564  1.00  0.00     0.014 C 
HETATM    8  C3  UNL     1       5.621   2.765  32.509  1.00  0.00     0.014 C 
HETATM    9  C4  UNL     1       4.381   0.985  31.393  1.00  0.00     0.014 C 
ENDBRANCH   5   6
ENDBRANCH   4   5
ENDBRANCH   3   4
ENDBRANCH   2   3
ENDBRANCH   1   2
BRANCH   1  10
HETATM   10  O1  UNL     1       8.665   2.420  25.836  1.00  0.00    -0.373 OA
BRANCH  10  11
HETATM   11  C10 UNL     1      10.010   2.377  25.535  1.00  0.00     0.149 C 
HETATM   12  C11 UNL     1      10.317   1.166  24.626  1.00  0.00     0.061 C 
HETATM   13  C12 UNL     1      10.168   1.721  23.248  1.00  0.00     0.235 C 
HETATM   14  N1  UNL     1       9.855   3.132  23.371  1.00  0.00    -0.073 N 
HETATM   15  C13 UNL     1      10.496   3.485  24.649  1.00  0.00     0.264 C 
ATOM     16  H12 UNL     1      10.136   3.706  22.577  1.00  0.00     0.277 HD
ATOM     17  H11 UNL     1       8.862   3.360  23.311  1.00  0.00     0.277 HD
ENDBRANCH  10  11
ENDBRANCH   1  10
BRANCH   1  18
HETATM   18  C14 UNL     1       8.006   4.176  27.371  1.00  0.00     0.281 C 
HETATM   19  F1  UNL     1       7.382   4.265  28.612  1.00  0.00    -0.204 F 
HETATM   20 CL1  UNL     1       7.110   4.908  26.059  1.00  0.00    -0.063 Cl
HETATM   21 CL2  UNL     1       9.477   5.206  27.587  1.00  0.00    -0.063 Cl
ENDBRANCH   1  18
TORSDOF 8
ENDMDL
MODEL 4
REMARK VINA RESULT: -6.024500685      1.268      1.730
REMARK  8 active torsions:
REMARK  status: ('A' for Active; 'I' for Inactive)
REMARK    1  A    between atoms: C2_2  and  C5_5 
REMARK    2  A    between atoms: C5_5  and  C6_6 
REMARK    3  A    between atoms: C6_6  and  C7_7 
REMARK    4  A    between atoms: C7_7  and  C8_8 
REMARK    5  A    between atoms: C8_8  and  C9_9 
REMARK    6  A    between atoms: C9_9  and  O1_10 
REMARK    7  A    between atoms: C9_9  and  C14_18 
REMARK    8  A    between atoms: O1_10  and  C10_11 
ROOT
HETATM    1  C9  UNL     1       8.348   2.921  27.328  1.00  0.00     0.193 C 
ENDROOT
BRANCH   1   2
HETATM    2  C8  UNL     1       7.438   1.903  27.945  1.00  0.00     0.038 C 
BRANCH   2   3
HETATM    3  C7  UNL     1       8.053   0.762  28.641  1.00  0.00     0.003 C 
BRANCH   3   4
HETATM    4  C6  UNL     1       7.299   0.480  29.918  1.00  0.00     0.001 C 
BRANCH   4   5
HETATM    5  C5  UNL     1       6.540   1.658  30.427  1.00  0.00     0.008 C 
BRANCH   5   6
HETATM    6  C2  UNL     1       5.840   1.322  31.727  1.00  0.00    -0.051 C 
HETATM    7  C1  UNL     1       6.555   0.286  32.530  1.00  0.00     0.014 C 
HETATM    8  C3  UNL     1       5.687   2.562  32.584  1.00  0.00     0.014 C 
HETATM    9  C4  UNL     1       4.447   0.815  31.416  1.00  0.00     0.014 C 
ENDBRANCH   5   6
ENDBRANCH   4   5
ENDBRANCH   3   4
ENDBRANCH   2   3
ENDBRANCH   1   2
BRANCH   1  10
HETATM   10  O1  UNL     1       8.610   2.625  25.983  1.00  0.00    -0.373 OA
BRANCH  10  11
HETATM   11  C10 UNL     1       9.954   2.596  25.674  1.00  0.00     0.149 C 
HETATM   12  C11 UNL     1      10.253   1.443  24.691  1.00  0.00     0.061 C 
HETATM   13  C12 UNL     1      10.100   2.082  23.351  1.00  0.00     0.235 C 
HETATM   14  N1  UNL     1       9.792   3.483  23.562  1.00  0.00    -0.073 N 
HETATM   15  C13 UNL     1      10.440   3.755  24.856  1.00  0.00     0.264 C 
ATOM     16  H12 UNL     1      10.072   4.104  22.803  1.00  0.00     0.277 HD
ATOM     17  H11 UNL     1       8.800   3.717  23.520  1.00  0.00     0.277 HD
ENDBRANCH  10  11
ENDBRANCH   1  10
BRANCH   1  18
HETATM   18  C14 UNL     1       8.003   4.345  27.580  1.00  0.00     0.281 C 
HETATM   19  F1  UNL     1       9.198   5.043  27.728  1.00  0.00    -0.204 F 
HETATM   20 CL1  UNL     1       6.839   4.627  28.855  1.00  0.00    -0.063 Cl
HETATM   21 CL2  UNL     1       7.285   5.087  26.095  1.00  0.00    -0.063 Cl
ENDBRANCH   1  18
TORSDOF 8
ENDMDL
MODEL 5
REMARK VINA RESULT: -6.007038506      1.380      1.861
REMARK  8 active torsions:
REMARK  status: ('A' for Active; 'I' for Inactive)
REMARK    1  A    between atoms: C2_2  and  C5_5 
REMARK    2  A    between atoms: C5_5  and  C6_6 
REMARK    3  A    between atoms: C6_6  and  C7_7 
REMARK    4  A    between atoms: C7_7  and  C8_8 
REMARK    5  A    between atoms: C8_8  and  C9_9 
REMARK    6  A    between atoms: C9_9  and  O1_10 
REMARK    7  A    between atoms: C9_9  and  C14_18 
REMARK    8  A    between atoms: O1_10  and  C10_11 
ROOT
HETATM    1  C9  UNL     1       8.082   3.117  26.936  1.00  0.00     0.193 C 
ENDROOT
BRANCH   1   2
HETATM    2  C8  UNL     1       8.264   2.483  28.281  1.00  0.00     0.038 C 
BRANCH   2   3
HETATM    3  C7  UNL     1       7.919   1.059  28.424  1.00  0.00     0.003 C 
BRANCH   3   4
HETATM    4  C6  UNL     1       7.133   0.851  29.696  1.00  0.00     0.001 C 
BRANCH   4   5
HETATM    5  C5  UNL     1       6.608   2.119  30.278  1.00  0.00     0.008 C 
BRANCH   5   6
HETATM    6  C2  UNL     1       5.741   1.833  31.486  1.00  0.00    -0.051 C 
HETATM    7  C1  UNL     1       6.292   0.760  32.366  1.00  0.00     0.014 C 
HETATM    8  C3  UNL     1       5.564   3.085  32.321  1.00  0.00     0.014 C 
HETATM    9  C4  UNL     1       4.366   1.410  31.012  1.00  0.00     0.014 C 
ENDBRANCH   5   6
ENDBRANCH   4   5
ENDBRANCH   3   4
ENDBRANCH   2   3
ENDBRANCH   1   2
BRANCH   1  10
HETATM   10  O1  UNL     1       8.561   2.289  25.911  1.00  0.00    -0.373 OA
BRANCH  10  11
HETATM   11  C10 UNL     1       9.899   2.470  25.633  1.00  0.00     0.149 C 
HETATM   12  C11 UNL     1      10.365   1.459  24.562  1.00  0.00     0.061 C 
HETATM   13  C12 UNL     1      10.142   2.186  23.278  1.00  0.00     0.235 C 
HETATM   14  N1  UNL     1       9.642   3.509  23.601  1.00  0.00    -0.073 N 
HETATM   15  C13 UNL     1      10.231   3.752  24.928  1.00  0.00     0.264 C 
ATOM     16  H12 UNL     1       9.843   4.226  22.904  1.00  0.00     0.277 HD
ATOM     17  H11 UNL     1       8.628   3.609  23.555  1.00  0.00     0.277 HD
ENDBRANCH  10  11
ENDBRANCH   1  10
BRANCH   1  18
HETATM   18  C14 UNL     1       6.744   3.705  26.666  1.00  0.00     0.281 C 
HETATM   19  F1  UNL     1       5.794   2.726  26.945  1.00  0.00    -0.204 F 
HETATM   20 CL1  UNL     1       6.554   4.469  25.103  1.00  0.00    -0.063 Cl
HETATM   21 CL2  UNL     1       6.367   4.988  27.883  1.00  0.00    -0.063 Cl
ENDBRANCH   1  18
TORSDOF 8
ENDMDL
