MODEL 1
REMARK VINA RESULT: -7.311285454      0.000      0.000
REMARK  13 active torsions:
REMARK  status: ('A' for Active; 'I' for Inactive)
REMARK       I    between atoms: C1_4  and  N3_6 
REMARK    1  A    between atoms: N3_6  and  O1_8 
REMARK    2  A    between atoms: O1_8  and  C2_9 
REMARK    3  A    between atoms: C2_9  and  C3_11 
REMARK    4  A    between atoms: C5_14  and  C6_15 
REMARK       I    between atoms: C6_15  and  N5_17 
REMARK    5  A    between atoms: N5_17  and  N6_18 
REMARK    6  A    between atoms: N7_20  and  C7_22 
REMARK    7  A    between atoms: C7_22  and  C8_23 
REMARK    8  A    between atoms: C8_23  and  N8_24 
REMARK    9  A    between atoms: C8_23  and  C9_28 
REMARK   10  A    between atoms: C9_28  and  O4_29 
REMARK   11  A    between atoms: C9_28  and  O5_31 
REMARK   12  A    between atoms: C11_36  and  N9_37 
REMARK   13  A    between atoms: N9_37  and  O6_39 
ROOT
HETATM    1  C3  UNL     1       1.145  10.285  52.546  1.00  0.00     0.084 A 
HETATM    2  C4  UNL     1      -0.146  10.394  52.178  1.00  0.00     0.108 A 
HETATM    3  N4  UNL     1      -0.516  11.743  51.979  1.00  0.00    -0.346 N 
HETATM    4  C5  UNL     1      -1.663  12.549  51.665  1.00  0.00     0.268 C 
HETATM    5  S1  UNL     1      -1.146  13.338  50.070  1.00  0.00    -0.058 SA
HETATM    6  S2  UNL     1       0.969  13.200  50.525  1.00  0.00    -0.063 SA
HETATM    7  C10 UNL     1       0.647  12.550  52.211  1.00  0.00     0.211 A 
HETATM    8  C11 UNL     1       1.723  11.605  52.611  1.00  0.00     0.083 A 
ENDROOT
BRANCH   4   9
HETATM    9  C6  UNL     1      -2.886  11.747  51.421  1.00  0.00     0.347 C 
HETATM   10  O3  UNL     1      -3.229  11.743  50.186  1.00  0.00    -0.252 OA
HETATM   11  N5  UNL     1      -3.627  11.045  52.375  1.00  0.00    -0.268 NA
BRANCH  11  12
HETATM   12  N6  UNL     1      -4.311  10.398  53.245  1.00  0.00    -0.177 N 
HETATM   13  N7  UNL     1      -5.525   9.991  53.192  1.00  0.00    -0.310 N 
ATOM     14  H7  UNL     1      -6.069  10.182  52.352  1.00  0.00     0.182 HD
ATOM     15  H6  UNL     1      -3.816  10.175  54.109  1.00  0.00     0.223 HD
BRANCH  13  16
HETATM   16  C7  UNL     1      -6.146   9.277  54.266  1.00  0.00     0.179 C 
BRANCH  16  17
HETATM   17  C8  UNL     1      -6.475   7.857  53.810  1.00  0.00     0.257 C 
BRANCH  17  18
HETATM   18  N8  UNL     1      -7.804   7.804  53.289  1.00  0.00    -0.069 N 
ATOM     19  H83 UNL     1      -8.500   7.696  54.027  1.00  0.00     0.275 HD
ATOM     20  H82 UNL     1      -8.110   8.708  52.928  1.00  0.00     0.275 HD
ATOM     21  H81 UNL     1      -7.878   7.068  52.586  1.00  0.00     0.275 HD
ENDBRANCH  17  18
BRANCH  17  22
HETATM   22  C9  UNL     1      -6.446   6.908  55.013  1.00  0.00     0.285 C 
BRANCH  22  23
HETATM   23  O4  UNL     1      -5.824   7.549  56.057  1.00  0.00    -0.369 OA
ATOM     24  H4  UNL     1      -6.448   7.644  56.767  1.00  0.00     0.212 HD
ENDBRANCH  22  23
BRANCH  22  25
HETATM   25  O5  UNL     1      -5.898   5.684  54.695  1.00  0.00    -0.369 OA
ATOM     26  H5  UNL     1      -5.027   5.576  55.058  1.00  0.00     0.212 HD
ENDBRANCH  22  25
ENDBRANCH  17  22
ENDBRANCH  16  17
ENDBRANCH  13  16
ENDBRANCH  11  12
ENDBRANCH   4   9
BRANCH   1  27
HETATM   27  C2  UNL     1       1.835   9.023  52.830  1.00  0.00     0.318 C 
HETATM   28  O2  UNL     1       1.313   7.940  52.419  1.00  0.00    -0.257 OA
BRANCH  27  29
HETATM   29  O1  UNL     1       3.016   8.892  53.513  1.00  0.00    -0.192 OA
BRANCH  29  30
HETATM   30  N3  UNL     1       4.223   8.864  52.871  1.00  0.00    -0.229 N 
HETATM   31  C1  UNL     1       4.747   7.598  52.463  1.00  0.00     0.206 C 
HETATM   32  N1  UNL     1       5.585   7.514  51.495  1.00  0.00    -0.372 N 
HETATM   33  N2  UNL     1       4.310   6.441  53.158  1.00  0.00    -0.062 NA
ATOM     34  H12 UNL     1       5.959   6.611  51.203  1.00  0.00     0.158 HD
ATOM     35  H11 UNL     1       5.900   8.346  50.995  1.00  0.00     0.158 HD
ATOM     36  H3  UNL     1       4.736   9.726  52.688  1.00  0.00     0.197 HD
ENDBRANCH  29  30
ENDBRANCH  27  29
ENDBRANCH   1  27
BRANCH   8  37
HETATM   37  N9  UNL     1       2.867  12.032  52.926  1.00  0.00    -0.269 N 
ATOM     38  H9  UNL     1       2.824  12.857  53.525  1.00  0.00     0.194 HD
BRANCH  37  39
HETATM   39  O6  UNL     1       4.110  11.659  52.663  1.00  0.00    -0.290 OA
ATOM     40  H6  UNL     1       4.795  11.968  52.081  1.00  0.00     0.244 HD
ENDBRANCH  37  39
ENDBRANCH   8  37
TORSDOF 13
ENDMDL
MODEL 2
REMARK VINA RESULT: -7.178512140      1.898      2.329
REMARK  13 active torsions:
REMARK  status: ('A' for Active; 'I' for Inactive)
REMARK       I    between atoms: C1_4  and  N3_6 
REMARK    1  A    between atoms: N3_6  and  O1_8 
REMARK    2  A    between atoms: O1_8  and  C2_9 
REMARK    3  A    between atoms: C2_9  and  C3_11 
REMARK    4  A    between atoms: C5_14  and  C6_15 
REMARK       I    between atoms: C6_15  and  N5_17 
REMARK    5  A    between atoms: N5_17  and  N6_18 
REMARK    6  A    between atoms: N7_20  and  C7_22 
REMARK    7  A    between atoms: C7_22  and  C8_23 
REMARK    8  A    between atoms: C8_23  and  N8_24 
REMARK    9  A    between atoms: C8_23  and  C9_28 
REMARK   10  A    between atoms: C9_28  and  O4_29 
REMARK   11  A    between atoms: C9_28  and  O5_31 
REMARK   12  A    between atoms: C11_36  and  N9_37 
REMARK   13  A    between atoms: N9_37  and  O6_39 
ROOT
HETATM    1  C3  UNL     1      -0.403  11.769  52.853  1.00  0.00     0.084 A 
HETATM    2  C4  UNL     1      -1.425  11.213  52.172  1.00  0.00     0.108 A 
HETATM    3  N4  UNL     1      -1.902  12.075  51.160  1.00  0.00    -0.346 N 
HETATM    4  C5  UNL     1      -2.934  12.162  50.164  1.00  0.00     0.268 C 
HETATM    5  S1  UNL     1      -1.945  12.252  48.600  1.00  0.00    -0.058 SA
HETATM    6  S2  UNL     1      -0.218  13.125  49.576  1.00  0.00    -0.063 SA
HETATM    7  C10 UNL     1      -1.093  13.261  51.184  1.00  0.00     0.211 A 
HETATM    8  C11 UNL     1      -0.136  13.076  52.306  1.00  0.00     0.083 A 
ENDROOT
BRANCH   4   9
HETATM    9  C6  UNL     1      -3.792  10.953  50.113  1.00  0.00     0.347 C 
HETATM   10  O3  UNL     1      -3.741  10.367  48.974  1.00  0.00    -0.252 OA
HETATM   11  N5  UNL     1      -4.584  10.448  51.147  1.00  0.00    -0.268 NA
BRANCH  11  12
HETATM   12  N6  UNL     1      -5.313   9.980  52.091  1.00  0.00    -0.177 N 
HETATM   13  N7  UNL     1      -5.110   9.978  53.357  1.00  0.00    -0.310 N 
ATOM     14  H7  UNL     1      -4.256  10.404  53.716  1.00  0.00     0.182 HD
ATOM     15  H6  UNL     1      -6.185   9.543  51.792  1.00  0.00     0.223 HD
BRANCH  13  16
HETATM   16  C7  UNL     1      -6.035   9.403  54.285  1.00  0.00     0.179 C 
BRANCH  16  17
HETATM   17  C8  UNL     1      -6.426   8.004  53.813  1.00  0.00     0.257 C 
BRANCH  17  18
HETATM   18  N8  UNL     1      -7.759   8.013  53.299  1.00  0.00    -0.069 N 
ATOM     19  H83 UNL     1      -8.336   7.284  53.719  1.00  0.00     0.275 HD
ATOM     20  H82 UNL     1      -8.287   8.825  53.620  1.00  0.00     0.275 HD
ATOM     21  H81 UNL     1      -7.744   7.947  52.281  1.00  0.00     0.275 HD
ENDBRANCH  17  18
BRANCH  17  22
HETATM   22  C9  UNL     1      -6.430   7.039  55.004  1.00  0.00     0.285 C 
BRANCH  22  23
HETATM   23  O4  UNL     1      -5.775   7.640  56.052  1.00  0.00    -0.369 OA
ATOM     24  H4  UNL     1      -5.103   7.046  56.366  1.00  0.00     0.212 HD
ENDBRANCH  22  23
BRANCH  22  25
HETATM   25  O5  UNL     1      -5.938   5.797  54.667  1.00  0.00    -0.369 OA
ATOM     26  H5  UNL     1      -5.657   5.304  55.429  1.00  0.00     0.212 HD
ENDBRANCH  22  25
ENDBRANCH  17  22
ENDBRANCH  16  17
ENDBRANCH  13  16
ENDBRANCH  11  12
ENDBRANCH   4   9
BRANCH   1  27
HETATM   27  C2  UNL     1       0.310  11.132  53.965  1.00  0.00     0.318 C 
HETATM   28  O2  UNL     1       0.997  11.862  54.744  1.00  0.00    -0.257 OA
BRANCH  27  29
HETATM   29  O1  UNL     1       0.308   9.792  54.253  1.00  0.00    -0.192 OA
BRANCH  29  30
HETATM   30  N3  UNL     1       1.452   9.045  54.225  1.00  0.00    -0.229 N 
HETATM   31  C1  UNL     1       1.955   8.618  52.956  1.00  0.00     0.206 C 
HETATM   32  N1  UNL     1       3.198   8.340  52.800  1.00  0.00    -0.372 N 
HETATM   33  N2  UNL     1       1.039   8.516  51.877  1.00  0.00    -0.062 NA
ATOM     34  H12 UNL     1       3.557   8.036  51.895  1.00  0.00     0.158 HD
ATOM     35  H11 UNL     1       3.857   8.413  53.576  1.00  0.00     0.158 HD
ATOM     36  H3  UNL     1       1.936   8.798  55.088  1.00  0.00     0.197 HD
ENDBRANCH  29  30
ENDBRANCH  27  29
ENDBRANCH   1  27
BRANCH   8  37
HETATM   37  N9  UNL     1       0.684  13.985  52.606  1.00  0.00    -0.269 N 
ATOM     38  H9  UNL     1       1.220  14.309  51.800  1.00  0.00     0.194 HD
BRANCH  37  39
HETATM   39  O6  UNL     1       1.013  14.619  53.721  1.00  0.00    -0.290 OA
ATOM     40  H6  UNL     1       1.678  15.253  53.962  1.00  0.00     0.244 HD
ENDBRANCH  37  39
ENDBRANCH   8  37
TORSDOF 13
ENDMDL
MODEL 3
REMARK VINA RESULT: -7.176632611      3.507      9.145
REMARK  13 active torsions:
REMARK  status: ('A' for Active; 'I' for Inactive)
REMARK       I    between atoms: C1_4  and  N3_6 
REMARK    1  A    between atoms: N3_6  and  O1_8 
REMARK    2  A    between atoms: O1_8  and  C2_9 
REMARK    3  A    between atoms: C2_9  and  C3_11 
REMARK    4  A    between atoms: C5_14  and  C6_15 
REMARK       I    between atoms: C6_15  and  N5_17 
REMARK    5  A    between atoms: N5_17  and  N6_18 
REMARK    6  A    between atoms: N7_20  and  C7_22 
REMARK    7  A    between atoms: C7_22  and  C8_23 
REMARK    8  A    between atoms: C8_23  and  N8_24 
REMARK    9  A    between atoms: C8_23  and  C9_28 
REMARK   10  A    between atoms: C9_28  and  O4_29 
REMARK   11  A    between atoms: C9_28  and  O5_31 
REMARK   12  A    between atoms: C11_36  and  N9_37 
REMARK   13  A    between atoms: N9_37  and  O6_39 
ROOT
HETATM    1  C3  UNL     1      -3.102  11.037  53.747  1.00  0.00     0.084 A 
HETATM    2  C4  UNL     1      -1.923  11.640  53.996  1.00  0.00     0.108 A 
HETATM    3  N4  UNL     1      -1.104  11.671  52.845  1.00  0.00    -0.346 N 
HETATM    4  C5  UNL     1       0.210  12.069  52.423  1.00  0.00     0.268 C 
HETATM    5  S1  UNL     1      -0.175  13.359  51.150  1.00  0.00    -0.058 SA
HETATM    6  S2  UNL     1      -2.110  12.508  50.669  1.00  0.00    -0.063 SA
HETATM    7  C10 UNL     1      -1.840  11.065  51.773  1.00  0.00     0.211 A 
HETATM    8  C11 UNL     1      -3.130  10.624  52.366  1.00  0.00     0.083 A 
ENDROOT
BRANCH   4   9
HETATM    9  C6  UNL     1       1.002  12.698  53.509  1.00  0.00     0.347 C 
HETATM   10  O3  UNL     1       1.353  11.854  54.407  1.00  0.00    -0.252 OA
HETATM   11  N5  UNL     1       1.366  14.043  53.604  1.00  0.00    -0.268 NA
BRANCH  11  12
HETATM   12  N6  UNL     1       1.703  15.276  53.698  1.00  0.00    -0.177 N 
HETATM   13  N7  UNL     1       2.117  16.081  52.790  1.00  0.00    -0.310 N 
ATOM     14  H7  UNL     1       2.205  15.738  51.834  1.00  0.00     0.182 HD
ATOM     15  H6  UNL     1       1.632  15.676  54.633  1.00  0.00     0.223 HD
BRANCH  13  16
HETATM   16  C7  UNL     1       2.459  17.443  53.067  1.00  0.00     0.179 C 
BRANCH  16  17
HETATM   17  C8  UNL     1       2.117  18.310  51.856  1.00  0.00     0.257 C 
BRANCH  17  18
HETATM   18  N8  UNL     1       0.718  18.235  51.577  1.00  0.00    -0.069 N 
ATOM     19  H83 UNL     1       0.197  17.816  52.347  1.00  0.00     0.275 HD
ATOM     20  H82 UNL     1       0.278  19.155  51.582  1.00  0.00     0.275 HD
ATOM     21  H81 UNL     1       0.561  17.741  50.698  1.00  0.00     0.275 HD
ENDBRANCH  17  18
BRANCH  17  22
HETATM   22  C9  UNL     1       2.834  17.768  50.614  1.00  0.00     0.285 C 
BRANCH  22  23
HETATM   23  O4  UNL     1       1.980  16.917  49.956  1.00  0.00    -0.369 OA
ATOM     24  H4  UNL     1       1.562  16.355  50.598  1.00  0.00     0.212 HD
ENDBRANCH  22  23
BRANCH  22  25
HETATM   25  O5  UNL     1       4.058  17.214  50.922  1.00  0.00    -0.369 OA
ATOM     26  H5  UNL     1       4.780  17.730  50.583  1.00  0.00     0.212 HD
ENDBRANCH  22  25
ENDBRANCH  17  22
ENDBRANCH  16  17
ENDBRANCH  13  16
ENDBRANCH  11  12
ENDBRANCH   4   9
BRANCH   1  27
HETATM   27  C2  UNL     1      -4.171  10.843  54.731  1.00  0.00     0.318 C 
HETATM   28  O2  UNL     1      -4.050  11.383  55.875  1.00  0.00    -0.257 OA
BRANCH  27  29
HETATM   29  O1  UNL     1      -5.318  10.118  54.535  1.00  0.00    -0.192 OA
BRANCH  29  30
HETATM   30  N3  UNL     1      -5.647   9.057  55.330  1.00  0.00    -0.229 N 
HETATM   31  C1  UNL     1      -6.446   8.011  54.774  1.00  0.00     0.206 C 
HETATM   32  N1  UNL     1      -6.409   6.824  55.260  1.00  0.00    -0.372 N 
HETATM   33  N2  UNL     1      -7.276   8.324  53.666  1.00  0.00    -0.062 NA
ATOM     34  H12 UNL     1      -6.979   6.077  54.862  1.00  0.00     0.158 HD
ATOM     35  H11 UNL     1      -5.813   6.598  56.056  1.00  0.00     0.158 HD
ATOM     36  H3  UNL     1      -5.329   9.013  56.298  1.00  0.00     0.197 HD
ENDBRANCH  29  30
ENDBRANCH  27  29
ENDBRANCH   1  27
BRANCH   8  37
HETATM   37  N9  UNL     1      -3.980  10.009  51.666  1.00  0.00    -0.269 N 
ATOM     38  H9  UNL     1      -3.548   9.452  50.928  1.00  0.00     0.194 HD
BRANCH  37  39
HETATM   39  O6  UNL     1      -5.301   9.916  51.665  1.00  0.00    -0.290 OA
ATOM     40  H6  UNL     1      -5.927   9.247  51.413  1.00  0.00     0.244 HD
ENDBRANCH  37  39
ENDBRANCH   8  37
TORSDOF 13
ENDMDL
MODEL 4
REMARK VINA RESULT: -7.023710619      4.794      8.290
REMARK  13 active torsions:
REMARK  status: ('A' for Active; 'I' for Inactive)
REMARK       I    between atoms: C1_4  and  N3_6 
REMARK    1  A    between atoms: N3_6  and  O1_8 
REMARK    2  A    between atoms: O1_8  and  C2_9 
REMARK    3  A    between atoms: C2_9  and  C3_11 
REMARK    4  A    between atoms: C5_14  and  C6_15 
REMARK       I    between atoms: C6_15  and  N5_17 
REMARK    5  A    between atoms: N5_17  and  N6_18 
REMARK    6  A    between atoms: N7_20  and  C7_22 
REMARK    7  A    between atoms: C7_22  and  C8_23 
REMARK    8  A    between atoms: C8_23  and  N8_24 
REMARK    9  A    between atoms: C8_23  and  C9_28 
REMARK   10  A    between atoms: C9_28  and  O4_29 
REMARK   11  A    between atoms: C9_28  and  O5_31 
REMARK   12  A    between atoms: C11_36  and  N9_37 
REMARK   13  A    between atoms: N9_37  and  O6_39 
ROOT
HETATM    1  C3  UNL     1       2.467  13.512  51.478  1.00  0.00     0.084 A 
HETATM    2  C4  UNL     1       2.469  12.171  51.618  1.00  0.00     0.108 A 
HETATM    3  N4  UNL     1       1.463  11.742  52.511  1.00  0.00    -0.346 N 
HETATM    4  C5  UNL     1       0.962  10.550  53.137  1.00  0.00     0.268 C 
HETATM    5  S1  UNL     1      -0.769  10.475  52.481  1.00  0.00    -0.058 SA
HETATM    6  S2  UNL     1      -0.898  12.617  52.180  1.00  0.00    -0.063 SA
HETATM    7  C10 UNL     1       0.745  12.906  52.947  1.00  0.00     0.211 A 
HETATM    8  C11 UNL     1       1.418  14.063  52.299  1.00  0.00     0.083 A 
ENDROOT
BRANCH   4   9
HETATM    9  C6  UNL     1       1.684   9.326  52.710  1.00  0.00     0.347 C 
HETATM   10  O3  UNL     1       0.973   8.582  51.946  1.00  0.00    -0.252 OA
HETATM   11  N5  UNL     1       2.988   8.963  53.056  1.00  0.00    -0.268 NA
BRANCH  11  12
HETATM   12  N6  UNL     1       4.183   8.624  53.370  1.00  0.00    -0.177 N 
HETATM   13  N7  UNL     1       5.197   8.410  52.615  1.00  0.00    -0.310 N 
ATOM     14  H7  UNL     1       5.087   8.515  51.607  1.00  0.00     0.182 HD
ATOM     15  H6  UNL     1       4.354   8.507  54.369  1.00  0.00     0.223 HD
BRANCH  13  16
HETATM   16  C7  UNL     1       6.476   8.031  53.132  1.00  0.00     0.179 C 
BRANCH  16  17
HETATM   17  C8  UNL     1       6.586   6.507  53.152  1.00  0.00     0.257 C 
BRANCH  17  18
HETATM   18  N8  UNL     1       6.022   5.959  51.959  1.00  0.00    -0.069 N 
ATOM     19  H83 UNL     1       5.494   6.654  51.432  1.00  0.00     0.275 HD
ATOM     20  H82 UNL     1       6.735   5.751  51.260  1.00  0.00     0.275 HD
ATOM     21  H81 UNL     1       5.457   5.139  52.183  1.00  0.00     0.275 HD
ENDBRANCH  17  18
BRANCH  17  22
HETATM   22  C9  UNL     1       5.763   5.945  54.316  1.00  0.00     0.285 C 
BRANCH  22  23
HETATM   23  O4  UNL     1       4.534   5.564  53.835  1.00  0.00    -0.369 OA
ATOM     24  H4  UNL     1       4.100   5.040  54.498  1.00  0.00     0.212 HD
ENDBRANCH  22  23
BRANCH  22  25
HETATM   25  O5  UNL     1       5.707   6.818  55.382  1.00  0.00    -0.369 OA
ATOM     26  H5  UNL     1       5.064   7.505  55.248  1.00  0.00     0.212 HD
ENDBRANCH  22  25
ENDBRANCH  17  22
ENDBRANCH  16  17
ENDBRANCH  13  16
ENDBRANCH  11  12
ENDBRANCH   4   9
BRANCH   1  27
HETATM   27  C2  UNL     1       3.388  14.269  50.625  1.00  0.00     0.318 C 
HETATM   28  O2  UNL     1       3.690  13.796  49.486  1.00  0.00    -0.257 OA
BRANCH  27  29
HETATM   29  O1  UNL     1       3.971  15.468  50.944  1.00  0.00    -0.192 OA
BRANCH  29  30
HETATM   30  N3  UNL     1       3.610  16.634  50.329  1.00  0.00    -0.229 N 
HETATM   31  C1  UNL     1       3.494  17.816  51.123  1.00  0.00     0.206 C 
HETATM   32  N1  UNL     1       3.622  18.979  50.596  1.00  0.00    -0.372 N 
HETATM   33  N2  UNL     1       3.241  17.664  52.511  1.00  0.00    -0.062 NA
ATOM     34  H12 UNL     1       3.540  19.823  51.164  1.00  0.00     0.158 HD
ATOM     35  H11 UNL     1       3.804  19.090  49.599  1.00  0.00     0.158 HD
ATOM     36  H3  UNL     1       3.428  16.659  49.326  1.00  0.00     0.197 HD
ENDBRANCH  29  30
ENDBRANCH  27  29
ENDBRANCH   1  27
BRANCH   8  37
HETATM   37  N9  UNL     1       1.033  15.241  52.532  1.00  0.00    -0.269 N 
ATOM     38  H9  UNL     1       1.040  15.465  53.528  1.00  0.00     0.194 HD
BRANCH  37  39
HETATM   39  O6  UNL     1       0.621  16.255  51.787  1.00  0.00    -0.290 OA
ATOM     40  H6  UNL     1       0.039  16.995  51.922  1.00  0.00     0.244 HD
ENDBRANCH  37  39
ENDBRANCH   8  37
TORSDOF 13
ENDMDL
MODEL 5
REMARK VINA RESULT: -6.998799827      1.955      2.176
REMARK  13 active torsions:
REMARK  status: ('A' for Active; 'I' for Inactive)
REMARK       I    between atoms: C1_4  and  N3_6 
REMARK    1  A    between atoms: N3_6  and  O1_8 
REMARK    2  A    between atoms: O1_8  and  C2_9 
REMARK    3  A    between atoms: C2_9  and  C3_11 
REMARK    4  A    between atoms: C5_14  and  C6_15 
REMARK       I    between atoms: C6_15  and  N5_17 
REMARK    5  A    between atoms: N5_17  and  N6_18 
REMARK    6  A    between atoms: N7_20  and  C7_22 
REMARK    7  A    between atoms: C7_22  and  C8_23 
REMARK    8  A    between atoms: C8_23  and  N8_24 
REMARK    9  A    between atoms: C8_23  and  C9_28 
REMARK   10  A    between atoms: C9_28  and  O4_29 
REMARK   11  A    between atoms: C9_28  and  O5_31 
REMARK   12  A    between atoms: C11_36  and  N9_37 
REMARK   13  A    between atoms: N9_37  and  O6_39 
ROOT
HETATM    1  C3  UNL     1       1.198   9.773  52.420  1.00  0.00     0.084 A 
HETATM    2  C4  UNL     1       0.109  10.031  53.171  1.00  0.00     0.108 A 
HETATM    3  N4  UNL     1      -0.564  11.191  52.724  1.00  0.00    -0.346 N 
HETATM    4  C5  UNL     1      -1.676  12.033  53.062  1.00  0.00     0.268 C 
HETATM    5  S1  UNL     1      -2.754  11.858  51.566  1.00  0.00    -0.058 SA
HETATM    6  S2  UNL     1      -1.093  11.402  50.250  1.00  0.00    -0.063 SA
HETATM    7  C10 UNL     1       0.143  11.687  51.577  1.00  0.00     0.211 A 
HETATM    8  C11 UNL     1       1.308  10.782  51.397  1.00  0.00     0.083 A 
ENDROOT
BRANCH   4   9
HETATM    9  C6  UNL     1      -2.429  11.551  54.247  1.00  0.00     0.347 C 
HETATM   10  O3  UNL     1      -1.914  11.956  55.349  1.00  0.00    -0.252 OA
HETATM   11  N5  UNL     1      -3.575  10.753  54.239  1.00  0.00    -0.268 NA
BRANCH  11  12
HETATM   12  N6  UNL     1      -4.627  10.021  54.238  1.00  0.00    -0.177 N 
HETATM   13  N7  UNL     1      -5.575   9.953  53.378  1.00  0.00    -0.310 N 
ATOM     14  H7  UNL     1      -5.530  10.548  52.551  1.00  0.00     0.182 HD
ATOM     15  H6  UNL     1      -4.725   9.401  55.042  1.00  0.00     0.223 HD
BRANCH  13  16
HETATM   16  C7  UNL     1      -6.693   9.073  53.532  1.00  0.00     0.179 C 
BRANCH  16  17
HETATM   17  C8  UNL     1      -6.213   7.624  53.473  1.00  0.00     0.257 C 
BRANCH  17  18
HETATM   18  N8  UNL     1      -6.995   6.885  52.534  1.00  0.00    -0.069 N 
ATOM     19  H83 UNL     1      -7.954   7.228  52.481  1.00  0.00     0.275 HD
ATOM     20  H82 UNL     1      -6.716   7.076  51.571  1.00  0.00     0.275 HD
ATOM     21  H81 UNL     1      -6.958   5.889  52.751  1.00  0.00     0.275 HD
ENDBRANCH  17  18
BRANCH  17  22
HETATM   22  C9  UNL     1      -6.428   6.953  54.835  1.00  0.00     0.285 C 
BRANCH  22  23
HETATM   23  O4  UNL     1      -5.930   7.782  55.810  1.00  0.00    -0.369 OA
ATOM     24  H4  UNL     1      -6.434   7.648  56.604  1.00  0.00     0.212 HD
ENDBRANCH  22  23
BRANCH  22  25
HETATM   25  O5  UNL     1      -5.919   5.672  54.867  1.00  0.00    -0.369 OA
ATOM     26  H5  UNL     1      -5.357   5.530  55.620  1.00  0.00     0.212 HD
ENDBRANCH  22  25
ENDBRANCH  17  22
ENDBRANCH  16  17
ENDBRANCH  13  16
ENDBRANCH  11  12
ENDBRANCH   4   9
BRANCH   1  27
HETATM   27  C2  UNL     1       2.110   8.643  52.625  1.00  0.00     0.318 C 
HETATM   28  O2  UNL     1       1.704   7.648  53.302  1.00  0.00    -0.257 OA
BRANCH  27  29
HETATM   29  O1  UNL     1       3.392   8.553  52.148  1.00  0.00    -0.192 OA
BRANCH  29  30
HETATM   30  N3  UNL     1       4.448   9.128  52.798  1.00  0.00    -0.229 N 
HETATM   31  C1  UNL     1       5.243  10.084  52.092  1.00  0.00     0.206 C 
HETATM   32  N1  UNL     1       5.917  10.974  52.725  1.00  0.00    -0.372 N 
HETATM   33  N2  UNL     1       5.260  10.020  50.675  1.00  0.00    -0.062 NA
ATOM     34  H12 UNL     1       6.484  11.657  52.221  1.00  0.00     0.158 HD
ATOM     35  H11 UNL     1       5.906  11.020  53.743  1.00  0.00     0.158 HD
ATOM     36  H3  UNL     1       4.663   8.881  53.763  1.00  0.00     0.197 HD
ENDBRANCH  29  30
ENDBRANCH  27  29
ENDBRANCH   1  27
BRANCH   8  37
HETATM   37  N9  UNL     1       2.150  10.995  50.482  1.00  0.00    -0.269 N 
ATOM     38  H9  UNL     1       2.474  11.963  50.468  1.00  0.00     0.194 HD
BRANCH  37  39
HETATM   39  O6  UNL     1       2.711  10.258  49.536  1.00  0.00    -0.290 OA
ATOM     40  H6  UNL     1       2.509  10.064  48.628  1.00  0.00     0.244 HD
ENDBRANCH  37  39
ENDBRANCH   8  37
TORSDOF 13
ENDMDL
