MODEL 1
REMARK VINA RESULT: -6.992268597      0.000      0.000
REMARK  4 active torsions:
REMARK  status: ('A' for Active; 'I' for Inactive)
REMARK    1  A    between atoms: C2_2  and  N1_3 
REMARK    2  A    between atoms: N1_3  and  C3_5 
REMARK    3  A    between atoms: C3_5  and  N2_6 
REMARK    4  A    between atoms: C5_9  and  O2_10 
ROOT
HETATM    1  N2  UNL     1      -5.240   1.682  13.616  1.00  0.00     0.165 N 
HETATM    2  C4  UNL     1      -4.528   2.897  13.929  1.00  0.00     0.451 C 
HETATM    3  O1  UNL     1      -3.898   2.729  15.141  1.00  0.00    -0.299 OA
HETATM    4  C5  UNL     1      -4.517   1.705  15.830  1.00  0.00     0.342 C 
HETATM    5  O3  UNL     1      -5.489   2.128  16.715  1.00  0.00    -0.293 OA
HETATM    6  C6  UNL     1      -6.531   1.213  16.652  1.00  0.00     0.166 C 
HETATM    7  C7  UNL     1      -6.226   0.087  17.633  1.00  0.00     0.078 C 
HETATM    8  C8  UNL     1      -7.853   1.808  17.073  1.00  0.00     0.078 C 
HETATM    9  O4  UNL     1      -6.566   0.753  15.338  1.00  0.00    -0.315 OA
HETATM   10  C9  UNL     1      -5.287   0.905  14.823  1.00  0.00     0.460 C 
ENDROOT
BRANCH   1  11
HETATM   11  C3  UNL     1      -4.603   0.936  12.555  1.00  0.00     0.397 C 
BRANCH  11  12
HETATM   12  N1  UNL     1      -4.839  -0.470  12.600  1.00  0.00    -0.398 N 
ATOM     13  H1  UNL     1      -5.556  -0.878  13.199  1.00  0.00     0.154 HD
BRANCH  12  14
HETATM   14  C2  UNL     1      -4.013  -1.271  11.755  1.00  0.00     0.111 C 
HETATM   15  C1  UNL     1      -3.031  -0.500  10.921  1.00  0.00     0.026 C 
ENDBRANCH  12  14
ENDBRANCH  11  12
ENDBRANCH   1  11
BRANCH   4  16
HETATM   16  O2  UNL     1      -3.555   0.890  16.399  1.00  0.00    -0.340 OA
ATOM     17  H2  UNL     1      -2.777   0.895  15.853  1.00  0.00     0.215 HD
ENDBRANCH   4  16
TORSDOF 4
ENDMDL
MODEL 2
REMARK VINA RESULT: -6.978973708      0.977      1.123
REMARK  4 active torsions:
REMARK  status: ('A' for Active; 'I' for Inactive)
REMARK    1  A    between atoms: C2_2  and  N1_3 
REMARK    2  A    between atoms: N1_3  and  C3_5 
REMARK    3  A    between atoms: C3_5  and  N2_6 
REMARK    4  A    between atoms: C5_9  and  O2_10 
ROOT
HETATM    1  N2  UNL     1      -5.152   1.333  13.499  1.00  0.00     0.165 N 
HETATM    2  C4  UNL     1      -4.623   2.668  13.644  1.00  0.00     0.451 C 
HETATM    3  O1  UNL     1      -4.030   2.766  14.882  1.00  0.00    -0.299 OA
HETATM    4  C5  UNL     1      -4.536   1.776  15.701  1.00  0.00     0.342 C 
HETATM    5  O3  UNL     1      -5.593   2.183  16.490  1.00  0.00    -0.293 OA
HETATM    6  C6  UNL     1      -6.499   1.134  16.540  1.00  0.00     0.166 C 
HETATM    7  C7  UNL     1      -6.090   0.214  17.685  1.00  0.00     0.078 C 
HETATM    8  C8  UNL     1      -7.906   1.593  16.836  1.00  0.00     0.078 C 
HETATM    9  O4  UNL     1      -6.416   0.488  15.308  1.00  0.00    -0.315 OA
HETATM   10  C9  UNL     1      -5.146   0.740  14.807  1.00  0.00     0.460 C 
ENDROOT
BRANCH   1  11
HETATM   11  C3  UNL     1      -4.375   0.538  12.576  1.00  0.00     0.397 C 
BRANCH  11  12
HETATM   12  N1  UNL     1      -3.137   1.129  12.187  1.00  0.00    -0.398 N 
ATOM     13  H1  UNL     1      -2.768   1.961  12.646  1.00  0.00     0.154 HD
BRANCH  12  14
HETATM   14  C2  UNL     1      -2.444   0.485  11.118  1.00  0.00     0.111 C 
HETATM   15  C1  UNL     1      -1.325   1.288  10.520  1.00  0.00     0.026 C 
ENDBRANCH  12  14
ENDBRANCH  11  12
ENDBRANCH   1  11
BRANCH   4  16
HETATM   16  O2  UNL     1      -3.498   1.193  16.407  1.00  0.00    -0.340 OA
ATOM     17  H2  UNL     1      -2.847   0.869  15.797  1.00  0.00     0.215 HD
ENDBRANCH   4  16
TORSDOF 4
ENDMDL
MODEL 3
REMARK VINA RESULT: -6.359643564      1.505      2.128
REMARK  4 active torsions:
REMARK  status: ('A' for Active; 'I' for Inactive)
REMARK    1  A    between atoms: C2_2  and  N1_3 
REMARK    2  A    between atoms: N1_3  and  C3_5 
REMARK    3  A    between atoms: C3_5  and  N2_6 
REMARK    4  A    between atoms: C5_9  and  O2_10 
ROOT
HETATM    1  N2  UNL     1      -4.615   2.840  15.381  1.00  0.00     0.165 N 
HETATM    2  C4  UNL     1      -3.417   2.183  15.848  1.00  0.00     0.451 C 
HETATM    3  O1  UNL     1      -3.739   0.888  16.186  1.00  0.00    -0.299 OA
HETATM    4  C5  UNL     1      -5.098   0.808  16.411  1.00  0.00     0.342 C 
HETATM    5  O3  UNL     1      -5.460   0.942  17.736  1.00  0.00    -0.293 OA
HETATM    6  C6  UNL     1      -6.630   1.688  17.773  1.00  0.00     0.166 C 
HETATM    7  C7  UNL     1      -7.803   0.727  17.622  1.00  0.00     0.078 C 
HETATM    8  C8  UNL     1      -6.822   2.405  19.087  1.00  0.00     0.078 C 
HETATM    9  O4  UNL     1      -6.556   2.579  16.704  1.00  0.00    -0.315 OA
HETATM   10  C9  UNL     1      -5.721   2.004  15.757  1.00  0.00     0.460 C 
ENDROOT
BRANCH   1  11
HETATM   11  C3  UNL     1      -4.597   3.050  13.952  1.00  0.00     0.397 C 
BRANCH  11  12
HETATM   12  N1  UNL     1      -3.919   2.034  13.216  1.00  0.00    -0.398 N 
ATOM     13  H1  UNL     1      -2.917   1.873  13.316  1.00  0.00     0.154 HD
BRANCH  12  14
HETATM   14  C2  UNL     1      -4.725   1.256  12.333  1.00  0.00     0.111 C 
HETATM   15  C1  UNL     1      -4.543  -0.230  12.457  1.00  0.00     0.026 C 
ENDBRANCH  12  14
ENDBRANCH  11  12
ENDBRANCH   1  11
BRANCH   4  16
HETATM   16  O2  UNL     1      -5.595  -0.334  15.806  1.00  0.00    -0.340 OA
ATOM     17  H2  UNL     1      -5.673  -1.024  16.454  1.00  0.00     0.215 HD
ENDBRANCH   4  16
TORSDOF 4
ENDMDL
MODEL 4
REMARK VINA RESULT: -6.273579483      3.202      4.551
REMARK  4 active torsions:
REMARK  status: ('A' for Active; 'I' for Inactive)
REMARK    1  A    between atoms: C2_2  and  N1_3 
REMARK    2  A    between atoms: N1_3  and  C3_5 
REMARK    3  A    between atoms: C3_5  and  N2_6 
REMARK    4  A    between atoms: C5_9  and  O2_10 
ROOT
HETATM    1  N2  UNL     1      -2.718   0.775  11.525  1.00  0.00     0.165 N 
HETATM    2  C4  UNL     1      -3.533  -0.071  10.687  1.00  0.00     0.451 C 
HETATM    3  O1  UNL     1      -4.683   0.616  10.369  1.00  0.00    -0.299 OA
HETATM    4  C5  UNL     1      -4.874   1.622  11.294  1.00  0.00     0.342 C 
HETATM    5  O3  UNL     1      -5.709   1.276  12.338  1.00  0.00    -0.293 OA
HETATM    6  C6  UNL     1      -5.186   1.844  13.492  1.00  0.00     0.166 C 
HETATM    7  C7  UNL     1      -5.740   3.260  13.610  1.00  0.00     0.078 C 
HETATM    8  C8  UNL     1      -5.603   1.110  14.743  1.00  0.00     0.078 C 
HETATM    9  O4  UNL     1      -3.802   1.846  13.331  1.00  0.00    -0.315 OA
HETATM   10  C9  UNL     1      -3.555   1.855  11.966  1.00  0.00     0.460 C 
ENDROOT
BRANCH   1  11
HETATM   11  C3  UNL     1      -1.560   1.281  10.824  1.00  0.00     0.397 C 
BRANCH  11  12
HETATM   12  N1  UNL     1      -0.896   2.356  11.484  1.00  0.00    -0.398 N 
ATOM     13  H1  UNL     1      -0.862   2.427  12.501  1.00  0.00     0.154 HD
BRANCH  12  14
HETATM   14  C2  UNL     1      -0.281   3.327  10.638  1.00  0.00     0.111 C 
HETATM   15  C1  UNL     1      -0.365   3.024   9.169  1.00  0.00     0.026 C 
ENDBRANCH  12  14
ENDBRANCH  11  12
ENDBRANCH   1  11
BRANCH   4  16
HETATM   16  O2  UNL     1      -5.246   2.782  10.638  1.00  0.00    -0.340 OA
ATOM     17  H2  UNL     1      -5.913   2.578   9.992  1.00  0.00     0.215 HD
ENDBRANCH   4  16
TORSDOF 4
ENDMDL
MODEL 5
REMARK VINA RESULT: -6.249359080      3.225      5.640
REMARK  4 active torsions:
REMARK  status: ('A' for Active; 'I' for Inactive)
REMARK    1  A    between atoms: C2_2  and  N1_3 
REMARK    2  A    between atoms: N1_3  and  C3_5 
REMARK    3  A    between atoms: C3_5  and  N2_6 
REMARK    4  A    between atoms: C5_9  and  O2_10 
ROOT
HETATM    1  N2  UNL     1      -3.746   3.930  12.532  1.00  0.00     0.165 N 
HETATM    2  C4  UNL     1      -4.188   4.539  11.301  1.00  0.00     0.451 C 
HETATM    3  O1  UNL     1      -5.009   3.647  10.649  1.00  0.00    -0.299 OA
HETATM    4  C5  UNL     1      -4.756   2.376  11.123  1.00  0.00     0.342 C 
HETATM    5  O3  UNL     1      -3.852   1.659  10.365  1.00  0.00    -0.293 OA
HETATM    6  C6  UNL     1      -3.058   0.935  11.243  1.00  0.00     0.166 C 
HETATM    7  C7  UNL     1      -3.760  -0.388  11.527  1.00  0.00     0.078 C 
HETATM    8  C8  UNL     1      -1.708   0.593  10.661  1.00  0.00     0.078 C 
HETATM    9  O4  UNL     1      -2.942   1.712  12.394  1.00  0.00    -0.315 OA
HETATM   10  C9  UNL     1      -4.061   2.531  12.441  1.00  0.00     0.460 C 
ENDROOT
BRANCH   1  11
HETATM   11  C3  UNL     1      -4.380   4.520  13.689  1.00  0.00     0.397 C 
BRANCH  11  12
HETATM   12  N1  UNL     1      -5.669   5.074  13.435  1.00  0.00    -0.398 N 
ATOM     13  H1  UNL     1      -5.812   5.818  12.752  1.00  0.00     0.154 HD
BRANCH  12  14
HETATM   14  C2  UNL     1      -6.747   4.524  14.191  1.00  0.00     0.111 C 
HETATM   15  C1  UNL     1      -6.329   3.649  15.339  1.00  0.00     0.026 C 
ENDBRANCH  12  14
ENDBRANCH  11  12
ENDBRANCH   1  11
BRANCH   4  16
HETATM   16  O2  UNL     1      -5.957   1.720  11.334  1.00  0.00    -0.340 OA
ATOM     17  H2  UNL     1      -5.790   0.792  11.456  1.00  0.00     0.215 HD
ENDBRANCH   4  16
TORSDOF 4
ENDMDL
