MODEL 1
REMARK VINA RESULT: -7.275117061      0.000      0.000
REMARK  9 active torsions:
REMARK  status: ('A' for Active; 'I' for Inactive)
REMARK    1  A    between atoms: S1_2  and  C2_3 
REMARK    2  A    between atoms: C2_3  and  C3_4 
REMARK    3  A    between atoms: C3_4  and  N1_5 
REMARK    4  A    between atoms: N3_8  and  C4_9 
REMARK    5  A    between atoms: C4_9  and  C5_10 
REMARK    6  A    between atoms: C5_10  and  C6_11 
REMARK    7  A    between atoms: C6_11  and  C7_12 
REMARK    8  A    between atoms: C7_12  and  C8_13 
REMARK    9  A    between atoms: C8_13  and  N4_14 
ROOT
HETATM    1  C4  UNL     1      29.292  19.552  11.519  1.00  0.00     0.150 C 
ENDROOT
BRANCH   1   2
HETATM    2  N3  UNL     1      29.525  20.915  11.968  1.00  0.00    -0.288 N 
HETATM    3  N2  UNL     1      29.645  21.299  13.332  1.00  0.00    -0.239 N 
HETATM    4  N1  UNL     1      29.839  22.544  13.441  1.00  0.00    -0.287 N 
ATOM      5  H2  UNL     1      29.583  20.655  14.120  1.00  0.00     0.208 HD
HETATM    6  C14 UNL     1      29.860  23.074  12.132  1.00  0.00     0.130 A 
HETATM    7  C13 UNL     1      29.673  22.107  11.235  1.00  0.00     0.130 A 
BRANCH   4   8
HETATM    8  C3  UNL     1      30.004  23.241  14.718  1.00  0.00     0.160 C 
BRANCH   8   9
HETATM    9  C2  UNL     1      30.732  22.386  15.691  1.00  0.00     0.095 C 
BRANCH   9  10
HETATM   10  S1  UNL     1      32.314  23.082  16.141  1.00  0.00    -0.172 SA
HETATM   11  C1  UNL     1      32.571  23.081  17.934  1.00  0.00     0.089 C 
ENDBRANCH   9  10
ENDBRANCH   8   9
ENDBRANCH   4   8
ENDBRANCH   1   2
BRANCH   1  12
HETATM   12  C5  UNL     1      27.924  19.053  11.791  1.00  0.00     0.022 C 
BRANCH  12  13
HETATM   13  C6  UNL     1      26.816  19.952  11.411  1.00  0.00     0.003 C 
BRANCH  13  14
HETATM   14  C7  UNL     1      25.662  19.958  12.380  1.00  0.00     0.020 C 
BRANCH  14  15
HETATM   15  C8  UNL     1      26.101  20.493  13.723  1.00  0.00     0.129 C 
BRANCH  15  16
HETATM   16  N4  UNL     1      26.344  19.495  14.711  1.00  0.00    -0.353 N 
HETATM   17  C9  UNL     1      27.462  19.477  15.471  1.00  0.00     0.093 A 
HETATM   18  C10 UNL     1      27.651  18.489  16.412  1.00  0.00     0.034 A 
HETATM   19  C11 UNL     1      26.706  17.513  16.587  1.00  0.00     0.090 A 
HETATM   20  N5  UNL     1      25.599  17.556  15.815  1.00  0.00    -0.362 N 
HETATM   21  C12 UNL     1      25.428  18.530  14.898  1.00  0.00     0.182 A 
ATOM     22  H5  UNL     1      24.881  16.842  15.928  1.00  0.00     0.165 HD
ENDBRANCH  15  16
ENDBRANCH  14  15
ENDBRANCH  13  14
ENDBRANCH  12  13
ENDBRANCH   1  12
TORSDOF 9
ENDMDL
MODEL 2
REMARK VINA RESULT: -7.271744107      3.425      4.661
REMARK  9 active torsions:
REMARK  status: ('A' for Active; 'I' for Inactive)
REMARK    1  A    between atoms: S1_2  and  C2_3 
REMARK    2  A    between atoms: C2_3  and  C3_4 
REMARK    3  A    between atoms: C3_4  and  N1_5 
REMARK    4  A    between atoms: N3_8  and  C4_9 
REMARK    5  A    between atoms: C4_9  and  C5_10 
REMARK    6  A    between atoms: C5_10  and  C6_11 
REMARK    7  A    between atoms: C6_11  and  C7_12 
REMARK    8  A    between atoms: C7_12  and  C8_13 
REMARK    9  A    between atoms: C8_13  and  N4_14 
ROOT
HETATM    1  C4  UNL     1      29.315  19.840  11.529  1.00  0.00     0.150 C 
ENDROOT
BRANCH   1   2
HETATM    2  N3  UNL     1      30.078  20.520  10.494  1.00  0.00    -0.288 N 
HETATM    3  N2  UNL     1      31.357  20.099  10.035  1.00  0.00    -0.239 N 
HETATM    4  N1  UNL     1      31.797  20.871   9.136  1.00  0.00    -0.287 N 
ATOM      5  H2  UNL     1      31.855  19.280  10.386  1.00  0.00     0.208 HD
HETATM    6  C14 UNL     1      30.819  21.871   8.937  1.00  0.00     0.130 A 
HETATM    7  C13 UNL     1      29.779  21.674   9.747  1.00  0.00     0.130 A 
BRANCH   4   8
HETATM    8  C3  UNL     1      33.087  20.701   8.466  1.00  0.00     0.160 C 
BRANCH   8   9
HETATM    9  C2  UNL     1      32.891  20.284   7.053  1.00  0.00     0.095 C 
BRANCH   9  10
HETATM   10  S1  UNL     1      33.159  21.633   5.913  1.00  0.00    -0.172 SA
HETATM   11  C1  UNL     1      33.977  23.040   6.708  1.00  0.00     0.089 C 
ENDBRANCH   9  10
ENDBRANCH   8   9
ENDBRANCH   4   8
ENDBRANCH   1   2
BRANCH   1  12
HETATM   12  C5  UNL     1      28.015  20.478  11.838  1.00  0.00     0.022 C 
BRANCH  12  13
HETATM   13  C6  UNL     1      26.810  19.681  11.535  1.00  0.00     0.003 C 
BRANCH  13  14
HETATM   14  C7  UNL     1      25.602  20.043  12.360  1.00  0.00     0.020 C 
BRANCH  14  15
HETATM   15  C8  UNL     1      26.022  20.536  13.726  1.00  0.00     0.129 C 
BRANCH  15  16
HETATM   16  N4  UNL     1      26.269  19.508  14.681  1.00  0.00    -0.353 N 
HETATM   17  C9  UNL     1      27.409  19.441  15.404  1.00  0.00     0.093 A 
HETATM   18  C10 UNL     1      27.600  18.426  16.314  1.00  0.00     0.034 A 
HETATM   19  C11 UNL     1      26.636  17.471  16.495  1.00  0.00     0.090 A 
HETATM   20  N5  UNL     1      25.507  17.562  15.760  1.00  0.00    -0.362 N 
HETATM   21  C12 UNL     1      25.334  18.562  14.873  1.00  0.00     0.182 A 
ATOM     22  H5  UNL     1      24.774  16.864  15.878  1.00  0.00     0.165 HD
ENDBRANCH  15  16
ENDBRANCH  14  15
ENDBRANCH  13  14
ENDBRANCH  12  13
ENDBRANCH   1  12
TORSDOF 9
ENDMDL
MODEL 3
REMARK VINA RESULT: -7.031214683      2.644      5.494
REMARK  9 active torsions:
REMARK  status: ('A' for Active; 'I' for Inactive)
REMARK    1  A    between atoms: S1_2  and  C2_3 
REMARK    2  A    between atoms: C2_3  and  C3_4 
REMARK    3  A    between atoms: C3_4  and  N1_5 
REMARK    4  A    between atoms: N3_8  and  C4_9 
REMARK    5  A    between atoms: C4_9  and  C5_10 
REMARK    6  A    between atoms: C5_10  and  C6_11 
REMARK    7  A    between atoms: C6_11  and  C7_12 
REMARK    8  A    between atoms: C7_12  and  C8_13 
REMARK    9  A    between atoms: C8_13  and  N4_14 
ROOT
HETATM    1  C4  UNL     1      30.033  19.535  11.094  1.00  0.00     0.150 C 
ENDROOT
BRANCH   1   2
HETATM    2  N3  UNL     1      29.407  18.356  11.673  1.00  0.00    -0.288 N 
HETATM    3  N2  UNL     1      28.484  18.390  12.756  1.00  0.00    -0.239 N 
HETATM    4  N1  UNL     1      28.099  17.226  13.064  1.00  0.00    -0.287 N 
ATOM      5  H2  UNL     1      28.174  19.243  13.222  1.00  0.00     0.208 HD
HETATM    6  C14 UNL     1      28.754  16.330  12.190  1.00  0.00     0.130 A 
HETATM    7  C13 UNL     1      29.543  16.995  11.347  1.00  0.00     0.130 A 
BRANCH   4   8
HETATM    8  C3  UNL     1      27.149  16.933  14.138  1.00  0.00     0.160 C 
BRANCH   8   9
HETATM    9  C2  UNL     1      26.867  18.155  14.936  1.00  0.00     0.095 C 
BRANCH   9  10
HETATM   10  S1  UNL     1      25.262  18.843  14.563  1.00  0.00    -0.172 SA
HETATM   11  C1  UNL     1      25.378  20.291  13.481  1.00  0.00     0.089 C 
ENDBRANCH   9  10
ENDBRANCH   8   9
ENDBRANCH   4   8
ENDBRANCH   1   2
BRANCH   1  12
HETATM   12  C5  UNL     1      29.127  20.698  10.967  1.00  0.00     0.022 C 
BRANCH  12  13
HETATM   13  C6  UNL     1      29.773  22.000  10.703  1.00  0.00     0.003 C 
BRANCH  13  14
HETATM   14  C7  UNL     1      29.739  22.957  11.867  1.00  0.00     0.020 C 
BRANCH  14  15
HETATM   15  C8  UNL     1      29.059  22.320  13.057  1.00  0.00     0.129 C 
BRANCH  15  16
HETATM   16  N4  UNL     1      29.798  22.390  14.273  1.00  0.00    -0.353 N 
HETATM   17  C9  UNL     1      30.519  23.478  14.627  1.00  0.00     0.093 A 
HETATM   18  C10 UNL     1      31.217  23.496  15.814  1.00  0.00     0.034 A 
HETATM   19  C11 UNL     1      31.189  22.411  16.648  1.00  0.00     0.090 A 
HETATM   20  N5  UNL     1      30.460  21.339  16.270  1.00  0.00    -0.362 N 
HETATM   21  C12 UNL     1      29.782  21.336  15.106  1.00  0.00     0.182 A 
ATOM     22  H5  UNL     1      30.422  20.520  16.876  1.00  0.00     0.165 HD
ENDBRANCH  15  16
ENDBRANCH  14  15
ENDBRANCH  13  14
ENDBRANCH  12  13
ENDBRANCH   1  12
TORSDOF 9
ENDMDL
MODEL 4
REMARK VINA RESULT: -7.003593477      3.398      5.578
REMARK  9 active torsions:
REMARK  status: ('A' for Active; 'I' for Inactive)
REMARK    1  A    between atoms: S1_2  and  C2_3 
REMARK    2  A    between atoms: C2_3  and  C3_4 
REMARK    3  A    between atoms: C3_4  and  N1_5 
REMARK    4  A    between atoms: N3_8  and  C4_9 
REMARK    5  A    between atoms: C4_9  and  C5_10 
REMARK    6  A    between atoms: C5_10  and  C6_11 
REMARK    7  A    between atoms: C6_11  and  C7_12 
REMARK    8  A    between atoms: C7_12  and  C8_13 
REMARK    9  A    between atoms: C8_13  and  N4_14 
ROOT
HETATM    1  C4  UNL     1      28.780  19.627  11.512  1.00  0.00     0.150 C 
ENDROOT
BRANCH   1   2
HETATM    2  N3  UNL     1      29.671  20.504  10.770  1.00  0.00    -0.288 N 
HETATM    3  N2  UNL     1      30.870  20.075  10.136  1.00  0.00    -0.239 N 
HETATM    4  N1  UNL     1      31.457  21.041   9.568  1.00  0.00    -0.287 N 
ATOM      5  H2  UNL     1      31.212  19.114  10.139  1.00  0.00     0.208 HD
HETATM    6  C14 UNL     1      30.669  22.192   9.793  1.00  0.00     0.130 A 
HETATM    7  C13 UNL     1      29.592  21.885  10.515  1.00  0.00     0.130 A 
BRANCH   4   8
HETATM    8  C3  UNL     1      32.714  20.918   8.829  1.00  0.00     0.160 C 
BRANCH   8   9
HETATM    9  C2  UNL     1      32.504  20.178   7.557  1.00  0.00     0.095 C 
BRANCH   9  10
HETATM   10  S1  UNL     1      32.118  21.275   6.201  1.00  0.00    -0.172 SA
HETATM   11  C1  UNL     1      33.610  21.977   5.450  1.00  0.00     0.089 C 
ENDBRANCH   9  10
ENDBRANCH   8   9
ENDBRANCH   4   8
ENDBRANCH   1   2
BRANCH   1  12
HETATM   12  C5  UNL     1      27.361  20.049  11.490  1.00  0.00     0.022 C 
BRANCH  12  13
HETATM   13  C6  UNL     1      26.565  19.722  12.690  1.00  0.00     0.003 C 
BRANCH  13  14
HETATM   14  C7  UNL     1      26.623  20.765  13.777  1.00  0.00     0.020 C 
BRANCH  14  15
HETATM   15  C8  UNL     1      27.752  20.468  14.736  1.00  0.00     0.129 C 
BRANCH  15  16
HETATM   16  N4  UNL     1      28.845  21.381  14.671  1.00  0.00    -0.353 N 
HETATM   17  C9  UNL     1      28.721  22.633  14.177  1.00  0.00     0.093 A 
HETATM   18  C10 UNL     1      29.809  23.477  14.134  1.00  0.00     0.034 A 
HETATM   19  C11 UNL     1      31.029  23.054  14.590  1.00  0.00     0.090 A 
HETATM   20  N5  UNL     1      31.123  21.799  15.079  1.00  0.00    -0.362 N 
HETATM   21  C12 UNL     1      30.049  20.985  15.114  1.00  0.00     0.182 A 
ATOM     22  H5  UNL     1      32.020  21.462  15.426  1.00  0.00     0.165 HD
ENDBRANCH  15  16
ENDBRANCH  14  15
ENDBRANCH  13  14
ENDBRANCH  12  13
ENDBRANCH   1  12
TORSDOF 9
ENDMDL
MODEL 5
REMARK VINA RESULT: -6.935742856      3.107      5.160
REMARK  9 active torsions:
REMARK  status: ('A' for Active; 'I' for Inactive)
REMARK    1  A    between atoms: S1_2  and  C2_3 
REMARK    2  A    between atoms: C2_3  and  C3_4 
REMARK    3  A    between atoms: C3_4  and  N1_5 
REMARK    4  A    between atoms: N3_8  and  C4_9 
REMARK    5  A    between atoms: C4_9  and  C5_10 
REMARK    6  A    between atoms: C5_10  and  C6_11 
REMARK    7  A    between atoms: C6_11  and  C7_12 
REMARK    8  A    between atoms: C7_12  and  C8_13 
REMARK    9  A    between atoms: C8_13  and  N4_14 
ROOT
HETATM    1  C4  UNL     1      29.142  19.823  11.476  1.00  0.00     0.150 C 
ENDROOT
BRANCH   1   2
HETATM    2  N3  UNL     1      30.018  20.618  10.631  1.00  0.00    -0.288 N 
HETATM    3  N2  UNL     1      31.119  20.092   9.899  1.00  0.00    -0.239 N 
HETATM    4  N1  UNL     1      31.714  21.000   9.253  1.00  0.00    -0.287 N 
ATOM      5  H2  UNL     1      31.392  19.109   9.897  1.00  0.00     0.208 HD
HETATM    6  C14 UNL     1      31.034  22.209   9.519  1.00  0.00     0.130 A 
HETATM    7  C13 UNL     1      30.011  21.996  10.346  1.00  0.00     0.130 A 
BRANCH   4   8
HETATM    8  C3  UNL     1      32.884  20.773   8.403  1.00  0.00     0.160 C 
BRANCH   8   9
HETATM    9  C2  UNL     1      34.138  20.947   9.182  1.00  0.00     0.095 C 
BRANCH   9  10
HETATM   10  S1  UNL     1      35.149  22.271   8.535  1.00  0.00    -0.172 SA
HETATM   11  C1  UNL     1      34.164  23.505   7.648  1.00  0.00     0.089 C 
ENDBRANCH   9  10
ENDBRANCH   8   9
ENDBRANCH   4   8
ENDBRANCH   1   2
BRANCH   1  12
HETATM   12  C5  UNL     1      27.704  20.138  11.321  1.00  0.00     0.022 C 
BRANCH  12  13
HETATM   13  C6  UNL     1      26.828  19.755  12.447  1.00  0.00     0.003 C 
BRANCH  13  14
HETATM   14  C7  UNL     1      26.707  20.804  13.523  1.00  0.00     0.020 C 
BRANCH  14  15
HETATM   15  C8  UNL     1      27.706  20.548  14.627  1.00  0.00     0.129 C 
BRANCH  15  16
HETATM   16  N4  UNL     1      28.829  21.425  14.630  1.00  0.00    -0.353 N 
HETATM   17  C9  UNL     1      28.758  22.704  14.196  1.00  0.00     0.093 A 
HETATM   18  C10 UNL     1      29.873  23.512  14.218  1.00  0.00     0.034 A 
HETATM   19  C11 UNL     1      31.067  23.027  14.678  1.00  0.00     0.090 A 
HETATM   20  N5  UNL     1      31.110  21.747  15.106  1.00  0.00    -0.362 N 
HETATM   21  C12 UNL     1      30.010  20.968  15.079  1.00  0.00     0.182 A 
ATOM     22  H5  UNL     1      31.988  21.364  15.456  1.00  0.00     0.165 HD
ENDBRANCH  15  16
ENDBRANCH  14  15
ENDBRANCH  13  14
ENDBRANCH  12  13
ENDBRANCH   1  12
TORSDOF 9
ENDMDL
