MODEL 1
REMARK VINA RESULT: -9.098553803      0.000      0.000
REMARK  16 active torsions:
REMARK  status: ('A' for Active; 'I' for Inactive)
REMARK    1  A    between atoms: N1_2  and  C3_4 
REMARK    2  A    between atoms: C3_4  and  O1_5 
REMARK    3  A    between atoms: C3_4  and  C4_7 
REMARK    4  A    between atoms: C5_10  and  N3_11 
REMARK       I    between atoms: N3_11  and  C6_13 
REMARK    5  A    between atoms: C6_13  and  C7_15 
REMARK    6  A    between atoms: C14_23  and  C15_24 
REMARK    7  A    between atoms: C15_24  and  C16_26 
REMARK    8  A    between atoms: C16_26  and  C17_27 
REMARK    9  A    between atoms: C17_27  and  C18_28 
REMARK   10  A    between atoms: C18_28  and  C19_29 
REMARK   11  A    between atoms: C19_29  and  C20_30 
REMARK   12  A    between atoms: C20_30  and  C21_31 
REMARK   13  A    between atoms: C21_31  and  C22_32 
REMARK   14  A    between atoms: C22_32  and  C23_33 
REMARK   15  A    between atoms: C23_33  and  C24_34 
REMARK       I    between atoms: C24_34  and  N4_36 
REMARK   16  A    between atoms: N4_36  and  C25_38 
ROOT
HETATM    1  C4  UNL     1      10.634  19.123  18.111  1.00  0.00     0.096 A 
HETATM    2  N2  UNL     1       9.499  18.666  17.619  1.00  0.00    -0.338 N 
ATOM      3  H2  UNL     1       8.822  18.328  18.304  1.00  0.00     0.167 HD
HETATM    4  C5  UNL     1       9.114  18.587  16.317  1.00  0.00     0.109 A 
HETATM    5  C12 UNL     1      10.023  19.043  15.406  1.00  0.00     0.068 A 
HETATM    6  C13 UNL     1      11.248  19.542  15.859  1.00  0.00     0.022 A 
HETATM    7  S1  UNL     1      12.589  20.180  15.026  1.00  0.00    -0.086 SA
HETATM    8  C14 UNL     1      13.590  20.523  16.357  1.00  0.00     0.052 A 
HETATM    9  C26 UNL     1      12.829  20.121  17.431  1.00  0.00     0.038 A 
HETATM   10  C27 UNL     1      11.615  19.612  17.177  1.00  0.00     0.014 A 
ENDROOT
BRANCH   8  11
HETATM   11  C15 UNL     1      14.946  21.112  16.334  1.00  0.00     0.166 C 
HETATM   12  O3  UNL     1      15.714  20.752  15.442  1.00  0.00    -0.292 OA
BRANCH  11  13
HETATM   13  C16 UNL     1      15.274  22.113  17.409  1.00  0.00     0.084 C 
BRANCH  13  14
HETATM   14  C17 UNL     1      14.629  23.421  17.161  1.00  0.00     0.008 C 
BRANCH  14  15
HETATM   15  C18 UNL     1      14.360  24.290  18.326  1.00  0.00     0.000 C 
BRANCH  15  16
HETATM   16  C19 UNL     1      14.701  23.687  19.658  1.00  0.00     0.000 C 
BRANCH  16  17
HETATM   17  C20 UNL     1      15.476  24.718  20.453  1.00  0.00     0.000 C 
BRANCH  17  18
HETATM   18  C21 UNL     1      16.954  24.526  20.376  1.00  0.00     0.000 C 
BRANCH  18  19
HETATM   19  C22 UNL     1      17.634  25.584  19.539  1.00  0.00     0.009 C 
BRANCH  19  20
HETATM   20  C23 UNL     1      18.136  24.869  18.276  1.00  0.00     0.103 C 
BRANCH  20  21
HETATM   21  C24 UNL     1      17.682  25.549  17.063  1.00  0.00     0.235 C 
HETATM   22  O4  UNL     1      17.281  26.757  17.094  1.00  0.00    -0.273 OA
HETATM   23  N4  UNL     1      17.665  24.906  15.818  1.00  0.00    -0.157 N 
ATOM     24  H4  UNL     1      17.343  25.445  15.015  1.00  0.00     0.187 HD
BRANCH  23  25
HETATM   25  C25 UNL     1      18.023  23.693  15.609  1.00  0.00     0.716 A 
HETATM   26  N5  UNL     1      18.676  22.822  16.400  1.00  0.00    -0.115 N 
HETATM   27  N6  UNL     1      18.799  21.701  15.714  1.00  0.00    -0.213 N 
ATOM     28  H5  UNL     1      19.012  22.995  17.348  1.00  0.00     0.207 HD
HETATM   29  N7  UNL     1      18.252  21.825  14.523  1.00  0.00    -0.213 N 
ATOM     30  H6  UNL     1      19.253  20.856  16.059  1.00  0.00     0.210 HD
HETATM   31  N8  UNL     1      17.772  23.042  14.445  1.00  0.00    -0.115 N 
ATOM     32  H7  UNL     1      18.210  21.109  13.798  1.00  0.00     0.210 HD
ATOM     33  H8  UNL     1      17.288  23.437  13.639  1.00  0.00     0.207 HD
ENDBRANCH  23  25
ENDBRANCH  20  21
ENDBRANCH  19  20
ENDBRANCH  18  19
ENDBRANCH  17  18
ENDBRANCH  16  17
ENDBRANCH  15  16
ENDBRANCH  14  15
ENDBRANCH  13  14
ENDBRANCH  11  13
ENDBRANCH   8  11
BRANCH   1  34
HETATM   34  C3  UNL     1      10.902  19.148  19.528  1.00  0.00     0.165 C 
BRANCH  34  35
HETATM   35  N1  UNL     1      10.399  19.943  20.535  1.00  0.00    -0.369 N 
HETATM   36  C1  UNL     1      10.569  21.324  20.838  1.00  0.00     0.151 C 
HETATM   37  C2  UNL     1       9.473  19.254  21.538  1.00  0.00     0.151 C 
ENDBRANCH  34  35
BRANCH  34  38
HETATM   38  O1  UNL     1      11.779  18.266  19.976  1.00  0.00    -0.344 OA
ATOM     39  H1  UNL     1      11.375  17.433  20.190  1.00  0.00     0.219 HD
ENDBRANCH  34  38
ENDBRANCH   1  34
BRANCH   4  40
HETATM   40  N3  UNL     1       7.967  18.115  15.975  1.00  0.00    -0.313 N 
HETATM   41  C6  UNL     1       7.530  16.843  16.432  1.00  0.00     0.227 C 
HETATM   42  O2  UNL     1       6.774  16.831  17.446  1.00  0.00    -0.273 OA
ATOM     43  H3  UNL     1       7.361  18.664  15.365  1.00  0.00     0.170 HD
BRANCH  41  44
HETATM   44  C7  UNL     1       7.935  15.580  15.759  1.00  0.00     0.078 C 
HETATM   45  C8  UNL     1       6.836  14.568  15.934  1.00  0.00     0.014 C 
HETATM   46  C9  UNL     1       6.774  13.740  14.689  1.00  0.00     0.001 C 
HETATM   47  C10 UNL     1       7.740  14.390  13.710  1.00  0.00     0.001 C 
HETATM   48  C11 UNL     1       8.033  15.757  14.265  1.00  0.00     0.014 C 
ENDBRANCH  41  44
ENDBRANCH   4  40
TORSDOF 16
ENDMDL
MODEL 2
REMARK VINA RESULT: -8.887932327      2.067      2.705
REMARK  16 active torsions:
REMARK  status: ('A' for Active; 'I' for Inactive)
REMARK    1  A    between atoms: N1_2  and  C3_4 
REMARK    2  A    between atoms: C3_4  and  O1_5 
REMARK    3  A    between atoms: C3_4  and  C4_7 
REMARK    4  A    between atoms: C5_10  and  N3_11 
REMARK       I    between atoms: N3_11  and  C6_13 
REMARK    5  A    between atoms: C6_13  and  C7_15 
REMARK    6  A    between atoms: C14_23  and  C15_24 
REMARK    7  A    between atoms: C15_24  and  C16_26 
REMARK    8  A    between atoms: C16_26  and  C17_27 
REMARK    9  A    between atoms: C17_27  and  C18_28 
REMARK   10  A    between atoms: C18_28  and  C19_29 
REMARK   11  A    between atoms: C19_29  and  C20_30 
REMARK   12  A    between atoms: C20_30  and  C21_31 
REMARK   13  A    between atoms: C21_31  and  C22_32 
REMARK   14  A    between atoms: C22_32  and  C23_33 
REMARK   15  A    between atoms: C23_33  and  C24_34 
REMARK       I    between atoms: C24_34  and  N4_36 
REMARK   16  A    between atoms: N4_36  and  C25_38 
ROOT
HETATM    1  C4  UNL     1       9.130  17.799  17.639  1.00  0.00     0.096 A 
HETATM    2  N2  UNL     1       8.779  16.650  17.096  1.00  0.00    -0.338 N 
ATOM      3  H2  UNL     1       8.097  16.101  17.620  1.00  0.00     0.167 HD
HETATM    4  C5  UNL     1       9.207  16.102  15.926  1.00  0.00     0.109 A 
HETATM    5  C12 UNL     1      10.117  16.843  15.229  1.00  0.00     0.068 A 
HETATM    6  C13 UNL     1      10.534  18.073  15.747  1.00  0.00     0.022 A 
HETATM    7  S1  UNL     1      11.631  19.236  15.161  1.00  0.00    -0.086 SA
HETATM    8  C14 UNL     1      11.508  20.374  16.418  1.00  0.00     0.052 A 
HETATM    9  C26 UNL     1      10.595  19.797  17.272  1.00  0.00     0.038 A 
HETATM   10  C27 UNL     1      10.089  18.605  16.928  1.00  0.00     0.014 A 
ENDROOT
BRANCH   8  11
HETATM   11  C15 UNL     1      12.222  21.663  16.536  1.00  0.00     0.166 C 
HETATM   12  O3  UNL     1      12.943  22.008  15.601  1.00  0.00    -0.292 OA
BRANCH  11  13
HETATM   13  C16 UNL     1      12.003  22.452  17.799  1.00  0.00     0.084 C 
BRANCH  13  14
HETATM   14  C17 UNL     1      13.176  22.390  18.699  1.00  0.00     0.008 C 
BRANCH  14  15
HETATM   15  C18 UNL     1      14.233  23.409  18.527  1.00  0.00     0.000 C 
BRANCH  15  16
HETATM   16  C19 UNL     1      15.086  23.648  19.740  1.00  0.00     0.000 C 
BRANCH  16  17
HETATM   17  C20 UNL     1      15.311  25.141  19.866  1.00  0.00     0.000 C 
BRANCH  17  18
HETATM   18  C21 UNL     1      15.586  25.803  18.558  1.00  0.00     0.000 C 
BRANCH  18  19
HETATM   19  C22 UNL     1      17.047  26.147  18.377  1.00  0.00     0.009 C 
BRANCH  19  20
HETATM   20  C23 UNL     1      17.476  25.494  17.055  1.00  0.00     0.103 C 
BRANCH  20  21
HETATM   21  C24 UNL     1      17.774  24.073  17.236  1.00  0.00     0.235 C 
HETATM   22  O4  UNL     1      18.396  23.655  18.266  1.00  0.00    -0.273 OA
HETATM   23  N4  UNL     1      17.394  23.112  16.290  1.00  0.00    -0.157 N 
ATOM     24  H4  UNL     1      17.630  22.140  16.487  1.00  0.00     0.187 HD
BRANCH  23  25
HETATM   25  C25 UNL     1      16.774  23.359  15.195  1.00  0.00     0.716 A 
HETATM   26  N5  UNL     1      17.224  23.836  14.021  1.00  0.00    -0.115 N 
HETATM   27  N6  UNL     1      16.183  23.904  13.212  1.00  0.00    -0.213 N 
ATOM     28  H5  UNL     1      18.185  24.094  13.797  1.00  0.00     0.207 HD
HETATM   29  N7  UNL     1      15.093  23.492  13.825  1.00  0.00    -0.213 N 
ATOM     30  H6  UNL     1      16.218  24.231  12.247  1.00  0.00     0.210 HD
HETATM   31  N8  UNL     1      15.442  23.154  15.042  1.00  0.00    -0.115 N 
ATOM     32  H7  UNL     1      14.155  23.445  13.428  1.00  0.00     0.210 HD
ATOM     33  H8  UNL     1      14.812  22.795  15.760  1.00  0.00     0.207 HD
ENDBRANCH  23  25
ENDBRANCH  20  21
ENDBRANCH  19  20
ENDBRANCH  18  19
ENDBRANCH  17  18
ENDBRANCH  16  17
ENDBRANCH  15  16
ENDBRANCH  14  15
ENDBRANCH  13  14
ENDBRANCH  11  13
ENDBRANCH   8  11
BRANCH   1  34
HETATM   34  C3  UNL     1       8.584  18.254  18.893  1.00  0.00     0.165 C 
BRANCH  34  35
HETATM   35  N1  UNL     1       8.910  17.939  20.195  1.00  0.00    -0.369 N 
HETATM   36  C1  UNL     1       8.308  17.068  21.148  1.00  0.00     0.151 C 
HETATM   37  C2  UNL     1      10.151  18.628  20.764  1.00  0.00     0.151 C 
ENDBRANCH  34  35
BRANCH  34  38
HETATM   38  O1  UNL     1       7.595  19.128  18.823  1.00  0.00    -0.344 OA
ATOM     39  H1  UNL     1       7.772  19.822  18.199  1.00  0.00     0.219 HD
ENDBRANCH  34  38
ENDBRANCH   1  34
BRANCH   4  40
HETATM   40  N3  UNL     1       8.776  14.963  15.512  1.00  0.00    -0.313 N 
HETATM   41  C6  UNL     1       7.493  14.833  14.918  1.00  0.00     0.227 C 
HETATM   42  O2  UNL     1       7.447  14.847  13.654  1.00  0.00    -0.273 OA
ATOM     43  H3  UNL     1       9.368  14.137  15.613  1.00  0.00     0.170 HD
BRANCH  41  44
HETATM   44  C7  UNL     1       6.257  14.686  15.731  1.00  0.00     0.078 C 
HETATM   45  C8  UNL     1       5.496  15.982  15.689  1.00  0.00     0.014 C 
HETATM   46  C9  UNL     1       4.035  15.656  15.697  1.00  0.00     0.001 C 
HETATM   47  C10 UNL     1       3.948  14.142  15.573  1.00  0.00     0.001 C 
HETATM   48  C11 UNL     1       5.308  13.686  15.121  1.00  0.00     0.014 C 
ENDBRANCH  41  44
ENDBRANCH   4  40
TORSDOF 16
ENDMDL
MODEL 3
REMARK VINA RESULT: -8.836252578      3.243     10.089
REMARK  16 active torsions:
REMARK  status: ('A' for Active; 'I' for Inactive)
REMARK    1  A    between atoms: N1_2  and  C3_4 
REMARK    2  A    between atoms: C3_4  and  O1_5 
REMARK    3  A    between atoms: C3_4  and  C4_7 
REMARK    4  A    between atoms: C5_10  and  N3_11 
REMARK       I    between atoms: N3_11  and  C6_13 
REMARK    5  A    between atoms: C6_13  and  C7_15 
REMARK    6  A    between atoms: C14_23  and  C15_24 
REMARK    7  A    between atoms: C15_24  and  C16_26 
REMARK    8  A    between atoms: C16_26  and  C17_27 
REMARK    9  A    between atoms: C17_27  and  C18_28 
REMARK   10  A    between atoms: C18_28  and  C19_29 
REMARK   11  A    between atoms: C19_29  and  C20_30 
REMARK   12  A    between atoms: C20_30  and  C21_31 
REMARK   13  A    between atoms: C21_31  and  C22_32 
REMARK   14  A    between atoms: C22_32  and  C23_33 
REMARK   15  A    between atoms: C23_33  and  C24_34 
REMARK       I    between atoms: C24_34  and  N4_36 
REMARK   16  A    between atoms: N4_36  and  C25_38 
ROOT
HETATM    1  C4  UNL     1      16.906  23.618  15.801  1.00  0.00     0.096 A 
HETATM    2  N2  UNL     1      17.755  24.162  14.950  1.00  0.00    -0.338 N 
ATOM      3  H2  UNL     1      18.549  24.649  15.365  1.00  0.00     0.167 HD
HETATM    4  C5  UNL     1      17.708  24.156  13.591  1.00  0.00     0.109 A 
HETATM    5  C12 UNL     1      16.644  23.501  13.042  1.00  0.00     0.068 A 
HETATM    6  C13 UNL     1      15.705  22.901  13.886  1.00  0.00     0.022 A 
HETATM    7  S1  UNL     1      14.285  22.019  13.557  1.00  0.00    -0.086 SA
HETATM    8  C14 UNL     1      13.802  21.691  15.154  1.00  0.00     0.052 A 
HETATM    9  C26 UNL     1      14.784  22.291  15.908  1.00  0.00     0.038 A 
HETATM   10  C27 UNL     1      15.772  22.919  15.254  1.00  0.00     0.014 A 
ENDROOT
BRANCH   8  11
HETATM   11  C15 UNL     1      12.608  20.937  15.594  1.00  0.00     0.166 C 
HETATM   12  O3  UNL     1      11.665  21.576  16.062  1.00  0.00    -0.292 OA
BRANCH  11  13
HETATM   13  C16 UNL     1      12.645  19.442  15.429  1.00  0.00     0.084 C 
BRANCH  13  14
HETATM   14  C17 UNL     1      11.287  18.863  15.330  1.00  0.00     0.008 C 
BRANCH  14  15
HETATM   15  C18 UNL     1      11.155  17.393  15.404  1.00  0.00     0.000 C 
BRANCH  15  16
HETATM   16  C19 UNL     1       9.845  16.900  15.947  1.00  0.00     0.000 C 
BRANCH  16  17
HETATM   17  C20 UNL     1       9.122  18.080  16.565  1.00  0.00     0.000 C 
BRANCH  17  18
HETATM   18  C21 UNL     1       8.709  17.839  17.978  1.00  0.00     0.000 C 
BRANCH  18  19
HETATM   19  C22 UNL     1       8.685  19.106  18.801  1.00  0.00     0.009 C 
BRANCH  19  20
HETATM   20  C23 UNL     1       9.751  20.029  18.191  1.00  0.00     0.103 C 
BRANCH  20  21
HETATM   21  C24 UNL     1      10.407  20.837  19.220  1.00  0.00     0.235 C 
HETATM   22  O4  UNL     1       9.820  21.836  19.748  1.00  0.00    -0.273 OA
HETATM   23  N4  UNL     1      11.702  20.551  19.669  1.00  0.00    -0.157 N 
ATOM     24  H4  UNL     1      12.092  21.153  20.394  1.00  0.00     0.187 HD
BRANCH  23  25
HETATM   25  C25 UNL     1      12.438  19.592  19.241  1.00  0.00     0.716 A 
HETATM   26  N5  UNL     1      12.190  18.273  19.143  1.00  0.00    -0.115 N 
HETATM   27  N6  UNL     1      13.274  17.717  18.636  1.00  0.00    -0.213 N 
ATOM     28  H5  UNL     1      11.329  17.795  19.410  1.00  0.00     0.207 HD
HETATM   29  N7  UNL     1      14.198  18.628  18.409  1.00  0.00    -0.213 N 
ATOM     30  H6  UNL     1      13.382  16.722  18.446  1.00  0.00     0.210 HD
HETATM   31  N8  UNL     1      13.698  19.782  18.775  1.00  0.00    -0.115 N 
ATOM     32  H7  UNL     1      15.127  18.465  18.021  1.00  0.00     0.210 HD
ATOM     33  H8  UNL     1      14.179  20.680  18.719  1.00  0.00     0.207 HD
ENDBRANCH  23  25
ENDBRANCH  20  21
ENDBRANCH  19  20
ENDBRANCH  18  19
ENDBRANCH  17  18
ENDBRANCH  16  17
ENDBRANCH  15  16
ENDBRANCH  14  15
ENDBRANCH  13  14
ENDBRANCH  11  13
ENDBRANCH   8  11
BRANCH   1  34
HETATM   34  C3  UNL     1      17.090  23.704  17.228  1.00  0.00     0.165 C 
BRANCH  34  35
HETATM   35  N1  UNL     1      16.441  24.453  18.185  1.00  0.00    -0.369 N 
HETATM   36  C1  UNL     1      15.339  25.354  18.111  1.00  0.00     0.151 C 
HETATM   37  C2  UNL     1      16.966  24.321  19.615  1.00  0.00     0.151 C 
ENDBRANCH  34  35
BRANCH  34  38
HETATM   38  O1  UNL     1      18.039  22.943  17.747  1.00  0.00    -0.344 OA
ATOM     39  H1  UNL     1      17.719  22.080  17.983  1.00  0.00     0.219 HD
ENDBRANCH  34  38
ENDBRANCH   1  34
BRANCH   4  40
HETATM   40  N3  UNL     1      18.611  24.731  12.878  1.00  0.00    -0.313 N 
HETATM   41  C6  UNL     1      18.840  26.130  12.968  1.00  0.00     0.227 C 
HETATM   42  O2  UNL     1      19.781  26.505  13.725  1.00  0.00    -0.273 OA
ATOM     43  H3  UNL     1      19.174  24.172  12.235  1.00  0.00     0.170 HD
BRANCH  41  44
HETATM   44  C7  UNL     1      18.019  27.114  12.214  1.00  0.00     0.078 C 
HETATM   45  C8  UNL     1      18.928  28.182  11.669  1.00  0.00     0.014 C 
HETATM   46  C9  UNL     1      18.393  28.603  10.337  1.00  0.00     0.001 C 
HETATM   47  C10 UNL     1      17.251  27.647  10.027  1.00  0.00     0.001 C 
HETATM   48  C11 UNL     1      17.406  26.496  10.983  1.00  0.00     0.014 C 
ENDBRANCH  41  44
ENDBRANCH   4  40
TORSDOF 16
ENDMDL
MODEL 4
REMARK VINA RESULT: -8.816920405      2.906      4.749
REMARK  16 active torsions:
REMARK  status: ('A' for Active; 'I' for Inactive)
REMARK    1  A    between atoms: N1_2  and  C3_4 
REMARK    2  A    between atoms: C3_4  and  O1_5 
REMARK    3  A    between atoms: C3_4  and  C4_7 
REMARK    4  A    between atoms: C5_10  and  N3_11 
REMARK       I    between atoms: N3_11  and  C6_13 
REMARK    5  A    between atoms: C6_13  and  C7_15 
REMARK    6  A    between atoms: C14_23  and  C15_24 
REMARK    7  A    between atoms: C15_24  and  C16_26 
REMARK    8  A    between atoms: C16_26  and  C17_27 
REMARK    9  A    between atoms: C17_27  and  C18_28 
REMARK   10  A    between atoms: C18_28  and  C19_29 
REMARK   11  A    between atoms: C19_29  and  C20_30 
REMARK   12  A    between atoms: C20_30  and  C21_31 
REMARK   13  A    between atoms: C21_31  and  C22_32 
REMARK   14  A    between atoms: C22_32  and  C23_33 
REMARK   15  A    between atoms: C23_33  and  C24_34 
REMARK       I    between atoms: C24_34  and  N4_36 
REMARK   16  A    between atoms: N4_36  and  C25_38 
ROOT
HETATM    1  C4  UNL     1       9.597  18.317  18.008  1.00  0.00     0.096 A 
HETATM    2  N2  UNL     1       9.035  17.592  18.955  1.00  0.00    -0.338 N 
ATOM      3  H2  UNL     1       8.420  16.843  18.634  1.00  0.00     0.167 HD
HETATM    4  C5  UNL     1       9.168  17.713  20.303  1.00  0.00     0.109 A 
HETATM    5  C12 UNL     1       9.992  18.715  20.725  1.00  0.00     0.068 A 
HETATM    6  C13 UNL     1      10.623  19.523  19.774  1.00  0.00     0.022 A 
HETATM    7  S1  UNL     1      11.694  20.838  19.936  1.00  0.00    -0.086 SA
HETATM    8  C14 UNL     1      11.934  21.187  18.289  1.00  0.00     0.052 A 
HETATM    9  C26 UNL     1      11.155  20.247  17.654  1.00  0.00     0.038 A 
HETATM   10  C27 UNL     1      10.474  19.384  18.420  1.00  0.00     0.014 A 
ENDROOT
BRANCH   8  11
HETATM   11  C15 UNL     1      12.783  22.251  17.711  1.00  0.00     0.166 C 
HETATM   12  O3  UNL     1      12.702  22.458  16.500  1.00  0.00    -0.292 OA
BRANCH  11  13
HETATM   13  C16 UNL     1      13.679  23.000  18.660  1.00  0.00     0.084 C 
BRANCH  13  14
HETATM   14  C17 UNL     1      13.911  24.393  18.218  1.00  0.00     0.008 C 
BRANCH  14  15
HETATM   15  C18 UNL     1      14.894  25.201  18.968  1.00  0.00     0.000 C 
BRANCH  15  16
HETATM   16  C19 UNL     1      15.785  24.420  19.891  1.00  0.00     0.000 C 
BRANCH  16  17
HETATM   17  C20 UNL     1      17.222  24.770  19.561  1.00  0.00     0.000 C 
BRANCH  17  18
HETATM   18  C21 UNL     1      17.533  24.657  18.107  1.00  0.00     0.000 C 
BRANCH  18  19
HETATM   19  C22 UNL     1      17.668  23.222  17.651  1.00  0.00     0.009 C 
BRANCH  19  20
HETATM   20  C23 UNL     1      16.859  23.113  16.350  1.00  0.00     0.103 C 
BRANCH  20  21
HETATM   21  C24 UNL     1      17.598  22.372  15.326  1.00  0.00     0.235 C 
HETATM   22  O4  UNL     1      18.732  22.773  14.910  1.00  0.00    -0.273 OA
HETATM   23  N4  UNL     1      17.093  21.195  14.758  1.00  0.00    -0.157 N 
ATOM     24  H4  UNL     1      17.667  20.729  14.056  1.00  0.00     0.187 HD
BRANCH  23  25
HETATM   25  C25 UNL     1      15.967  20.658  15.051  1.00  0.00     0.716 A 
HETATM   26  N5  UNL     1      14.719  20.960  14.647  1.00  0.00    -0.115 N 
HETATM   27  N6  UNL     1      13.908  20.102  15.238  1.00  0.00    -0.213 N 
ATOM     28  H5  UNL     1      14.452  21.708  14.007  1.00  0.00     0.207 HD
HETATM   29  N7  UNL     1      14.589  19.271  15.998  1.00  0.00    -0.213 N 
ATOM     30  H6  UNL     1      12.896  20.086  15.121  1.00  0.00     0.210 HD
HETATM   31  N8  UNL     1      15.853  19.600  15.893  1.00  0.00    -0.115 N 
ATOM     32  H7  UNL     1      14.205  18.514  16.563  1.00  0.00     0.210 HD
ATOM     33  H8  UNL     1      16.627  19.136  16.368  1.00  0.00     0.207 HD
ENDBRANCH  23  25
ENDBRANCH  20  21
ENDBRANCH  19  20
ENDBRANCH  18  19
ENDBRANCH  17  18
ENDBRANCH  16  17
ENDBRANCH  15  16
ENDBRANCH  14  15
ENDBRANCH  13  14
ENDBRANCH  11  13
ENDBRANCH   8  11
BRANCH   1  34
HETATM   34  C3  UNL     1       9.363  18.068  16.608  1.00  0.00     0.165 C 
BRANCH  34  35
HETATM   35  N1  UNL     1       9.946  17.177  15.733  1.00  0.00    -0.369 N 
HETATM   36  C1  UNL     1       9.413  16.101  14.966  1.00  0.00     0.151 C 
HETATM   37  C2  UNL     1      11.449  17.341  15.507  1.00  0.00     0.151 C 
ENDBRANCH  34  35
BRANCH  34  38
HETATM   38  O1  UNL     1       8.431  18.803  16.027  1.00  0.00    -0.344 OA
ATOM     39  H1  UNL     1       7.910  18.303  15.409  1.00  0.00     0.219 HD
ENDBRANCH  34  38
ENDBRANCH   1  34
BRANCH   4  40
HETATM   40  N3  UNL     1       8.555  16.929  21.119  1.00  0.00    -0.313 N 
HETATM   41  C6  UNL     1       7.148  16.744  21.044  1.00  0.00     0.227 C 
HETATM   42  O2  UNL     1       6.741  15.729  20.408  1.00  0.00    -0.273 OA
ATOM     43  H3  UNL     1       9.088  16.432  21.833  1.00  0.00     0.170 HD
BRANCH  41  44
HETATM   44  C7  UNL     1       6.193  17.690  21.679  1.00  0.00     0.078 C 
HETATM   45  C8  UNL     1       5.007  17.859  20.769  1.00  0.00     0.014 C 
HETATM   46  C9  UNL     1       3.791  18.021  21.627  1.00  0.00     0.001 C 
HETATM   47  C10 UNL     1       4.255  17.774  23.055  1.00  0.00     0.001 C 
HETATM   48  C11 UNL     1       5.603  17.117  22.943  1.00  0.00     0.014 C 
ENDBRANCH  41  44
ENDBRANCH   4  40
TORSDOF 16
ENDMDL
MODEL 5
REMARK VINA RESULT: -8.807396181      2.171      3.028
REMARK  16 active torsions:
REMARK  status: ('A' for Active; 'I' for Inactive)
REMARK    1  A    between atoms: N1_2  and  C3_4 
REMARK    2  A    between atoms: C3_4  and  O1_5 
REMARK    3  A    between atoms: C3_4  and  C4_7 
REMARK    4  A    between atoms: C5_10  and  N3_11 
REMARK       I    between atoms: N3_11  and  C6_13 
REMARK    5  A    between atoms: C6_13  and  C7_15 
REMARK    6  A    between atoms: C14_23  and  C15_24 
REMARK    7  A    between atoms: C15_24  and  C16_26 
REMARK    8  A    between atoms: C16_26  and  C17_27 
REMARK    9  A    between atoms: C17_27  and  C18_28 
REMARK   10  A    between atoms: C18_28  and  C19_29 
REMARK   11  A    between atoms: C19_29  and  C20_30 
REMARK   12  A    between atoms: C20_30  and  C21_31 
REMARK   13  A    between atoms: C21_31  and  C22_32 
REMARK   14  A    between atoms: C22_32  and  C23_33 
REMARK   15  A    between atoms: C23_33  and  C24_34 
REMARK       I    between atoms: C24_34  and  N4_36 
REMARK   16  A    between atoms: N4_36  and  C25_38 
ROOT
HETATM    1  C4  UNL     1       8.548  17.180  17.688  1.00  0.00     0.096 A 
HETATM    2  N2  UNL     1       8.431  16.081  16.968  1.00  0.00    -0.338 N 
ATOM      3  H2  UNL     1       7.804  15.369  17.343  1.00  0.00     0.167 HD
HETATM    4  C5  UNL     1       9.038  15.775  15.790  1.00  0.00     0.109 A 
HETATM    5  C12 UNL     1       9.874  16.733  15.293  1.00  0.00     0.068 A 
HETATM    6  C13 UNL     1      10.045  17.924  16.005  1.00  0.00     0.022 A 
HETATM    7  S1  UNL     1      10.987  19.307  15.691  1.00  0.00    -0.086 SA
HETATM    8  C14 UNL     1      10.579  20.223  17.064  1.00  0.00     0.052 A 
HETATM    9  C26 UNL     1       9.701  19.403  17.737  1.00  0.00     0.038 A 
HETATM   10  C27 UNL     1       9.422  18.211  17.191  1.00  0.00     0.014 A 
ENDROOT
BRANCH   8  11
HETATM   11  C15 UNL     1      11.066  21.573  17.421  1.00  0.00     0.166 C 
HETATM   12  O3  UNL     1      10.908  22.476  16.600  1.00  0.00    -0.292 OA
BRANCH  11  13
HETATM   13  C16 UNL     1      11.716  21.730  18.769  1.00  0.00     0.084 C 
BRANCH  13  14
HETATM   14  C17 UNL     1      12.925  20.886  18.901  1.00  0.00     0.008 C 
BRANCH  14  15
HETATM   15  C18 UNL     1      14.239  21.561  18.917  1.00  0.00     0.000 C 
BRANCH  15  16
HETATM   16  C19 UNL     1      14.182  23.061  18.876  1.00  0.00     0.000 C 
BRANCH  16  17
HETATM   17  C20 UNL     1      15.349  23.594  19.682  1.00  0.00     0.000 C 
BRANCH  17  18
HETATM   18  C21 UNL     1      15.282  25.068  19.904  1.00  0.00     0.000 C 
BRANCH  18  19
HETATM   19  C22 UNL     1      16.635  25.734  19.796  1.00  0.00     0.009 C 
BRANCH  19  20
HETATM   20  C23 UNL     1      16.796  26.131  18.321  1.00  0.00     0.103 C 
BRANCH  20  21
HETATM   21  C24 UNL     1      18.175  25.949  17.869  1.00  0.00     0.235 C 
HETATM   22  O4  UNL     1      19.097  26.754  18.220  1.00  0.00    -0.273 OA
HETATM   23  N4  UNL     1      18.544  24.887  17.033  1.00  0.00    -0.157 N 
ATOM     24  H4  UNL     1      19.526  24.819  16.765  1.00  0.00     0.187 HD
BRANCH  23  25
HETATM   25  C25 UNL     1      17.746  23.993  16.578  1.00  0.00     0.716 A 
HETATM   26  N5  UNL     1      17.498  22.741  17.003  1.00  0.00    -0.115 N 
HETATM   27  N6  UNL     1      16.588  22.236  16.191  1.00  0.00    -0.213 N 
ATOM     28  H5  UNL     1      17.930  22.272  17.799  1.00  0.00     0.207 HD
HETATM   29  N7  UNL     1      16.250  23.114  15.270  1.00  0.00    -0.213 N 
ATOM     30  H6  UNL     1      16.201  21.296  16.266  1.00  0.00     0.210 HD
HETATM   31  N8  UNL     1      16.952  24.197  15.496  1.00  0.00    -0.115 N 
ATOM     32  H7  UNL     1      15.570  22.978  14.522  1.00  0.00     0.210 HD
ATOM     33  H8  UNL     1      16.910  25.055  14.947  1.00  0.00     0.207 HD
ENDBRANCH  23  25
ENDBRANCH  20  21
ENDBRANCH  19  20
ENDBRANCH  18  19
ENDBRANCH  17  18
ENDBRANCH  16  17
ENDBRANCH  15  16
ENDBRANCH  14  15
ENDBRANCH  13  14
ENDBRANCH  11  13
ENDBRANCH   8  11
BRANCH   1  34
HETATM   34  C3  UNL     1       7.832  17.366  18.926  1.00  0.00     0.165 C 
BRANCH  34  35
HETATM   35  N1  UNL     1       8.109  16.944  20.208  1.00  0.00    -0.369 N 
HETATM   36  C1  UNL     1       7.828  15.729  20.897  1.00  0.00     0.151 C 
HETATM   37  C2  UNL     1       8.864  17.934  21.095  1.00  0.00     0.151 C 
ENDBRANCH  34  35
BRANCH  34  38
HETATM   38  O1  UNL     1       6.708  18.059  18.858  1.00  0.00    -0.344 OA
ATOM     39  H1  UNL     1       6.860  18.969  18.632  1.00  0.00     0.219 HD
ENDBRANCH  34  38
ENDBRANCH   1  34
BRANCH   4  40
HETATM   40  N3  UNL     1       8.832  14.656  15.190  1.00  0.00    -0.313 N 
HETATM   41  C6  UNL     1       7.607  14.395  14.519  1.00  0.00     0.227 C 
HETATM   42  O2  UNL     1       7.588  14.597  13.271  1.00  0.00    -0.273 OA
ATOM     43  H3  UNL     1       9.561  13.942  15.197  1.00  0.00     0.170 HD
BRANCH  41  44
HETATM   44  C7  UNL     1       6.401  13.908  15.239  1.00  0.00     0.078 C 
HETATM   45  C8  UNL     1       5.503  15.081  15.522  1.00  0.00     0.014 C 
HETATM   46  C9  UNL     1       4.086  14.611  15.413  1.00  0.00     0.001 C 
HETATM   47  C10 UNL     1       4.163  13.182  14.894  1.00  0.00     0.001 C 
HETATM   48  C11 UNL     1       5.561  13.009  14.368  1.00  0.00     0.014 C 
ENDBRANCH  41  44
ENDBRANCH   4  40
TORSDOF 16
ENDMDL
