MODEL 1
REMARK VINA RESULT: -7.066269008      0.000      0.000
REMARK  1 active torsions:
REMARK  status: ('A' for Active; 'I' for Inactive)
REMARK    1  A    between atoms: C8_11  and  C9_12 
ROOT
HETATM    1  C1  UNL     1      -0.510  18.291  18.437  1.00  0.00     0.000 C 
HETATM    2  C2  UNL     1       0.082  19.531  18.957  1.00  0.00     0.000 C 
HETATM    3  C3  UNL     1       1.526  19.792  18.723  1.00  0.00     0.000 C 
HETATM    4  C4  UNL     1       2.361  18.725  18.155  1.00  0.00     0.001 C 
HETATM    5  C5  UNL     1       3.504  18.249  18.977  1.00  0.00     0.013 C 
HETATM    6  C6  UNL     1       3.307  18.017  20.421  1.00  0.00     0.065 C 
HETATM    7  C7  UNL     1       2.818  16.703  20.807  1.00  0.00     0.017 C 
HETATM    8  N1  UNL     1       3.623  16.179  21.642  1.00  0.00    -0.274 N 
ATOM      9  H1  UNL     1       3.477  15.255  22.047  1.00  0.00     0.193 HD
HETATM   10  O1  UNL     1       4.689  16.953  21.945  1.00  0.00    -0.274 OA
HETATM   11  C8  UNL     1       4.676  18.065  21.076  1.00  0.00     0.166 C 
HETATM   12  C16 UNL     1       1.545  16.122  20.260  1.00  0.00     0.055 C 
HETATM   13  C17 UNL     1       0.366  17.077  20.504  1.00  0.00     0.006 C 
HETATM   14  C18 UNL     1      -0.544  17.101  19.345  1.00  0.00     0.000 C 
ENDROOT
BRANCH  11  15
HETATM   15  C9  UNL     1       4.877  19.287  21.919  1.00  0.00     0.022 C 
HETATM   16  C10 UNL     1       6.314  19.265  22.413  1.00  0.00     0.012 C 
HETATM   17  C11 UNL     1       6.963  20.522  21.880  1.00  0.00    -0.014 C 
HETATM   18  C12 UNL     1       6.413  21.684  22.637  1.00  0.00     0.005 C 
HETATM   19  C15 UNL     1       6.194  20.670  20.556  1.00  0.00     0.010 C 
HETATM   20  C13 UNL     1       4.942  21.688  22.239  1.00  0.00     0.005 C 
HETATM   21  C14 UNL     1       4.800  20.578  21.195  1.00  0.00    -0.007 C 
ENDBRANCH  11  15
TORSDOF 1
ENDMDL
MODEL 2
REMARK VINA RESULT: -6.380259397      2.150      6.087
REMARK  1 active torsions:
REMARK  status: ('A' for Active; 'I' for Inactive)
REMARK    1  A    between atoms: C8_11  and  C9_12 
ROOT
HETATM    1  C1  UNL     1       5.965  20.750  21.927  1.00  0.00     0.000 C 
HETATM    2  C2  UNL     1       5.359  19.857  22.923  1.00  0.00     0.000 C 
HETATM    3  C3  UNL     1       5.312  18.397  22.647  1.00  0.00     0.000 C 
HETATM    4  C4  UNL     1       5.691  17.911  21.313  1.00  0.00     0.001 C 
HETATM    5  C5  UNL     1       4.656  17.177  20.540  1.00  0.00     0.013 C 
HETATM    6  C6  UNL     1       3.274  17.694  20.511  1.00  0.00     0.065 C 
HETATM    7  C7  UNL     1       2.971  18.679  19.486  1.00  0.00     0.017 C 
HETATM    8  N1  UNL     1       1.988  18.274  18.786  1.00  0.00    -0.274 N 
ATOM      9  H1  UNL     1       1.605  18.810  18.006  1.00  0.00     0.193 HD
HETATM   10  O1  UNL     1       1.495  17.074  19.164  1.00  0.00    -0.274 OA
HETATM   11  C8  UNL     1       2.367  16.537  20.136  1.00  0.00     0.166 C 
HETATM   12  C16 UNL     1       3.746  19.958  19.339  1.00  0.00     0.055 C 
HETATM   13  C17 UNL     1       3.750  20.742  20.660  1.00  0.00     0.006 C 
HETATM   14  C18 UNL     1       5.063  21.365  20.902  1.00  0.00     0.000 C 
ENDROOT
BRANCH  11  15
HETATM   15  C9  UNL     1       1.519  16.066  21.278  1.00  0.00     0.022 C 
HETATM   16  C10 UNL     1       0.316  15.352  20.684  1.00  0.00     0.012 C 
HETATM   17  C11 UNL     1       0.368  13.933  21.202  1.00  0.00    -0.014 C 
HETATM   18  C12 UNL     1       0.007  13.956  22.650  1.00  0.00     0.005 C 
HETATM   19  C15 UNL     1       1.891  13.749  21.304  1.00  0.00     0.010 C 
HETATM   20  C13 UNL     1       1.149  14.747  23.277  1.00  0.00     0.005 C 
HETATM   21  C14 UNL     1       2.130  15.021  22.133  1.00  0.00    -0.007 C 
ENDBRANCH  11  15
TORSDOF 1
ENDMDL
MODEL 3
REMARK VINA RESULT: -6.015037688      2.190      6.297
REMARK  1 active torsions:
REMARK  status: ('A' for Active; 'I' for Inactive)
REMARK    1  A    between atoms: C8_11  and  C9_12 
ROOT
HETATM    1  C1  UNL     1       6.520  18.478  22.404  1.00  0.00     0.000 C 
HETATM    2  C2  UNL     1       5.400  17.530  22.336  1.00  0.00     0.000 C 
HETATM    3  C3  UNL     1       4.840  17.172  21.007  1.00  0.00     0.000 C 
HETATM    4  C4  UNL     1       5.286  17.915  19.821  1.00  0.00     0.001 C 
HETATM    5  C5  UNL     1       4.249  18.654  19.055  1.00  0.00     0.013 C 
HETATM    6  C6  UNL     1       3.233  19.437  19.785  1.00  0.00     0.065 C 
HETATM    7  C7  UNL     1       3.588  20.805  20.123  1.00  0.00     0.017 C 
HETATM    8  N1  UNL     1       2.712  21.599  19.653  1.00  0.00    -0.274 N 
ATOM      9  H1  UNL     1       2.761  22.611  19.771  1.00  0.00     0.193 HD
HETATM   10  O1  UNL     1       1.711  20.987  18.983  1.00  0.00    -0.274 OA
HETATM   11  C8  UNL     1       2.051  19.623  18.851  1.00  0.00     0.166 C 
HETATM   12  C16 UNL     1       4.819  21.149  20.913  1.00  0.00     0.055 C 
HETATM   13  C17 UNL     1       4.835  20.388  22.248  1.00  0.00     0.006 C 
HETATM   14  C18 UNL     1       6.195  19.929  22.579  1.00  0.00     0.000 C 
ENDROOT
BRANCH  11  15
HETATM   15  C9  UNL     1       0.851  18.826  19.262  1.00  0.00     0.022 C 
HETATM   16  C10 UNL     1      -0.337  19.362  18.480  1.00  0.00     0.012 C 
HETATM   17  C11 UNL     1      -0.862  18.204  17.662  1.00  0.00    -0.014 C 
HETATM   18  C12 UNL     1      -1.532  17.247  18.591  1.00  0.00     0.005 C 
HETATM   19  C15 UNL     1       0.455  17.453  17.400  1.00  0.00     0.010 C 
HETATM   20  C13 UNL     1      -0.382  16.750  19.460  1.00  0.00     0.005 C 
HETATM   21  C14 UNL     1       0.877  17.395  18.876  1.00  0.00    -0.007 C 
ENDBRANCH  11  15
TORSDOF 1
ENDMDL
MODEL 4
REMARK VINA RESULT: -5.994710310      2.231      3.789
REMARK  1 active torsions:
REMARK  status: ('A' for Active; 'I' for Inactive)
REMARK    1  A    between atoms: C8_11  and  C9_12 
ROOT
HETATM    1  C1  UNL     1      -1.427  16.046  17.085  1.00  0.00     0.000 C 
HETATM    2  C2  UNL     1      -0.316  15.328  17.725  1.00  0.00     0.000 C 
HETATM    3  C3  UNL     1       0.056  15.676  19.120  1.00  0.00     0.000 C 
HETATM    4  C4  UNL     1      -0.559  16.851  19.752  1.00  0.00     0.001 C 
HETATM    5  C5  UNL     1       0.351  17.939  20.193  1.00  0.00     0.013 C 
HETATM    6  C6  UNL     1       1.450  18.366  19.304  1.00  0.00     0.065 C 
HETATM    7  C7  UNL     1       1.129  19.385  18.319  1.00  0.00     0.017 C 
HETATM    8  N1  UNL     1       1.922  20.372  18.457  1.00  0.00    -0.274 N 
ATOM      9  H1  UNL     1       1.878  21.204  17.868  1.00  0.00     0.193 HD
HETATM   10  O1  UNL     1       2.827  20.222  19.449  1.00  0.00    -0.274 OA
HETATM   11  C8  UNL     1       2.487  19.057  20.170  1.00  0.00     0.166 C 
HETATM   12  C16 UNL     1       0.017  19.225  17.322  1.00  0.00     0.055 C 
HETATM   13  C17 UNL     1       0.197  17.930  16.515  1.00  0.00     0.006 C 
HETATM   14  C18 UNL     1      -1.098  17.266  16.283  1.00  0.00     0.000 C 
ENDROOT
BRANCH  11  15
HETATM   15  C9  UNL     1       3.743  18.255  20.330  1.00  0.00     0.022 C 
HETATM   16  C10 UNL     1       4.845  19.217  20.741  1.00  0.00     0.012 C 
HETATM   17  C11 UNL     1       5.339  18.743  22.088  1.00  0.00    -0.014 C 
HETATM   18  C12 UNL     1       6.114  17.484  21.880  1.00  0.00     0.005 C 
HETATM   19  C15 UNL     1       4.031  18.167  22.657  1.00  0.00     0.010 C 
HETATM   20  C13 UNL     1       5.056  16.509  21.378  1.00  0.00     0.005 C 
HETATM   21  C14 UNL     1       3.732  17.275  21.442  1.00  0.00    -0.007 C 
ENDBRANCH  11  15
TORSDOF 1
ENDMDL
MODEL 5
REMARK VINA RESULT: -5.568155587      0.961      1.090
REMARK  1 active torsions:
REMARK  status: ('A' for Active; 'I' for Inactive)
REMARK    1  A    between atoms: C8_11  and  C9_12 
ROOT
HETATM    1  C1  UNL     1      -1.441  17.968  17.842  1.00  0.00     0.000 C 
HETATM    2  C2  UNL     1      -0.865  19.272  18.201  1.00  0.00     0.000 C 
HETATM    3  C3  UNL     1       0.571  19.527  17.916  1.00  0.00     0.000 C 
HETATM    4  C4  UNL     1       1.418  18.413  17.468  1.00  0.00     0.001 C 
HETATM    5  C5  UNL     1       2.580  18.058  18.323  1.00  0.00     0.013 C 
HETATM    6  C6  UNL     1       2.406  17.997  19.787  1.00  0.00     0.065 C 
HETATM    7  C7  UNL     1       1.946  16.732  20.334  1.00  0.00     0.017 C 
HETATM    8  N1  UNL     1       2.771  16.325  21.214  1.00  0.00    -0.274 N 
ATOM      9  H1  UNL     1       2.647  15.453  21.729  1.00  0.00     0.193 HD
HETATM   10  O1  UNL     1       3.827  17.146  21.406  1.00  0.00    -0.274 OA
HETATM   11  C8  UNL     1       3.782  18.147  20.411  1.00  0.00     0.166 C 
HETATM   12  C16 UNL     1       0.677  16.068  19.880  1.00  0.00     0.055 C 
HETATM   13  C17 UNL     1      -0.516  17.026  20.026  1.00  0.00     0.006 C 
HETATM   14  C18 UNL     1      -1.441  16.896  18.887  1.00  0.00     0.000 C 
ENDROOT
BRANCH  11  15
HETATM   15  C9  UNL     1       3.971  19.464  21.099  1.00  0.00     0.022 C 
HETATM   16  C10 UNL     1       5.181  19.329  22.009  1.00  0.00     0.012 C 
HETATM   17  C11 UNL     1       6.183  20.357  21.534  1.00  0.00    -0.014 C 
HETATM   18  C12 UNL     1       5.678  21.707  21.919  1.00  0.00     0.005 C 
HETATM   19  C15 UNL     1       5.858  20.362  20.031  1.00  0.00     0.010 C 
HETATM   20  C13 UNL     1       4.406  21.847  21.091  1.00  0.00     0.005 C 
HETATM   21  C14 UNL     1       4.350  20.593  20.216  1.00  0.00    -0.007 C 
ENDBRANCH  11  15
TORSDOF 1
ENDMDL
