MODEL 1
REMARK VINA RESULT: -2.368516237      0.000      0.000
REMARK  1 active torsions:
REMARK  status: ('A' for Active; 'I' for Inactive)
REMARK    1  A    between atoms: C2_2  and  C3_3 
ROOT
HETATM    1  C3  UNL     1       4.899  20.961  20.257  1.00  0.00     0.180 C 
HETATM    2  C4  UNL     1       4.704  22.413  19.794  1.00  0.00     0.084 C 
HETATM    3  O1  UNL     1       4.510  20.978  21.541  1.00  0.00    -0.347 OA
HETATM    4  C5  UNL     1       5.300  20.724  22.574  1.00  0.00     0.121 C 
HETATM    5  C6  UNL     1       5.059  21.822  23.628  1.00  0.00     0.040 C 
HETATM    6  C7  UNL     1       4.792  19.438  23.248  1.00  0.00     0.036 C 
HETATM    7  C8  UNL     1       5.341  18.210  22.624  1.00  0.00     0.036 C 
HETATM    8  C9  UNL     1       4.485  17.566  21.596  1.00  0.00    -0.082 C 
HETATM    9  C10 UNL     1       4.678  16.270  21.372  1.00  0.00     0.015 C 
HETATM   10  C11 UNL     1       3.441  18.297  20.826  1.00  0.00     0.048 C 
HETATM   11  C12 UNL     1       2.278  17.353  20.567  1.00  0.00     0.012 C 
HETATM   12  C13 UNL     1       1.129  18.256  20.146  1.00  0.00     0.001 C 
HETATM   13  C14 UNL     1       1.522  18.930  18.863  1.00  0.00     0.003 C 
HETATM   14  C15 UNL     1       2.900  18.553  18.457  1.00  0.00     0.038 C 
HETATM   15  C16 UNL     1       3.939  18.909  19.548  1.00  0.00     0.068 C 
HETATM   16  C17 UNL     1       5.167  18.143  19.061  1.00  0.00     0.047 C 
HETATM   17  O2  UNL     1       4.039  20.236  19.497  1.00  0.00    -0.341 OA
ENDROOT
BRANCH   1  18
HETATM   18  C2  UNL     1       6.331  20.670  20.003  1.00  0.00     0.030 C 
HETATM   19  C1  UNL     1       7.247  21.547  20.388  1.00  0.00     0.012 C 
ENDBRANCH   1  18
TORSDOF 1
ENDMDL
MODEL 2
REMARK VINA RESULT: -0.158195330      1.601      4.358
REMARK  1 active torsions:
REMARK  status: ('A' for Active; 'I' for Inactive)
REMARK    1  A    between atoms: C2_2  and  C3_3 
ROOT
HETATM    1  C3  UNL     1       1.743  18.709  19.581  1.00  0.00     0.180 C 
HETATM    2  C4  UNL     1       0.349  18.080  19.712  1.00  0.00     0.084 C 
HETATM    3  O1  UNL     1       1.605  19.918  20.147  1.00  0.00    -0.347 OA
HETATM    4  C5  UNL     1       1.741  21.072  19.510  1.00  0.00     0.121 C 
HETATM    5  C6  UNL     1       0.547  21.965  19.900  1.00  0.00     0.040 C 
HETATM    6  C7  UNL     1       2.962  21.795  20.106  1.00  0.00     0.036 C 
HETATM    7  C8  UNL     1       4.237  21.381  19.471  1.00  0.00     0.036 C 
HETATM    8  C9  UNL     1       4.994  20.314  20.172  1.00  0.00    -0.082 C 
HETATM    9  C10 UNL     1       6.303  20.251  19.946  1.00  0.00     0.015 C 
HETATM   10  C11 UNL     1       4.361  19.335  21.098  1.00  0.00     0.048 C 
HETATM   11  C12 UNL     1       5.346  19.013  22.211  1.00  0.00     0.012 C 
HETATM   12  C13 UNL     1       4.508  18.345  23.291  1.00  0.00     0.001 C 
HETATM   13  C14 UNL     1       3.959  17.068  22.722  1.00  0.00     0.003 C 
HETATM   14  C15 UNL     1       4.352  16.900  21.300  1.00  0.00     0.038 C 
HETATM   15  C16 UNL     1       3.872  18.085  20.427  1.00  0.00     0.068 C 
HETATM   16  C17 UNL     1       4.662  17.854  19.140  1.00  0.00     0.047 C 
HETATM   17  O2  UNL     1       2.555  17.914  20.323  1.00  0.00    -0.341 OA
ENDROOT
BRANCH   1  18
HETATM   18  C2  UNL     1       2.035  18.690  18.126  1.00  0.00     0.030 C 
HETATM   19  C1  UNL     1       1.064  18.390  17.276  1.00  0.00     0.012 C 
ENDBRANCH   1  18
TORSDOF 1
ENDMDL
MODEL 3
REMARK VINA RESULT: 0.005441477      3.560      5.915
REMARK  1 active torsions:
REMARK  status: ('A' for Active; 'I' for Inactive)
REMARK    1  A    between atoms: C2_2  and  C3_3 
ROOT
HETATM    1  C3  UNL     1       0.120  16.336  19.922  1.00  0.00     0.180 C 
HETATM    2  C4  UNL     1      -1.177  17.048  19.510  1.00  0.00     0.084 C 
HETATM    3  O1  UNL     1       0.873  17.316  20.445  1.00  0.00    -0.347 OA
HETATM    4  C5  UNL     1       2.029  17.730  19.946  1.00  0.00     0.121 C 
HETATM    5  C6  UNL     1       1.997  19.270  19.908  1.00  0.00     0.040 C 
HETATM    6  C7  UNL     1       3.126  17.402  20.974  1.00  0.00     0.036 C 
HETATM    7  C8  UNL     1       3.647  16.020  20.833  1.00  0.00     0.036 C 
HETATM    8  C9  UNL     1       3.032  15.001  21.720  1.00  0.00    -0.082 C 
HETATM    9  C10 UNL     1       3.750  13.915  21.985  1.00  0.00     0.015 C 
HETATM   10  C11 UNL     1       1.673  15.146  22.313  1.00  0.00     0.048 C 
HETATM   11  C12 UNL     1       1.677  14.512  23.695  1.00  0.00     0.012 C 
HETATM   12  C13 UNL     1       0.418  15.038  24.368  1.00  0.00     0.001 C 
HETATM   13  C14 UNL     1      -0.763  14.535  23.589  1.00  0.00     0.003 C 
HETATM   14  C15 UNL     1      -0.332  13.753  22.403  1.00  0.00     0.038 C 
HETATM   15  C16 UNL     1       0.571  14.586  21.461  1.00  0.00     0.068 C 
HETATM   16  C17 UNL     1       1.135  13.503  20.544  1.00  0.00     0.047 C 
HETATM   17  O2  UNL     1      -0.259  15.450  20.878  1.00  0.00    -0.341 OA
ENDROOT
BRANCH   1  18
HETATM   18  C2  UNL     1       0.623  15.710  18.675  1.00  0.00     0.030 C 
HETATM   19  C1  UNL     1      -0.228  15.452  17.692  1.00  0.00     0.012 C 
ENDBRANCH   1  18
TORSDOF 1
ENDMDL
MODEL 4
REMARK VINA RESULT: 0.448716768      3.625      6.066
REMARK  1 active torsions:
REMARK  status: ('A' for Active; 'I' for Inactive)
REMARK    1  A    between atoms: C2_2  and  C3_3 
ROOT
HETATM    1  C3  UNL     1       0.805  15.056  20.526  1.00  0.00     0.180 C 
HETATM    2  C4  UNL     1       0.800  13.521  20.579  1.00  0.00     0.084 C 
HETATM    3  O1  UNL     1       2.096  15.368  20.333  1.00  0.00    -0.347 OA
HETATM    4  C5  UNL     1       2.845  16.047  21.189  1.00  0.00     0.121 C 
HETATM    5  C6  UNL     1       4.183  15.297  21.336  1.00  0.00     0.040 C 
HETATM    6  C7  UNL     1       3.232  17.377  20.520  1.00  0.00     0.036 C 
HETATM    7  C8  UNL     1       2.202  18.430  20.704  1.00  0.00     0.036 C 
HETATM    8  C9  UNL     1       1.227  18.584  19.596  1.00  0.00    -0.082 C 
HETATM    9  C10 UNL     1       0.627  19.764  19.478  1.00  0.00     0.015 C 
HETATM   10  C11 UNL     1       0.905  17.496  18.632  1.00  0.00     0.048 C 
HETATM   11  C12 UNL     1       0.632  18.117  17.272  1.00  0.00     0.012 C 
HETATM   12  C13 UNL     1       0.705  16.955  16.292  1.00  0.00     0.001 C 
HETATM   13  C14 UNL     1      -0.398  15.996  16.634  1.00  0.00     0.003 C 
HETATM   14  C15 UNL     1      -1.153  16.449  17.831  1.00  0.00     0.038 C 
HETATM   15  C16 UNL     1      -0.231  16.613  19.064  1.00  0.00     0.068 C 
HETATM   16  C17 UNL     1      -1.139  17.382  20.022  1.00  0.00     0.047 C 
HETATM   17  O2  UNL     1       0.060  15.367  19.434  1.00  0.00    -0.341 OA
ENDROOT
BRANCH   1  18
HETATM   18  C2  UNL     1       0.206  15.483  21.814  1.00  0.00     0.030 C 
HETATM   19  C1  UNL     1      -0.026  14.576  22.751  1.00  0.00     0.012 C 
ENDBRANCH   1  18
TORSDOF 1
ENDMDL
MODEL 5
REMARK VINA RESULT: 0.725707180      1.057      4.545
REMARK  1 active torsions:
REMARK  status: ('A' for Active; 'I' for Inactive)
REMARK    1  A    between atoms: C2_2  and  C3_3 
ROOT
HETATM    1  C3  UNL     1       4.166  19.043  19.767  1.00  0.00     0.180 C 
HETATM    2  C4  UNL     1       4.140  18.332  18.407  1.00  0.00     0.084 C 
HETATM    3  O1  UNL     1       4.829  18.191  20.564  1.00  0.00    -0.347 OA
HETATM    4  C5  UNL     1       4.310  17.588  21.624  1.00  0.00     0.121 C 
HETATM    5  C6  UNL     1       4.694  16.097  21.548  1.00  0.00     0.040 C 
HETATM    6  C7  UNL     1       5.054  18.105  22.867  1.00  0.00     0.036 C 
HETATM    7  C8  UNL     1       4.476  19.365  23.396  1.00  0.00     0.036 C 
HETATM    8  C9  UNL     1       5.129  20.618  22.943  1.00  0.00    -0.082 C 
HETATM    9  C10 UNL     1       4.991  21.688  23.719  1.00  0.00     0.015 C 
HETATM   10  C11 UNL     1       5.916  20.721  21.683  1.00  0.00     0.048 C 
HETATM   11  C12 UNL     1       7.061  21.696  21.904  1.00  0.00     0.012 C 
HETATM   12  C13 UNL     1       8.014  21.447  20.745  1.00  0.00     0.001 C 
HETATM   13  C14 UNL     1       7.294  21.800  19.475  1.00  0.00     0.003 C 
HETATM   14  C15 UNL     1       5.894  22.213  19.747  1.00  0.00     0.038 C 
HETATM   15  C16 UNL     1       5.100  21.105  20.482  1.00  0.00     0.068 C 
HETATM   16  C17 UNL     1       3.857  21.870  20.933  1.00  0.00     0.047 C 
HETATM   17  O2  UNL     1       4.889  20.172  19.555  1.00  0.00    -0.341 OA
ENDROOT
BRANCH   1  18
HETATM   18  C2  UNL     1       2.740  19.285  20.098  1.00  0.00     0.030 C 
HETATM   19  C1  UNL     1       1.801  18.828  19.282  1.00  0.00     0.012 C 
ENDBRANCH   1  18
TORSDOF 1
ENDMDL
