MODEL 1
REMARK VINA RESULT: -8.676955675      0.000      0.000
REMARK  12 active torsions:
REMARK  status: ('A' for Active; 'I' for Inactive)
REMARK    1  A    between atoms: O1_2  and  C2_3 
REMARK    2  A    between atoms: C4_5  and  C5_6 
REMARK    3  A    between atoms: C5_6  and  C6_7 
REMARK       I    between atoms: C6_7  and  N1_9 
REMARK    4  A    between atoms: N1_9  and  C7_11 
REMARK    5  A    between atoms: C7_11  and  C8_12 
REMARK    6  A    between atoms: C8_12  and  C9_13 
REMARK    7  A    between atoms: C9_13  and  N2_14 
REMARK    8  A    between atoms: C15_20  and  C16_21 
REMARK    9  A    between atoms: C18_23  and  N3_24 
REMARK   10  A    between atoms: N6_36  and  C24_37 
REMARK   11  A    between atoms: C24_37  and  C25_38 
REMARK   12  A    between atoms: C25_38  and  N7_39 
ROOT
HETATM    1  C16 UNL     1       7.299   9.735  41.087  1.00  0.00     0.077 A 
HETATM    2  C17 UNL     1       6.513   8.999  40.203  1.00  0.00     0.065 A 
HETATM    3  C18 UNL     1       5.826   7.802  40.219  1.00  0.00     0.114 A 
HETATM    4  N4  UNL     1       5.174   7.388  39.109  1.00  0.00    -0.345 N 
ATOM      5  H4  UNL     1       4.666   6.504  39.135  1.00  0.00     0.167 HD
HETATM    6  C19 UNL     1       5.174   8.106  37.975  1.00  0.00     0.015 A 
HETATM    7  C20 UNL     1       4.439   7.626  36.778  1.00  0.00     0.069 C 
HETATM    8  C21 UNL     1       5.848   9.299  37.908  1.00  0.00    -0.011 A 
HETATM    9  C22 UNL     1       5.903  10.158  36.691  1.00  0.00     0.052 C 
HETATM   10  C23 UNL     1       6.536   9.775  39.026  1.00  0.00     0.072 A 
HETATM   11  N5  UNL     1       7.287  10.844  39.250  1.00  0.00    -0.297 N 
ATOM     12  H5  UNL     1       7.473  11.569  38.558  1.00  0.00     0.187 HD
HETATM   13  N6  UNL     1       7.767  10.854  40.488  1.00  0.00    -0.288 N 
ENDROOT
BRANCH   1  14
HETATM   14  C15 UNL     1       7.405   9.440  42.515  1.00  0.00    -0.004 A 
HETATM   15  C14 UNL     1       6.339   9.097  43.297  1.00  0.00     0.021 A 
HETATM   16  C4  UNL     1       6.412   8.692  44.609  1.00  0.00    -0.046 A 
HETATM   17  C3  UNL     1       7.677   8.633  45.190  1.00  0.00     0.044 A 
HETATM   18  C2  UNL     1       8.802   8.967  44.469  1.00  0.00     0.069 A 
HETATM   19  C30 UNL     1       8.632   9.358  43.150  1.00  0.00     0.050 A 
BRANCH  16  20
HETATM   20  C5  UNL     1       5.214   8.275  45.388  1.00  0.00     0.141 C 
BRANCH  20  21
HETATM   21  C6  UNL     1       4.164   7.697  44.546  1.00  0.00     0.221 C 
HETATM   22  O2  UNL     1       4.032   6.424  44.565  1.00  0.00    -0.273 OA
HETATM   23  N1  UNL     1       3.326   8.467  43.741  1.00  0.00    -0.361 N 
ATOM     24  H1  UNL     1       3.489   9.474  43.750  1.00  0.00     0.162 HD
BRANCH  23  25
HETATM   25  C7  UNL     1       2.250   7.999  42.895  1.00  0.00     0.124 C 
BRANCH  25  26
HETATM   26  C8  UNL     1       2.453   8.444  41.435  1.00  0.00     0.050 C 
BRANCH  26  27
HETATM   27  C9  UNL     1       1.846   7.395  40.565  1.00  0.00     0.274 C 
BRANCH  27  28
HETATM   28  N2  UNL     1       1.229   7.848  39.360  1.00  0.00     0.088 N 
HETATM   29  C10 UNL     1       1.782   9.148  38.959  1.00  0.00     0.272 C 
HETATM   30  C11 UNL     1       0.728   9.812  38.112  1.00  0.00     0.032 C 
HETATM   31  C12 UNL     1      -0.534   9.381  38.830  1.00  0.00     0.032 C 
HETATM   32  C13 UNL     1      -0.188   8.004  39.380  1.00  0.00     0.272 C 
ENDBRANCH  27  28
ENDBRANCH  26  27
ENDBRANCH  25  26
ENDBRANCH  23  25
ENDBRANCH  20  21
ENDBRANCH  16  20
BRANCH  18  33
HETATM   33  O1  UNL     1      10.010   8.886  45.104  1.00  0.00    -0.356 OA
HETATM   34  C1  UNL     1      11.250   8.549  44.573  1.00  0.00     0.210 C 
ENDBRANCH  18  33
ENDBRANCH   1  14
BRANCH  13  35
HETATM   35  C24 UNL     1       8.585  11.899  41.010  1.00  0.00     0.179 C 
BRANCH  35  36
HETATM   36  C25 UNL     1       9.505  12.519  39.974  1.00  0.00     0.294 C 
BRANCH  36  37
HETATM   37  N7  UNL     1      10.892  12.199  40.196  1.00  0.00     0.094 N 
HETATM   38  C26 UNL     1      11.517  11.420  39.179  1.00  0.00     0.298 C 
HETATM   39  C27 UNL     1      10.923  10.070  38.933  1.00  0.00     0.198 C 
HETATM   40  O3  UNL     1      10.953   9.361  40.120  1.00  0.00    -0.388 OA
HETATM   41  C28 UNL     1      11.529  10.040  41.172  1.00  0.00     0.198 C 
HETATM   42  C29 UNL     1      10.930  11.403  41.432  1.00  0.00     0.298 C 
ENDBRANCH  36  37
ENDBRANCH  35  36
ENDBRANCH  13  35
BRANCH   3  43
HETATM   43  N3  UNL     1       5.867   7.015  41.229  1.00  0.00    -0.385 N 
ATOM     44  H32 UNL     1       4.986   6.743  41.665  1.00  0.00     0.157 HD
ATOM     45  H31 UNL     1       6.740   6.597  41.550  1.00  0.00     0.157 HD
ENDBRANCH   3  43
TORSDOF 12
ENDMDL
MODEL 2
REMARK VINA RESULT: -8.284915820      2.191      7.307
REMARK  12 active torsions:
REMARK  status: ('A' for Active; 'I' for Inactive)
REMARK    1  A    between atoms: O1_2  and  C2_3 
REMARK    2  A    between atoms: C4_5  and  C5_6 
REMARK    3  A    between atoms: C5_6  and  C6_7 
REMARK       I    between atoms: C6_7  and  N1_9 
REMARK    4  A    between atoms: N1_9  and  C7_11 
REMARK    5  A    between atoms: C7_11  and  C8_12 
REMARK    6  A    between atoms: C8_12  and  C9_13 
REMARK    7  A    between atoms: C9_13  and  N2_14 
REMARK    8  A    between atoms: C15_20  and  C16_21 
REMARK    9  A    between atoms: C18_23  and  N3_24 
REMARK   10  A    between atoms: N6_36  and  C24_37 
REMARK   11  A    between atoms: C24_37  and  C25_38 
REMARK   12  A    between atoms: C25_38  and  N7_39 
ROOT
HETATM    1  C16 UNL     1       6.124   8.778  39.196  1.00  0.00     0.077 A 
HETATM    2  C17 UNL     1       5.188   8.785  38.165  1.00  0.00     0.065 A 
HETATM    3  C18 UNL     1       4.985   9.482  36.992  1.00  0.00     0.114 A 
HETATM    4  N4  UNL     1       3.898   9.215  36.232  1.00  0.00    -0.345 N 
ATOM      5  H4  UNL     1       3.761   9.734  35.365  1.00  0.00     0.167 HD
HETATM    6  C19 UNL     1       2.995   8.287  36.585  1.00  0.00     0.015 A 
HETATM    7  C20 UNL     1       1.819   8.012  35.722  1.00  0.00     0.069 C 
HETATM    8  C21 UNL     1       3.151   7.572  37.745  1.00  0.00    -0.011 A 
HETATM    9  C22 UNL     1       2.197   6.526  38.214  1.00  0.00     0.052 C 
HETATM   10  C23 UNL     1       4.256   7.806  38.566  1.00  0.00     0.072 A 
HETATM   11  N5  UNL     1       4.650   7.314  39.732  1.00  0.00    -0.297 N 
ATOM     12  H5  UNL     1       4.148   6.591  40.247  1.00  0.00     0.187 HD
HETATM   13  N6  UNL     1       5.777   7.878  40.146  1.00  0.00    -0.288 N 
ENDROOT
BRANCH   1  14
HETATM   14  C15 UNL     1       7.404   9.482  39.135  1.00  0.00    -0.004 A 
HETATM   15  C14 UNL     1       7.636  10.681  39.744  1.00  0.00     0.021 A 
HETATM   16  C4  UNL     1       8.855  11.315  39.816  1.00  0.00    -0.046 A 
HETATM   17  C3  UNL     1       9.939  10.684  39.211  1.00  0.00     0.044 A 
HETATM   18  C2  UNL     1       9.787   9.472  38.573  1.00  0.00     0.069 A 
HETATM   19  C30 UNL     1       8.521   8.906  38.555  1.00  0.00     0.050 A 
BRANCH  16  20
HETATM   20  C5  UNL     1       9.052  12.596  40.548  1.00  0.00     0.141 C 
BRANCH  20  21
HETATM   21  C6  UNL     1      10.093  12.506  41.576  1.00  0.00     0.221 C 
HETATM   22  O2  UNL     1      11.158  13.193  41.392  1.00  0.00    -0.273 OA
HETATM   23  N1  UNL     1       9.969  11.715  42.716  1.00  0.00    -0.361 N 
ATOM     24  H1  UNL     1       9.108  11.173  42.800  1.00  0.00     0.162 HD
BRANCH  23  25
HETATM   25  C7  UNL     1      10.922  11.575  43.794  1.00  0.00     0.124 C 
BRANCH  25  26
HETATM   26  C8  UNL     1      10.222  11.218  45.118  1.00  0.00     0.050 C 
BRANCH  26  27
HETATM   27  C9  UNL     1       8.782  10.985  44.807  1.00  0.00     0.274 C 
BRANCH  27  28
HETATM   28  N2  UNL     1       8.071  10.124  45.697  1.00  0.00     0.088 N 
HETATM   29  C10 UNL     1       8.456  10.394  47.087  1.00  0.00     0.272 C 
HETATM   30  C11 UNL     1       8.177   9.129  47.856  1.00  0.00     0.032 C 
HETATM   31  C12 UNL     1       8.573   8.078  46.839  1.00  0.00     0.032 C 
HETATM   32  C13 UNL     1       8.232   8.720  45.502  1.00  0.00     0.272 C 
ENDBRANCH  27  28
ENDBRANCH  26  27
ENDBRANCH  25  26
ENDBRANCH  23  25
ENDBRANCH  20  21
ENDBRANCH  16  20
BRANCH  18  33
HETATM   33  O1  UNL     1      10.895   8.912  38.001  1.00  0.00    -0.356 OA
HETATM   34  C1  UNL     1      12.217   9.335  38.072  1.00  0.00     0.210 C 
ENDBRANCH  18  33
ENDBRANCH   1  14
BRANCH  13  35
HETATM   35  C24 UNL     1       6.441   7.522  41.357  1.00  0.00     0.179 C 
BRANCH  35  36
HETATM   36  C25 UNL     1       5.491   7.111  42.466  1.00  0.00     0.294 C 
BRANCH  36  37
HETATM   37  N7  UNL     1       4.567   8.156  42.828  1.00  0.00     0.094 N 
HETATM   38  C26 UNL     1       4.782   8.757  44.102  1.00  0.00     0.298 C 
HETATM   39  C27 UNL     1       4.690   7.841  45.280  1.00  0.00     0.198 C 
HETATM   40  O3  UNL     1       3.439   7.249  45.271  1.00  0.00    -0.388 OA
HETATM   41  C28 UNL     1       2.623   7.663  44.241  1.00  0.00     0.198 C 
HETATM   42  C29 UNL     1       3.239   7.525  42.868  1.00  0.00     0.298 C 
ENDBRANCH  36  37
ENDBRANCH  35  36
ENDBRANCH  13  35
BRANCH   3  43
HETATM   43  N3  UNL     1       5.745  10.452  36.642  1.00  0.00    -0.385 N 
ATOM     44  H32 UNL     1       6.734  10.258  36.484  1.00  0.00     0.157 HD
ATOM     45  H31 UNL     1       5.374  11.381  36.446  1.00  0.00     0.157 HD
ENDBRANCH   3  43
TORSDOF 12
ENDMDL
MODEL 3
REMARK VINA RESULT: -8.221160043      2.880      7.696
REMARK  12 active torsions:
REMARK  status: ('A' for Active; 'I' for Inactive)
REMARK    1  A    between atoms: O1_2  and  C2_3 
REMARK    2  A    between atoms: C4_5  and  C5_6 
REMARK    3  A    between atoms: C5_6  and  C6_7 
REMARK       I    between atoms: C6_7  and  N1_9 
REMARK    4  A    between atoms: N1_9  and  C7_11 
REMARK    5  A    between atoms: C7_11  and  C8_12 
REMARK    6  A    between atoms: C8_12  and  C9_13 
REMARK    7  A    between atoms: C9_13  and  N2_14 
REMARK    8  A    between atoms: C15_20  and  C16_21 
REMARK    9  A    between atoms: C18_23  and  N3_24 
REMARK   10  A    between atoms: N6_36  and  C24_37 
REMARK   11  A    between atoms: C24_37  and  C25_38 
REMARK   12  A    between atoms: C25_38  and  N7_39 
ROOT
HETATM    1  C16 UNL     1       6.098   8.749  39.237  1.00  0.00     0.077 A 
HETATM    2  C17 UNL     1       5.179   8.794  38.191  1.00  0.00     0.065 A 
HETATM    3  C18 UNL     1       4.992   9.537  37.044  1.00  0.00     0.114 A 
HETATM    4  N4  UNL     1       3.918   9.297  36.257  1.00  0.00    -0.345 N 
ATOM      5  H4  UNL     1       3.793   9.850  35.409  1.00  0.00     0.167 HD
HETATM    6  C19 UNL     1       3.014   8.352  36.557  1.00  0.00     0.015 A 
HETATM    7  C20 UNL     1       1.853   8.107  35.665  1.00  0.00     0.069 C 
HETATM    8  C21 UNL     1       3.154   7.591  37.690  1.00  0.00    -0.011 A 
HETATM    9  C22 UNL     1       2.199   6.524  38.101  1.00  0.00     0.052 C 
HETATM   10  C23 UNL     1       4.245   7.796  38.537  1.00  0.00     0.072 A 
HETATM   11  N5  UNL     1       4.622   7.259  39.689  1.00  0.00    -0.297 N 
ATOM     12  H5  UNL     1       4.116   6.514  40.166  1.00  0.00     0.187 HD
HETATM   13  N6  UNL     1       5.740   7.811  40.144  1.00  0.00    -0.288 N 
ENDROOT
BRANCH   1  14
HETATM   14  C15 UNL     1       7.376   9.461  39.224  1.00  0.00    -0.004 A 
HETATM   15  C14 UNL     1       7.621  10.586  39.956  1.00  0.00     0.021 A 
HETATM   16  C4  UNL     1       8.840  11.213  40.070  1.00  0.00    -0.046 A 
HETATM   17  C3  UNL     1       9.911  10.655  39.375  1.00  0.00     0.044 A 
HETATM   18  C2  UNL     1       9.745   9.521  38.611  1.00  0.00     0.069 A 
HETATM   19  C30 UNL     1       8.481   8.956  38.560  1.00  0.00     0.050 A 
BRANCH  16  20
HETATM   20  C5  UNL     1       9.053  12.406  40.934  1.00  0.00     0.141 C 
BRANCH  20  21
HETATM   21  C6  UNL     1       9.659  12.069  42.225  1.00  0.00     0.221 C 
HETATM   22  O2  UNL     1      10.770  12.635  42.516  1.00  0.00    -0.273 OA
HETATM   23  N1  UNL     1       9.082  11.173  43.124  1.00  0.00    -0.361 N 
ATOM     24  H1  UNL     1       8.208  10.736  42.831  1.00  0.00     0.162 HD
BRANCH  23  25
HETATM   25  C7  UNL     1       9.585  10.792  44.425  1.00  0.00     0.124 C 
BRANCH  25  26
HETATM   26  C8  UNL     1       8.843  11.534  45.551  1.00  0.00     0.050 C 
BRANCH  26  27
HETATM   27  C9  UNL     1       9.806  12.501  46.152  1.00  0.00     0.274 C 
BRANCH  27  28
HETATM   28  N2  UNL     1       9.696  13.858  45.722  1.00  0.00     0.088 N 
HETATM   29  C10 UNL     1      11.027  14.461  45.584  1.00  0.00     0.272 C 
HETATM   30  C11 UNL     1      10.836  15.947  45.737  1.00  0.00     0.032 C 
HETATM   31  C12 UNL     1       9.766  15.992  46.809  1.00  0.00     0.032 C 
HETATM   32  C13 UNL     1       8.941  14.739  46.553  1.00  0.00     0.272 C 
ENDBRANCH  27  28
ENDBRANCH  26  27
ENDBRANCH  25  26
ENDBRANCH  23  25
ENDBRANCH  20  21
ENDBRANCH  16  20
BRANCH  18  33
HETATM   33  O1  UNL     1      10.841   9.031  37.957  1.00  0.00    -0.356 OA
HETATM   34  C1  UNL     1      12.143   9.517  37.957  1.00  0.00     0.210 C 
ENDBRANCH  18  33
ENDBRANCH   1  14
BRANCH  13  35
HETATM   35  C24 UNL     1       6.386   7.409  41.350  1.00  0.00     0.179 C 
BRANCH  35  36
HETATM   36  C25 UNL     1       5.417   7.041  42.458  1.00  0.00     0.294 C 
BRANCH  36  37
HETATM   37  N7  UNL     1       4.543   8.127  42.820  1.00  0.00     0.094 N 
HETATM   38  C26 UNL     1       4.811   8.744  44.077  1.00  0.00     0.298 C 
HETATM   39  C27 UNL     1       4.714   7.855  45.275  1.00  0.00     0.198 C 
HETATM   40  O3  UNL     1       3.442   7.310  45.308  1.00  0.00    -0.388 OA
HETATM   41  C28 UNL     1       2.617   7.736  44.290  1.00  0.00     0.198 C 
HETATM   42  C29 UNL     1       3.194   7.548  42.905  1.00  0.00     0.298 C 
ENDBRANCH  36  37
ENDBRANCH  35  36
ENDBRANCH  13  35
BRANCH   3  43
HETATM   43  N3  UNL     1       5.753  10.523  36.746  1.00  0.00    -0.385 N 
ATOM     44  H32 UNL     1       6.113  11.102  37.505  1.00  0.00     0.157 HD
ATOM     45  H31 UNL     1       6.066  10.691  35.790  1.00  0.00     0.157 HD
ENDBRANCH   3  43
TORSDOF 12
ENDMDL
MODEL 4
REMARK VINA RESULT: -7.939695079      4.552      9.992
REMARK  12 active torsions:
REMARK  status: ('A' for Active; 'I' for Inactive)
REMARK    1  A    between atoms: O1_2  and  C2_3 
REMARK    2  A    between atoms: C4_5  and  C5_6 
REMARK    3  A    between atoms: C5_6  and  C6_7 
REMARK       I    between atoms: C6_7  and  N1_9 
REMARK    4  A    between atoms: N1_9  and  C7_11 
REMARK    5  A    between atoms: C7_11  and  C8_12 
REMARK    6  A    between atoms: C8_12  and  C9_13 
REMARK    7  A    between atoms: C9_13  and  N2_14 
REMARK    8  A    between atoms: C15_20  and  C16_21 
REMARK    9  A    between atoms: C18_23  and  N3_24 
REMARK   10  A    between atoms: N6_36  and  C24_37 
REMARK   11  A    between atoms: C24_37  and  C25_38 
REMARK   12  A    between atoms: C25_38  and  N7_39 
ROOT
HETATM    1  C16 UNL     1       0.261   8.875  35.090  1.00  0.00     0.077 A 
HETATM    2  C17 UNL     1       0.079   8.681  33.723  1.00  0.00     0.065 A 
HETATM    3  C18 UNL     1       0.839   8.249  32.655  1.00  0.00     0.114 A 
HETATM    4  N4  UNL     1       0.300   8.222  31.415  1.00  0.00    -0.345 N 
ATOM      5  H4  UNL     1       0.870   7.897  30.634  1.00  0.00     0.167 HD
HETATM    6  C19 UNL     1      -0.963   8.611  31.181  1.00  0.00     0.015 A 
HETATM    7  C20 UNL     1      -1.526   8.559  29.808  1.00  0.00     0.069 C 
HETATM    8  C21 UNL     1      -1.756   9.055  32.209  1.00  0.00    -0.011 A 
HETATM    9  C22 UNL     1      -3.166   9.506  32.039  1.00  0.00     0.052 C 
HETATM   10  C23 UNL     1      -1.250   9.100  33.509  1.00  0.00     0.072 A 
HETATM   11  N5  UNL     1      -1.748   9.502  34.670  1.00  0.00    -0.297 N 
ATOM     12  H5  UNL     1      -2.695   9.860  34.795  1.00  0.00     0.187 HD
HETATM   13  N6  UNL     1      -0.862   9.382  35.651  1.00  0.00    -0.288 N 
ENDROOT
BRANCH   1  14
HETATM   14  C15 UNL     1       1.423   8.386  35.831  1.00  0.00    -0.004 A 
HETATM   15  C14 UNL     1       2.684   8.885  35.673  1.00  0.00     0.021 A 
HETATM   16  C4  UNL     1       3.777   8.542  36.434  1.00  0.00    -0.046 A 
HETATM   17  C3  UNL     1       3.581   7.605  37.446  1.00  0.00     0.044 A 
HETATM   18  C2  UNL     1       2.339   7.052  37.668  1.00  0.00     0.069 A 
HETATM   19  C30 UNL     1       1.295   7.462  36.853  1.00  0.00     0.050 A 
BRANCH  16  20
HETATM   20  C5  UNL     1       5.114   9.168  36.247  1.00  0.00     0.141 C 
BRANCH  20  21
HETATM   21  C6  UNL     1       5.612   9.814  37.465  1.00  0.00     0.221 C 
HETATM   22  O2  UNL     1       5.971  11.039  37.372  1.00  0.00    -0.273 OA
HETATM   23  N1  UNL     1       5.709   9.155  38.689  1.00  0.00    -0.361 N 
ATOM     24  H1  UNL     1       5.429   8.174  38.699  1.00  0.00     0.162 HD
BRANCH  23  25
HETATM   25  C7  UNL     1       6.164   9.705  39.947  1.00  0.00     0.124 C 
BRANCH  25  26
HETATM   26  C8  UNL     1       6.136   8.645  41.063  1.00  0.00     0.050 C 
BRANCH  26  27
HETATM   27  C9  UNL     1       4.709   8.274  41.284  1.00  0.00     0.274 C 
BRANCH  27  28
HETATM   28  N2  UNL     1       4.432   7.473  42.434  1.00  0.00     0.088 N 
HETATM   29  C10 UNL     1       3.170   7.891  43.057  1.00  0.00     0.272 C 
HETATM   30  C11 UNL     1       3.254   7.473  44.502  1.00  0.00     0.032 C 
HETATM   31  C12 UNL     1       4.715   7.743  44.797  1.00  0.00     0.032 C 
HETATM   32  C13 UNL     1       5.411   7.473  43.471  1.00  0.00     0.272 C 
ENDBRANCH  27  28
ENDBRANCH  26  27
ENDBRANCH  25  26
ENDBRANCH  23  25
ENDBRANCH  20  21
ENDBRANCH  16  20
BRANCH  18  33
HETATM   33  O1  UNL     1       2.222   6.138  38.677  1.00  0.00    -0.356 OA
HETATM   34  C1  UNL     1       1.847   6.348  39.999  1.00  0.00     0.210 C 
ENDBRANCH  18  33
ENDBRANCH   1  14
BRANCH  13  35
HETATM   35  C24 UNL     1      -1.136   9.717  37.010  1.00  0.00     0.179 C 
BRANCH  35  36
HETATM   36  C25 UNL     1      -1.426   8.509  37.882  1.00  0.00     0.294 C 
BRANCH  36  37
HETATM   37  N7  UNL     1      -2.780   8.488  38.375  1.00  0.00     0.094 N 
HETATM   38  C26 UNL     1      -3.573   7.381  37.954  1.00  0.00     0.298 C 
HETATM   39  C27 UNL     1      -3.779   7.249  36.479  1.00  0.00     0.198 C 
HETATM   40  O3  UNL     1      -4.359   8.416  36.016  1.00  0.00    -0.388 OA
HETATM   41  C28 UNL     1      -4.618   9.348  36.997  1.00  0.00     0.198 C 
HETATM   42  C29 UNL     1      -3.420   9.701  37.848  1.00  0.00     0.298 C 
ENDBRANCH  36  37
ENDBRANCH  35  36
ENDBRANCH  13  35
BRANCH   3  43
HETATM   43  N3  UNL     1       2.081   7.961  32.783  1.00  0.00    -0.385 N 
ATOM     44  H32 UNL     1       2.639   8.509  33.438  1.00  0.00     0.157 HD
ATOM     45  H31 UNL     1       2.498   7.160  32.310  1.00  0.00     0.157 HD
ENDBRANCH   3  43
TORSDOF 12
ENDMDL
MODEL 5
REMARK VINA RESULT: -7.873745866      2.581      7.886
REMARK  12 active torsions:
REMARK  status: ('A' for Active; 'I' for Inactive)
REMARK    1  A    between atoms: O1_2  and  C2_3 
REMARK    2  A    between atoms: C4_5  and  C5_6 
REMARK    3  A    between atoms: C5_6  and  C6_7 
REMARK       I    between atoms: C6_7  and  N1_9 
REMARK    4  A    between atoms: N1_9  and  C7_11 
REMARK    5  A    between atoms: C7_11  and  C8_12 
REMARK    6  A    between atoms: C8_12  and  C9_13 
REMARK    7  A    between atoms: C9_13  and  N2_14 
REMARK    8  A    between atoms: C15_20  and  C16_21 
REMARK    9  A    between atoms: C18_23  and  N3_24 
REMARK   10  A    between atoms: N6_36  and  C24_37 
REMARK   11  A    between atoms: C24_37  and  C25_38 
REMARK   12  A    between atoms: C25_38  and  N7_39 
ROOT
HETATM    1  C16 UNL     1       5.926   9.135  39.950  1.00  0.00     0.077 A 
HETATM    2  C17 UNL     1       5.584   8.694  41.226  1.00  0.00     0.065 A 
HETATM    3  C18 UNL     1       6.236   8.442  42.415  1.00  0.00     0.114 A 
HETATM    4  N4  UNL     1       5.540   7.974  43.476  1.00  0.00    -0.345 N 
ATOM      5  H4  UNL     1       6.033   7.795  44.351  1.00  0.00     0.167 HD
HETATM    6  C19 UNL     1       4.220   7.739  43.412  1.00  0.00     0.015 A 
HETATM    7  C20 UNL     1       3.485   7.235  44.600  1.00  0.00     0.069 C 
HETATM    8  C21 UNL     1       3.529   7.968  42.250  1.00  0.00    -0.011 A 
HETATM    9  C22 UNL     1       2.066   7.733  42.090  1.00  0.00     0.052 C 
HETATM   10  C23 UNL     1       4.198   8.453  41.125  1.00  0.00     0.072 A 
HETATM   11  N5  UNL     1       3.820   8.732  39.885  1.00  0.00    -0.297 N 
ATOM     12  H5  UNL     1       2.864   8.638  39.543  1.00  0.00     0.187 HD
HETATM   13  N6  UNL     1       4.840   9.147  39.144  1.00  0.00    -0.288 N 
ENDROOT
BRANCH   1  14
HETATM   14  C15 UNL     1       7.228   9.712  39.614  1.00  0.00    -0.004 A 
HETATM   15  C14 UNL     1       7.632  10.951  40.018  1.00  0.00     0.021 A 
HETATM   16  C4  UNL     1       8.888  11.480  39.831  1.00  0.00    -0.046 A 
HETATM   17  C3  UNL     1       9.822  10.686  39.169  1.00  0.00     0.044 A 
HETATM   18  C2  UNL     1       9.491   9.424  38.726  1.00  0.00     0.069 A 
HETATM   19  C30 UNL     1       8.202   8.973  38.965  1.00  0.00     0.050 A 
BRANCH  16  20
HETATM   20  C5  UNL     1       9.282  12.818  40.349  1.00  0.00     0.141 C 
BRANCH  20  21
HETATM   21  C6  UNL     1      10.282  12.739  41.417  1.00  0.00     0.221 C 
HETATM   22  O2  UNL     1      11.470  13.127  41.137  1.00  0.00    -0.273 OA
HETATM   23  N1  UNL     1       9.993  12.265  42.696  1.00  0.00    -0.361 N 
ATOM     24  H1  UNL     1       9.036  11.951  42.857  1.00  0.00     0.162 HD
BRANCH  23  25
HETATM   25  C7  UNL     1      10.897  12.168  43.820  1.00  0.00     0.124 C 
BRANCH  25  26
HETATM   26  C8  UNL     1      10.403  11.136  44.849  1.00  0.00     0.050 C 
BRANCH  26  27
HETATM   27  C9  UNL     1       9.530  11.860  45.818  1.00  0.00     0.274 C 
BRANCH  27  28
HETATM   28  N2  UNL     1       8.492  11.096  46.432  1.00  0.00     0.088 N 
HETATM   29  C10 UNL     1       9.022  10.329  47.566  1.00  0.00     0.272 C 
HETATM   30  C11 UNL     1       8.097   9.156  47.752  1.00  0.00     0.032 C 
HETATM   31  C12 UNL     1       7.767   8.816  46.313  1.00  0.00     0.032 C 
HETATM   32  C13 UNL     1       7.802  10.162  45.604  1.00  0.00     0.272 C 
ENDBRANCH  27  28
ENDBRANCH  26  27
ENDBRANCH  25  26
ENDBRANCH  23  25
ENDBRANCH  20  21
ENDBRANCH  16  20
BRANCH  18  33
HETATM   33  O1  UNL     1      10.459   8.702  38.085  1.00  0.00    -0.356 OA
HETATM   34  C1  UNL     1      11.731   9.106  37.698  1.00  0.00     0.210 C 
ENDBRANCH  18  33
ENDBRANCH   1  14
BRANCH  13  35
HETATM   35  C24 UNL     1       4.716   9.539  37.778  1.00  0.00     0.179 C 
BRANCH  35  36
HETATM   36  C25 UNL     1       3.849   8.601  36.958  1.00  0.00     0.294 C 
BRANCH  36  37
HETATM   37  N7  UNL     1       2.827   9.293  36.213  1.00  0.00     0.094 N 
HETATM   38  C26 UNL     1       1.812   9.919  36.993  1.00  0.00     0.298 C 
HETATM   39  C27 UNL     1       1.001   9.011  37.860  1.00  0.00     0.198 C 
HETATM   40  O3  UNL     1       0.416   8.050  37.055  1.00  0.00    -0.388 OA
HETATM   41  C28 UNL     1       0.693   8.191  35.713  1.00  0.00     0.198 C 
HETATM   42  C29 UNL     1       2.167   8.271  35.388  1.00  0.00     0.298 C 
ENDBRANCH  36  37
ENDBRANCH  35  36
ENDBRANCH  13  35
BRANCH   3  43
HETATM   43  N3  UNL     1       7.509   8.543  42.522  1.00  0.00    -0.385 N 
ATOM     44  H32 UNL     1       8.083   8.293  41.717  1.00  0.00     0.157 HD
ATOM     45  H31 UNL     1       7.949   8.937  43.354  1.00  0.00     0.157 HD
ENDBRANCH   3  43
TORSDOF 12
ENDMDL
