MODEL 1
REMARK VINA RESULT: -6.399657400      0.000      0.000
REMARK  9 active torsions:
REMARK  status: ('A' for Active; 'I' for Inactive)
REMARK    1  A    between atoms: O1_2  and  C2_3 
REMARK    2  A    between atoms: C3_5  and  C4_6 
REMARK    3  A    between atoms: C4_6  and  O3_7 
REMARK    4  A    between atoms: C6_11  and  N1_12 
REMARK    5  A    between atoms: N1_12  and  C7_15 
REMARK    6  A    between atoms: C7_15  and  C8_16 
REMARK    7  A    between atoms: C8_16  and  N2_17 
REMARK    8  A    between atoms: N2_17  and  C9_19 
REMARK    9  A    between atoms: C15_25  and  O5_27 
ROOT
HETATM    1  N1  UNL     1       8.452  -1.613  -2.470  1.00  0.00    -0.043 N 
ATOM      2  H11 UNL     1       8.488  -1.184  -3.395  1.00  0.00     0.280 HD
ATOM      3  H12 UNL     1       7.443  -1.753  -2.410  1.00  0.00     0.280 HD
ENDROOT
BRANCH   1   4
HETATM    4  C6  UNL     1       8.943  -0.712  -1.428  1.00  0.00     0.376 C 
HETATM    5  C2  UNL     1       9.731   0.395  -2.037  1.00  0.00     0.316 C 
HETATM    6  O2  UNL     1       8.994   1.180  -2.914  1.00  0.00    -0.347 OA
HETATM    7  C3  UNL     1       7.714   1.433  -2.481  1.00  0.00     0.172 C 
HETATM    8  C5  UNL     1       7.006   0.293  -1.828  1.00  0.00     0.205 C 
HETATM    9  O4  UNL     1       7.801  -0.190  -0.787  1.00  0.00    -0.353 OA
BRANCH   5  10
HETATM   10  O1  UNL     1      10.260   1.146  -0.983  1.00  0.00    -0.362 OA
HETATM   11  C1  UNL     1      11.628   1.073  -0.876  1.00  0.00     0.205 C 
ENDBRANCH   5  10
BRANCH   7  12
HETATM   12  C4  UNL     1       6.924   1.882  -3.713  1.00  0.00     0.198 C 
BRANCH  12  13
HETATM   13  O3  UNL     1       7.596   1.437  -4.836  1.00  0.00    -0.398 OA
ATOM     14  H3  UNL     1       8.420   1.907  -4.889  1.00  0.00     0.209 HD
ENDBRANCH  12  13
ENDBRANCH   7  12
ENDBRANCH   1   4
BRANCH   1  15
HETATM   15  C7  UNL     1       9.176  -2.866  -2.426  1.00  0.00     0.254 C 
BRANCH  15  16
HETATM   16  C8  UNL     1       9.190  -3.535  -1.067  1.00  0.00     0.142 C 
BRANCH  16  17
HETATM   17  N2  UNL     1       7.941  -4.153  -0.816  1.00  0.00    -0.412 N 
ATOM     18  H2  UNL     1       7.181  -4.034  -1.486  1.00  0.00     0.153 HD
BRANCH  17  19
HETATM   19  C9  UNL     1       7.729  -4.920   0.329  1.00  0.00     0.118 C 
HETATM   20  C10 UNL     1       7.482  -6.366   0.125  1.00  0.00    -0.025 C 
HETATM   21  C11 UNL     1       8.156  -7.216   1.213  1.00  0.00     0.017 C 
HETATM   22  C12 UNL     1       7.904  -6.964  -1.181  1.00  0.00     0.017 C 
HETATM   23  C13 UNL     1       5.958  -6.520   0.262  1.00  0.00     0.014 C 
HETATM   24  C14 UNL     1       5.407  -5.169   0.599  1.00  0.00     0.040 C 
HETATM   25  C15 UNL     1       6.566  -4.427   1.158  1.00  0.00     0.077 C 
HETATM   26  C16 UNL     1       6.417  -2.924   1.075  1.00  0.00     0.048 C 
BRANCH  25  27
HETATM   27  O5  UNL     1       6.855  -4.763   2.485  1.00  0.00    -0.383 OA
HETATM   28  C17 UNL     1       7.777  -3.965   3.104  1.00  0.00     0.202 C 
ENDBRANCH  25  27
ENDBRANCH  17  19
ENDBRANCH  16  17
ENDBRANCH  15  16
ENDBRANCH   1  15
TORSDOF 9
ENDMDL
MODEL 2
REMARK VINA RESULT: -6.349628737      1.775      6.017
REMARK  9 active torsions:
REMARK  status: ('A' for Active; 'I' for Inactive)
REMARK    1  A    between atoms: O1_2  and  C2_3 
REMARK    2  A    between atoms: C3_5  and  C4_6 
REMARK    3  A    between atoms: C4_6  and  O3_7 
REMARK    4  A    between atoms: C6_11  and  N1_12 
REMARK    5  A    between atoms: N1_12  and  C7_15 
REMARK    6  A    between atoms: C7_15  and  C8_16 
REMARK    7  A    between atoms: C8_16  and  N2_17 
REMARK    8  A    between atoms: N2_17  and  C9_19 
REMARK    9  A    between atoms: C15_25  and  O5_27 
ROOT
HETATM    1  N1  UNL     1       7.871  -3.770  -1.030  1.00  0.00    -0.043 N 
ATOM      2  H11 UNL     1       7.176  -3.030  -1.127  1.00  0.00     0.280 HD
ATOM      3  H12 UNL     1       7.256  -4.572  -1.171  1.00  0.00     0.280 HD
ENDROOT
BRANCH   1   4
HETATM    4  C6  UNL     1       8.483  -3.776   0.299  1.00  0.00     0.376 C 
HETATM    5  C2  UNL     1       7.908  -2.684   1.132  1.00  0.00     0.316 C 
HETATM    6  O2  UNL     1       6.540  -2.806   1.334  1.00  0.00    -0.347 OA
HETATM    7  C3  UNL     1       6.130  -4.100   1.555  1.00  0.00     0.172 C 
HETATM    8  C5  UNL     1       6.791  -5.147   0.724  1.00  0.00     0.205 C 
HETATM    9  O4  UNL     1       8.175  -5.028   0.870  1.00  0.00    -0.353 OA
BRANCH   5  10
HETATM   10  O1  UNL     1       8.615  -2.678   2.339  1.00  0.00    -0.362 OA
HETATM   11  C1  UNL     1       9.915  -2.250   2.222  1.00  0.00     0.205 C 
ENDBRANCH   5  10
BRANCH   7  12
HETATM   12  C4  UNL     1       4.621  -4.124   1.296  1.00  0.00     0.198 C 
BRANCH  12  13
HETATM   13  O3  UNL     1       4.000  -3.451   2.331  1.00  0.00    -0.398 OA
ATOM     14  H3  UNL     1       3.284  -2.945   1.964  1.00  0.00     0.209 HD
ENDBRANCH  12  13
ENDBRANCH   7  12
ENDBRANCH   1   4
BRANCH   1  15
HETATM   15  C7  UNL     1       8.896  -3.688  -2.049  1.00  0.00     0.254 C 
BRANCH  15  16
HETATM   16  C8  UNL     1       9.743  -2.434  -1.988  1.00  0.00     0.142 C 
BRANCH  16  17
HETATM   17  N2  UNL     1       9.061  -1.356  -2.603  1.00  0.00    -0.412 N 
ATOM     18  H2  UNL     1       9.205  -1.176  -3.596  1.00  0.00     0.153 HD
BRANCH  17  19
HETATM   19  C9  UNL     1       8.198  -0.536  -1.877  1.00  0.00     0.118 C 
HETATM   20  C10 UNL     1       6.806  -0.433  -2.371  1.00  0.00    -0.025 C 
HETATM   21  C11 UNL     1       5.796  -0.379  -1.215  1.00  0.00     0.017 C 
HETATM   22  C12 UNL     1       6.316  -1.506  -3.293  1.00  0.00     0.017 C 
HETATM   23  C13 UNL     1       6.761   0.910  -3.119  1.00  0.00     0.014 C 
HETATM   24  C14 UNL     1       8.109   1.545  -2.967  1.00  0.00     0.040 C 
HETATM   25  C15 UNL     1       8.693   0.888  -1.770  1.00  0.00     0.077 C 
HETATM   26  C16 UNL     1      10.204   0.953  -1.723  1.00  0.00     0.048 C 
BRANCH  25  27
HETATM   27  O5  UNL     1       8.199   1.390  -0.562  1.00  0.00    -0.383 OA
HETATM   28  C17 UNL     1       8.824   0.930   0.564  1.00  0.00     0.202 C 
ENDBRANCH  25  27
ENDBRANCH  17  19
ENDBRANCH  16  17
ENDBRANCH  15  16
ENDBRANCH   1  15
TORSDOF 9
ENDMDL
MODEL 3
REMARK VINA RESULT: -6.276761643      1.679      6.426
REMARK  9 active torsions:
REMARK  status: ('A' for Active; 'I' for Inactive)
REMARK    1  A    between atoms: O1_2  and  C2_3 
REMARK    2  A    between atoms: C3_5  and  C4_6 
REMARK    3  A    between atoms: C4_6  and  O3_7 
REMARK    4  A    between atoms: C6_11  and  N1_12 
REMARK    5  A    between atoms: N1_12  and  C7_15 
REMARK    6  A    between atoms: C7_15  and  C8_16 
REMARK    7  A    between atoms: C8_16  and  N2_17 
REMARK    8  A    between atoms: N2_17  and  C9_19 
REMARK    9  A    between atoms: C15_25  and  O5_27 
ROOT
HETATM    1  N1  UNL     1       8.626  -4.680  -1.109  1.00  0.00    -0.043 N 
ATOM      2  H11 UNL     1       8.011  -5.477  -1.280  1.00  0.00     0.280 HD
ATOM      3  H12 UNL     1       9.518  -5.175  -1.124  1.00  0.00     0.280 HD
ENDROOT
BRANCH   1   4
HETATM    4  C6  UNL     1       8.367  -4.057   0.189  1.00  0.00     0.376 C 
HETATM    5  C2  UNL     1       6.928  -3.694   0.306  1.00  0.00     0.316 C 
HETATM    6  O2  UNL     1       6.075  -4.787   0.222  1.00  0.00    -0.347 OA
HETATM    7  C3  UNL     1       6.538  -5.898   0.886  1.00  0.00     0.172 C 
HETATM    8  C5  UNL     1       8.001  -6.166   0.772  1.00  0.00     0.205 C 
HETATM    9  O4  UNL     1       8.699  -5.022   1.163  1.00  0.00    -0.353 OA
BRANCH   5  10
HETATM   10  O1  UNL     1       6.778  -3.006   1.514  1.00  0.00    -0.362 OA
HETATM   11  C1  UNL     1       7.530  -1.859   1.601  1.00  0.00     0.205 C 
ENDBRANCH   5  10
BRANCH   7  12
HETATM   12  C4  UNL     1       5.758  -7.090   0.327  1.00  0.00     0.198 C 
BRANCH  12  13
HETATM   13  O3  UNL     1       6.383  -7.501  -0.835  1.00  0.00    -0.398 OA
ATOM     14  H3  UNL     1       5.787  -8.077  -1.301  1.00  0.00     0.209 HD
ENDBRANCH  12  13
ENDBRANCH   7  12
ENDBRANCH   1   4
BRANCH   1  15
HETATM   15  C7  UNL     1       8.537  -3.691  -2.162  1.00  0.00     0.254 C 
BRANCH  15  16
HETATM   16  C8  UNL     1       9.514  -2.542  -2.028  1.00  0.00     0.142 C 
BRANCH  16  17
HETATM   17  N2  UNL     1       8.964  -1.367  -2.594  1.00  0.00    -0.412 N 
ATOM     18  H2  UNL     1       9.180  -1.130  -3.562  1.00  0.00     0.153 HD
BRANCH  17  19
HETATM   19  C9  UNL     1       8.133  -0.526  -1.854  1.00  0.00     0.118 C 
HETATM   20  C10 UNL     1       6.743  -0.369  -2.339  1.00  0.00    -0.025 C 
HETATM   21  C11 UNL     1       5.741  -0.295  -1.176  1.00  0.00     0.017 C 
HETATM   22  C12 UNL     1       6.211  -1.414  -3.271  1.00  0.00     0.017 C 
HETATM   23  C13 UNL     1       6.740   0.983  -3.071  1.00  0.00     0.014 C 
HETATM   24  C14 UNL     1       8.110   1.570  -2.920  1.00  0.00     0.040 C 
HETATM   25  C15 UNL     1       8.677   0.878  -1.733  1.00  0.00     0.077 C 
HETATM   26  C16 UNL     1      10.190   0.892  -1.694  1.00  0.00     0.048 C 
BRANCH  25  27
HETATM   27  O5  UNL     1       8.207   1.383  -0.517  1.00  0.00    -0.383 OA
HETATM   28  C17 UNL     1       9.093   1.327   0.523  1.00  0.00     0.202 C 
ENDBRANCH  25  27
ENDBRANCH  17  19
ENDBRANCH  16  17
ENDBRANCH  15  16
ENDBRANCH   1  15
TORSDOF 9
ENDMDL
MODEL 4
REMARK VINA RESULT: -6.265645609      1.277      2.502
REMARK  9 active torsions:
REMARK  status: ('A' for Active; 'I' for Inactive)
REMARK    1  A    between atoms: O1_2  and  C2_3 
REMARK    2  A    between atoms: C3_5  and  C4_6 
REMARK    3  A    between atoms: C4_6  and  O3_7 
REMARK    4  A    between atoms: C6_11  and  N1_12 
REMARK    5  A    between atoms: N1_12  and  C7_15 
REMARK    6  A    between atoms: C7_15  and  C8_16 
REMARK    7  A    between atoms: C8_16  and  N2_17 
REMARK    8  A    between atoms: N2_17  and  C9_19 
REMARK    9  A    between atoms: C15_25  and  O5_27 
ROOT
HETATM    1  N1  UNL     1       9.105  -1.068  -2.497  1.00  0.00    -0.043 N 
ATOM      2  H11 UNL     1       9.685  -0.482  -3.098  1.00  0.00     0.280 HD
ATOM      3  H12 UNL     1       8.339  -1.237  -3.149  1.00  0.00     0.280 HD
ENDROOT
BRANCH   1   4
HETATM    4  C6  UNL     1       8.659  -0.354  -1.301  1.00  0.00     0.376 C 
HETATM    5  C2  UNL     1       8.932   1.103  -1.443  1.00  0.00     0.316 C 
HETATM    6  O2  UNL     1       8.268   1.687  -2.514  1.00  0.00    -0.347 OA
HETATM    7  C3  UNL     1       6.982   1.230  -2.678  1.00  0.00     0.172 C 
HETATM    8  C5  UNL     1       6.773  -0.231  -2.463  1.00  0.00     0.205 C 
HETATM    9  O4  UNL     1       7.270  -0.574  -1.204  1.00  0.00    -0.353 OA
BRANCH   5  10
HETATM   10  O1  UNL     1       8.588   1.702  -0.226  1.00  0.00    -0.362 OA
HETATM   11  C1  UNL     1       9.524   2.592   0.243  1.00  0.00     0.205 C 
ENDBRANCH   5  10
BRANCH   7  12
HETATM   12  C4  UNL     1       6.574   1.596  -4.108  1.00  0.00     0.198 C 
BRANCH  12  13
HETATM   13  O3  UNL     1       7.671   1.403  -4.926  1.00  0.00    -0.398 OA
ATOM     14  H3  UNL     1       7.366   1.389  -5.826  1.00  0.00     0.209 HD
ENDBRANCH  12  13
ENDBRANCH   7  12
ENDBRANCH   1   4
BRANCH   1  15
HETATM   15  C7  UNL     1       9.778  -2.293  -2.123  1.00  0.00     0.254 C 
BRANCH  15  16
HETATM   16  C8  UNL     1       8.906  -3.531  -2.179  1.00  0.00     0.142 C 
BRANCH  16  17
HETATM   17  N2  UNL     1       8.891  -4.173  -0.917  1.00  0.00    -0.412 N 
ATOM     18  H2  UNL     1       9.771  -4.475  -0.500  1.00  0.00     0.153 HD
BRANCH  17  19
HETATM   19  C9  UNL     1       7.697  -4.402  -0.234  1.00  0.00     0.118 C 
HETATM   20  C10 UNL     1       7.570  -3.788   1.108  1.00  0.00    -0.025 C 
HETATM   21  C11 UNL     1       6.146  -3.269   1.361  1.00  0.00     0.017 C 
HETATM   22  C12 UNL     1       8.485  -2.650   1.439  1.00  0.00     0.017 C 
HETATM   23  C13 UNL     1       7.849  -4.940   2.086  1.00  0.00     0.014 C 
HETATM   24  C14 UNL     1       8.063  -6.175   1.266  1.00  0.00     0.040 C 
HETATM   25  C15 UNL     1       7.408  -5.871  -0.033  1.00  0.00     0.077 C 
HETATM   26  C16 UNL     1       7.930  -6.707  -1.182  1.00  0.00     0.048 C 
BRANCH  25  27
HETATM   27  O5  UNL     1       6.017  -6.001   0.001  1.00  0.00    -0.383 OA
HETATM   28  C17 UNL     1       5.551  -7.264   0.243  1.00  0.00     0.202 C 
ENDBRANCH  25  27
ENDBRANCH  17  19
ENDBRANCH  16  17
ENDBRANCH  15  16
ENDBRANCH   1  15
TORSDOF 9
ENDMDL
MODEL 5
REMARK VINA RESULT: -6.232978577      1.791      6.483
REMARK  9 active torsions:
REMARK  status: ('A' for Active; 'I' for Inactive)
REMARK    1  A    between atoms: O1_2  and  C2_3 
REMARK    2  A    between atoms: C3_5  and  C4_6 
REMARK    3  A    between atoms: C4_6  and  O3_7 
REMARK    4  A    between atoms: C6_11  and  N1_12 
REMARK    5  A    between atoms: N1_12  and  C7_15 
REMARK    6  A    between atoms: C7_15  and  C8_16 
REMARK    7  A    between atoms: C8_16  and  N2_17 
REMARK    8  A    between atoms: N2_17  and  C9_19 
REMARK    9  A    between atoms: C15_25  and  O5_27 
ROOT
HETATM    1  N1  UNL     1       9.420  -3.700   0.248  1.00  0.00    -0.043 N 
ATOM      2  H11 UNL     1       9.332  -4.454  -0.434  1.00  0.00     0.280 HD
ATOM      3  H12 UNL     1      10.259  -4.028   0.727  1.00  0.00     0.280 HD
ENDROOT
BRANCH   1   4
HETATM    4  C6  UNL     1       8.267  -3.637   1.146  1.00  0.00     0.376 C 
HETATM    5  C2  UNL     1       7.005  -3.785   0.370  1.00  0.00     0.316 C 
HETATM    6  O2  UNL     1       6.909  -4.998  -0.301  1.00  0.00    -0.347 OA
HETATM    7  C3  UNL     1       7.374  -6.067   0.428  1.00  0.00     0.172 C 
HETATM    8  C5  UNL     1       8.611  -5.827   1.226  1.00  0.00     0.205 C 
HETATM    9  O4  UNL     1       8.407  -4.715   2.045  1.00  0.00    -0.353 OA
BRANCH   5  10
HETATM   10  O1  UNL     1       5.950  -3.602   1.270  1.00  0.00    -0.362 OA
HETATM   11  C1  UNL     1       4.705  -3.702   0.698  1.00  0.00     0.205 C 
ENDBRANCH   5  10
BRANCH   7  12
HETATM   12  C4  UNL     1       7.629  -7.193  -0.577  1.00  0.00     0.198 C 
BRANCH  12  13
HETATM   13  O3  UNL     1       8.478  -6.709  -1.555  1.00  0.00    -0.398 OA
ATOM     14  H3  UNL     1       8.129  -5.879  -1.860  1.00  0.00     0.209 HD
ENDBRANCH  12  13
ENDBRANCH   7  12
ENDBRANCH   1   4
BRANCH   1  15
HETATM   15  C7  UNL     1       9.627  -2.416  -0.387  1.00  0.00     0.254 C 
BRANCH  15  16
HETATM   16  C8  UNL     1       9.771  -2.476  -1.893  1.00  0.00     0.142 C 
BRANCH  16  17
HETATM   17  N2  UNL     1       9.201  -1.323  -2.484  1.00  0.00    -0.412 N 
ATOM     18  H2  UNL     1       9.450  -1.077  -3.441  1.00  0.00     0.153 HD
BRANCH  17  19
HETATM   19  C9  UNL     1       8.304  -0.518  -1.783  1.00  0.00     0.118 C 
HETATM   20  C10 UNL     1       6.903  -0.506  -2.263  1.00  0.00    -0.025 C 
HETATM   21  C11 UNL     1       5.904  -0.455  -1.096  1.00  0.00     0.017 C 
HETATM   22  C12 UNL     1       6.459  -1.642  -3.131  1.00  0.00     0.017 C 
HETATM   23  C13 UNL     1       6.781   0.799  -3.065  1.00  0.00     0.014 C 
HETATM   24  C14 UNL     1       8.096   1.507  -2.959  1.00  0.00     0.040 C 
HETATM   25  C15 UNL     1       8.726   0.933  -1.742  1.00  0.00     0.077 C 
HETATM   26  C16 UNL     1      10.233   1.077  -1.718  1.00  0.00     0.048 C 
BRANCH  25  27
HETATM   27  O5  UNL     1       8.220   1.461  -0.551  1.00  0.00    -0.383 OA
HETATM   28  C17 UNL     1       8.908   1.119   0.581  1.00  0.00     0.202 C 
ENDBRANCH  25  27
ENDBRANCH  17  19
ENDBRANCH  16  17
ENDBRANCH  15  16
ENDBRANCH   1  15
TORSDOF 9
ENDMDL
