MODEL 1
REMARK VINA RESULT: -8.340929446      0.000      0.000
REMARK  18 active torsions:
REMARK  status: ('A' for Active; 'I' for Inactive)
REMARK    1  A    between atoms: C2_2  and  O1_3 
REMARK    2  A    between atoms: O1_3  and  C3_4 
REMARK    3  A    between atoms: C3_4  and  C4_6 
REMARK    4  A    between atoms: C4_6  and  C5_7 
REMARK    5  A    between atoms: C5_7  and  N1_8 
REMARK    6  A    between atoms: C5_7  and  C30_44 
REMARK       I    between atoms: N1_8  and  C6_10 
REMARK    7  A    between atoms: C6_10  and  C7_12 
REMARK    8  A    between atoms: C7_12  and  C8_13 
REMARK    9  A    between atoms: C7_12  and  N5_37 
REMARK   10  A    between atoms: C8_13  and  N2_14 
REMARK   11  A    between atoms: N2_14  and  C9_16 
REMARK   12  A    between atoms: C9_16  and  C11_18 
REMARK   13  A    between atoms: C9_16  and  C18_27 
REMARK   14  A    between atoms: C11_18  and  C12_19 
REMARK   15  A    between atoms: C12_19  and  C13_20 
REMARK   16  A    between atoms: C13_20  and  N3_21 
REMARK   17  A    between atoms: C18_27  and  O4_28 
REMARK   18  A    between atoms: C18_27  and  N4_30 
ROOT
HETATM    1  C8  UNL     1      19.392  30.755  15.690  1.00  0.00     0.149 C 
ENDROOT
BRANCH   1   2
HETATM    2  C7  UNL     1      19.558  32.265  15.634  1.00  0.00     0.190 C 
BRANCH   2   3
HETATM    3  C6  UNL     1      18.600  32.901  16.496  1.00  0.00     0.245 C 
HETATM    4  N1  UNL     1      18.463  34.219  16.901  1.00  0.00    -0.331 N 
ATOM      5  H1  UNL     1      19.145  34.900  16.566  1.00  0.00     0.168 HD
HETATM    6  O3  UNL     1      17.717  32.091  16.968  1.00  0.00    -0.271 OA
BRANCH   4   7
HETATM    7  C5  UNL     1      17.418  34.677  17.764  1.00  0.00     0.006 C 
BRANCH   7   8
HETATM    8  C4  UNL     1      17.838  35.501  18.922  1.00  0.00     0.164 C 
BRANCH   8   9
HETATM    9  C3  UNL     1      19.223  35.935  18.984  1.00  0.00     0.264 C 
HETATM   10  O2  UNL     1      19.559  37.111  18.810  1.00  0.00    -0.265 OA
BRANCH   9  11
HETATM   11  O1  UNL     1      20.235  35.003  19.254  1.00  0.00    -0.322 OA
BRANCH  11  12
HETATM   12  C2  UNL     1      20.925  35.126  20.463  1.00  0.00     0.174 C 
HETATM   13  C1  UNL     1      22.370  35.471  20.178  1.00  0.00     0.034 C 
ENDBRANCH  11  12
ENDBRANCH   9  11
ENDBRANCH   8   9
ENDBRANCH   7   8
BRANCH   7  14
HETATM   14  C30 UNL     1      16.164  35.122  17.060  1.00  0.00    -0.012 C 
HETATM   15  C31 UNL     1      14.975  34.267  17.434  1.00  0.00     0.021 C 
HETATM   16  C32 UNL     1      15.832  36.526  17.596  1.00  0.00     0.021 C 
HETATM   17  C33 UNL     1      16.247  35.254  15.585  1.00  0.00     0.021 C 
ENDBRANCH   7  14
ENDBRANCH   4   7
ENDBRANCH   2   3
BRANCH   2  18
HETATM   18  N5  UNL     1      20.902  32.572  15.658  1.00  0.00    -0.391 N 
HETATM   19  C25 UNL     1      21.207  33.967  15.706  1.00  0.00     0.144 C 
HETATM   20  C26 UNL     1      22.307  34.212  16.708  1.00  0.00     0.187 C 
HETATM   21  O5  UNL     1      22.936  33.065  17.118  1.00  0.00    -0.388 OA
HETATM   22  C27 UNL     1      23.217  32.186  16.102  1.00  0.00     0.192 C 
HETATM   23  C28 UNL     1      21.968  31.792  15.294  1.00  0.00     0.099 C 
HETATM   24  C29 UNL     1      22.321  32.047  13.841  1.00  0.00     0.034 C 
ENDBRANCH   2  18
ENDBRANCH   1   2
BRANCH   1  25
HETATM   25  N2  UNL     1      18.892  30.200  14.489  1.00  0.00    -0.404 N 
ATOM     26  H2  UNL     1      18.173  30.674  13.943  1.00  0.00     0.154 HD
BRANCH  25  27
HETATM   27  C9  UNL     1      19.446  28.926  14.066  1.00  0.00     0.087 C 
HETATM   28  C10 UNL     1      20.528  28.469  14.989  1.00  0.00     0.047 C 
BRANCH  27  29
HETATM   29  C11 UNL     1      20.148  29.268  12.714  1.00  0.00     0.044 C 
BRANCH  29  30
HETATM   30  C12 UNL     1      21.473  28.625  12.630  1.00  0.00     0.047 C 
BRANCH  30  31
HETATM   31  C13 UNL     1      21.780  28.045  11.307  1.00  0.00     0.058 C 
BRANCH  31  32
HETATM   32  N3  UNL     1      22.779  27.094  11.128  1.00  0.00    -0.392 N 
HETATM   33  C14 UNL     1      23.829  26.910  12.040  1.00  0.00     0.132 C 
HETATM   34  C15 UNL     1      25.182  26.864  11.325  1.00  0.00     0.093 C 
HETATM   35  S1  UNL     1      24.911  25.874   9.829  1.00  0.00    -0.166 SA
HETATM   36  C16 UNL     1      23.383  24.936  10.115  1.00  0.00     0.093 C 
HETATM   37  C17 UNL     1      22.305  25.940  10.442  1.00  0.00     0.132 C 
ENDBRANCH  31  32
ENDBRANCH  30  31
ENDBRANCH  29  30
ENDBRANCH  27  29
BRANCH  27  38
HETATM   38  C18 UNL     1      18.418  27.920  13.791  1.00  0.00     0.141 C 
BRANCH  38  39
HETATM   39  O4  UNL     1      18.082  27.149  14.801  1.00  0.00    -0.348 OA
ATOM     40  H4  UNL     1      17.152  27.089  14.986  1.00  0.00     0.219 HD
ENDBRANCH  38  39
BRANCH  38  41
HETATM   41  N4  UNL     1      17.716  27.630  12.621  1.00  0.00    -0.363 N 
HETATM   42  C19 UNL     1      17.104  28.632  11.836  1.00  0.00     0.124 C 
HETATM   43  C20 UNL     1      16.988  28.187  10.352  1.00  0.00     0.020 C 
HETATM   44  C21 UNL     1      18.368  27.764   9.928  1.00  0.00     0.002 C 
HETATM   45  C22 UNL     1      18.521  26.256   9.931  1.00  0.00     0.002 C 
HETATM   46  C23 UNL     1      18.774  25.795  11.350  1.00  0.00     0.020 C 
HETATM   47  C24 UNL     1      17.671  26.187  12.280  1.00  0.00     0.124 C 
ENDBRANCH  38  41
ENDBRANCH  27  38
ENDBRANCH  25  27
ENDBRANCH   1  25
TORSDOF 18
ENDMDL
MODEL 2
REMARK VINA RESULT: -8.245248175      0.993      1.584
REMARK  18 active torsions:
REMARK  status: ('A' for Active; 'I' for Inactive)
REMARK    1  A    between atoms: C2_2  and  O1_3 
REMARK    2  A    between atoms: O1_3  and  C3_4 
REMARK    3  A    between atoms: C3_4  and  C4_6 
REMARK    4  A    between atoms: C4_6  and  C5_7 
REMARK    5  A    between atoms: C5_7  and  N1_8 
REMARK    6  A    between atoms: C5_7  and  C30_44 
REMARK       I    between atoms: N1_8  and  C6_10 
REMARK    7  A    between atoms: C6_10  and  C7_12 
REMARK    8  A    between atoms: C7_12  and  C8_13 
REMARK    9  A    between atoms: C7_12  and  N5_37 
REMARK   10  A    between atoms: C8_13  and  N2_14 
REMARK   11  A    between atoms: N2_14  and  C9_16 
REMARK   12  A    between atoms: C9_16  and  C11_18 
REMARK   13  A    between atoms: C9_16  and  C18_27 
REMARK   14  A    between atoms: C11_18  and  C12_19 
REMARK   15  A    between atoms: C12_19  and  C13_20 
REMARK   16  A    between atoms: C13_20  and  N3_21 
REMARK   17  A    between atoms: C18_27  and  O4_28 
REMARK   18  A    between atoms: C18_27  and  N4_30 
ROOT
HETATM    1  C8  UNL     1      20.069  30.763  15.357  1.00  0.00     0.149 C 
ENDROOT
BRANCH   1   2
HETATM    2  C7  UNL     1      19.967  32.265  15.570  1.00  0.00     0.190 C 
BRANCH   2   3
HETATM    3  C6  UNL     1      18.777  32.579  16.311  1.00  0.00     0.245 C 
HETATM    4  N1  UNL     1      18.183  33.793  16.620  1.00  0.00    -0.331 N 
ATOM      5  H1  UNL     1      18.636  34.648  16.299  1.00  0.00     0.168 HD
HETATM    6  O3  UNL     1      18.162  31.541  16.761  1.00  0.00    -0.271 OA
BRANCH   4   7
HETATM    7  C5  UNL     1      16.967  33.911  17.367  1.00  0.00     0.006 C 
BRANCH   7   8
HETATM    8  C4  UNL     1      17.036  34.720  18.607  1.00  0.00     0.164 C 
BRANCH   8   9
HETATM    9  C3  UNL     1      18.292  35.378  18.924  1.00  0.00     0.264 C 
HETATM   10  O2  UNL     1      19.152  34.858  19.642  1.00  0.00    -0.265 OA
BRANCH   9  11
HETATM   11  O1  UNL     1      18.564  36.652  18.403  1.00  0.00    -0.322 OA
BRANCH  11  12
HETATM   12  C2  UNL     1      17.549  37.611  18.475  1.00  0.00     0.174 C 
HETATM   13  C1  UNL     1      17.155  38.021  17.073  1.00  0.00     0.034 C 
ENDBRANCH  11  12
ENDBRANCH   9  11
ENDBRANCH   8   9
ENDBRANCH   7   8
BRANCH   7  14
HETATM   14  C30 UNL     1      15.727  34.088  16.534  1.00  0.00    -0.012 C 
HETATM   15  C31 UNL     1      14.685  34.919  17.247  1.00  0.00     0.021 C 
HETATM   16  C32 UNL     1      16.134  34.923  15.307  1.00  0.00     0.021 C 
HETATM   17  C33 UNL     1      15.107  32.850  16.001  1.00  0.00     0.021 C 
ENDBRANCH   7  14
ENDBRANCH   4   7
ENDBRANCH   2   3
BRANCH   2  18
HETATM   18  N5  UNL     1      21.209  32.757  15.909  1.00  0.00    -0.391 N 
HETATM   19  C25 UNL     1      21.342  34.179  15.831  1.00  0.00     0.144 C 
HETATM   20  C26 UNL     1      22.079  34.687  17.045  1.00  0.00     0.187 C 
HETATM   21  O5  UNL     1      22.679  33.693  17.773  1.00  0.00    -0.388 OA
HETATM   22  C27 UNL     1      23.328  32.753  17.011  1.00  0.00     0.192 C 
HETATM   23  C28 UNL     1      22.409  32.099  15.964  1.00  0.00     0.099 C 
HETATM   24  C29 UNL     1      23.134  32.236  14.639  1.00  0.00     0.034 C 
ENDBRANCH   2  18
ENDBRANCH   1   2
BRANCH   1  25
HETATM   25  N2  UNL     1      19.567  30.338  14.104  1.00  0.00    -0.404 N 
ATOM     26  H2  UNL     1      18.985  30.947  13.530  1.00  0.00     0.154 HD
BRANCH  25  27
HETATM   27  C9  UNL     1      19.917  28.997  13.670  1.00  0.00     0.087 C 
HETATM   28  C10 UNL     1      21.089  28.467  14.429  1.00  0.00     0.047 C 
BRANCH  27  29
HETATM   29  C11 UNL     1      20.412  29.209  12.205  1.00  0.00     0.044 C 
BRANCH  29  30
HETATM   30  C12 UNL     1      21.702  28.531  11.980  1.00  0.00     0.047 C 
BRANCH  30  31
HETATM   31  C13 UNL     1      21.629  27.383  11.054  1.00  0.00     0.058 C 
BRANCH  31  32
HETATM   32  N3  UNL     1      22.721  26.557  10.809  1.00  0.00    -0.392 N 
HETATM   33  C14 UNL     1      23.733  26.331  11.753  1.00  0.00     0.132 C 
HETATM   34  C15 UNL     1      25.121  26.507  11.130  1.00  0.00     0.093 C 
HETATM   35  S1  UNL     1      25.025  25.729   9.495  1.00  0.00    -0.166 SA
HETATM   36  C16 UNL     1      23.578  24.633   9.541  1.00  0.00     0.093 C 
HETATM   37  C17 UNL     1      22.395  25.482   9.935  1.00  0.00     0.132 C 
ENDBRANCH  31  32
ENDBRANCH  30  31
ENDBRANCH  29  30
ENDBRANCH  27  29
BRANCH  27  38
HETATM   38  C18 UNL     1      18.765  28.094  13.624  1.00  0.00     0.141 C 
BRANCH  38  39
HETATM   39  O4  UNL     1      18.525  27.411  14.721  1.00  0.00    -0.348 OA
ATOM     40  H4  UNL     1      18.722  26.482  14.683  1.00  0.00     0.219 HD
ENDBRANCH  38  39
BRANCH  38  41
HETATM   41  N4  UNL     1      17.857  27.826  12.601  1.00  0.00    -0.363 N 
HETATM   42  C19 UNL     1      17.217  28.850  11.867  1.00  0.00     0.124 C 
HETATM   43  C20 UNL     1      16.820  28.357  10.448  1.00  0.00     0.020 C 
HETATM   44  C21 UNL     1      18.066  27.781   9.834  1.00  0.00     0.002 C 
HETATM   45  C22 UNL     1      18.080  26.267   9.900  1.00  0.00     0.002 C 
HETATM   46  C23 UNL     1      18.519  25.844  11.285  1.00  0.00     0.020 C 
HETATM   47  C24 UNL     1      17.625  26.381  12.354  1.00  0.00     0.124 C 
ENDBRANCH  38  41
ENDBRANCH  27  38
ENDBRANCH  25  27
ENDBRANCH   1  25
TORSDOF 18
ENDMDL
MODEL 3
REMARK VINA RESULT: -8.193005180      2.410      4.814
REMARK  18 active torsions:
REMARK  status: ('A' for Active; 'I' for Inactive)
REMARK    1  A    between atoms: C2_2  and  O1_3 
REMARK    2  A    between atoms: O1_3  and  C3_4 
REMARK    3  A    between atoms: C3_4  and  C4_6 
REMARK    4  A    between atoms: C4_6  and  C5_7 
REMARK    5  A    between atoms: C5_7  and  N1_8 
REMARK    6  A    between atoms: C5_7  and  C30_44 
REMARK       I    between atoms: N1_8  and  C6_10 
REMARK    7  A    between atoms: C6_10  and  C7_12 
REMARK    8  A    between atoms: C7_12  and  C8_13 
REMARK    9  A    between atoms: C7_12  and  N5_37 
REMARK   10  A    between atoms: C8_13  and  N2_14 
REMARK   11  A    between atoms: N2_14  and  C9_16 
REMARK   12  A    between atoms: C9_16  and  C11_18 
REMARK   13  A    between atoms: C9_16  and  C18_27 
REMARK   14  A    between atoms: C11_18  and  C12_19 
REMARK   15  A    between atoms: C12_19  and  C13_20 
REMARK   16  A    between atoms: C13_20  and  N3_21 
REMARK   17  A    between atoms: C18_27  and  O4_28 
REMARK   18  A    between atoms: C18_27  and  N4_30 
ROOT
HETATM    1  C8  UNL     1      21.234  34.880  17.176  1.00  0.00     0.149 C 
ENDROOT
BRANCH   1   2
HETATM    2  C7  UNL     1      20.474  36.192  17.270  1.00  0.00     0.190 C 
BRANCH   2   3
HETATM    3  C6  UNL     1      19.182  35.975  17.861  1.00  0.00     0.245 C 
HETATM    4  N1  UNL     1      17.976  36.638  17.699  1.00  0.00    -0.331 N 
ATOM      5  H1  UNL     1      17.946  37.439  17.068  1.00  0.00     0.168 HD
HETATM    6  O3  UNL     1      19.153  34.984  18.684  1.00  0.00    -0.271 OA
BRANCH   4   7
HETATM    7  C5  UNL     1      16.769  36.260  18.370  1.00  0.00     0.006 C 
BRANCH   7   8
HETATM    8  C4  UNL     1      16.104  37.318  19.166  1.00  0.00     0.164 C 
BRANCH   8   9
HETATM    9  C3  UNL     1      16.481  38.699  18.917  1.00  0.00     0.264 C 
HETATM   10  O2  UNL     1      17.245  39.323  19.660  1.00  0.00    -0.265 OA
BRANCH   9  11
HETATM   11  O1  UNL     1      15.972  39.370  17.795  1.00  0.00    -0.322 OA
BRANCH  11  12
HETATM   12  C2  UNL     1      16.890  39.873  16.869  1.00  0.00     0.174 C 
HETATM   13  C1  UNL     1      16.680  41.364  16.721  1.00  0.00     0.034 C 
ENDBRANCH  11  12
ENDBRANCH   9  11
ENDBRANCH   8   9
ENDBRANCH   7   8
BRANCH   7  14
HETATM   14  C30 UNL     1      15.858  35.362  17.578  1.00  0.00    -0.012 C 
HETATM   15  C31 UNL     1      15.853  33.950  18.117  1.00  0.00     0.021 C 
HETATM   16  C32 UNL     1      14.426  35.880  17.798  1.00  0.00     0.021 C 
HETATM   17  C33 UNL     1      16.066  35.340  16.109  1.00  0.00     0.021 C 
ENDBRANCH   7  14
ENDBRANCH   4   7
ENDBRANCH   2   3
BRANCH   2  18
HETATM   18  N5  UNL     1      21.333  37.181  17.699  1.00  0.00    -0.391 N 
HETATM   19  C25 UNL     1      21.777  37.058  19.052  1.00  0.00     0.144 C 
HETATM   20  C26 UNL     1      23.258  37.332  19.127  1.00  0.00     0.187 C 
HETATM   21  O5  UNL     1      23.767  37.893  17.985  1.00  0.00    -0.388 OA
HETATM   22  C27 UNL     1      22.985  38.888  17.452  1.00  0.00     0.192 C 
HETATM   23  C28 UNL     1      21.546  38.425  17.165  1.00  0.00     0.099 C 
HETATM   24  C29 UNL     1      20.645  39.438  17.845  1.00  0.00     0.034 C 
ENDBRANCH   2  18
ENDBRANCH   1   2
BRANCH   1  25
HETATM   25  N2  UNL     1      21.301  34.362  15.861  1.00  0.00    -0.404 N 
ATOM     26  H2  UNL     1      21.056  34.932  15.052  1.00  0.00     0.154 HD
BRANCH  25  27
HETATM   27  C9  UNL     1      21.733  32.983  15.713  1.00  0.00     0.087 C 
HETATM   28  C10 UNL     1      23.202  32.845  15.942  1.00  0.00     0.047 C 
BRANCH  27  29
HETATM   29  C11 UNL     1      21.504  32.694  14.195  1.00  0.00     0.044 C 
BRANCH  29  30
HETATM   30  C12 UNL     1      22.030  31.367  13.825  1.00  0.00     0.047 C 
BRANCH  30  31
HETATM   31  C13 UNL     1      21.315  30.725  12.704  1.00  0.00     0.058 C 
BRANCH  31  32
HETATM   32  N3  UNL     1      21.427  29.365  12.435  1.00  0.00    -0.392 N 
HETATM   33  C14 UNL     1      22.144  28.482  13.255  1.00  0.00     0.132 C 
HETATM   34  C15 UNL     1      23.088  27.602  12.431  1.00  0.00     0.093 C 
HETATM   35  S1  UNL     1      22.148  27.127  10.954  1.00  0.00    -0.166 SA
HETATM   36  C16 UNL     1      20.400  27.408  11.357  1.00  0.00     0.093 C 
HETATM   37  C17 UNL     1      20.272  28.851  11.780  1.00  0.00     0.132 C 
ENDBRANCH  31  32
ENDBRANCH  30  31
ENDBRANCH  29  30
ENDBRANCH  27  29
BRANCH  27  38
HETATM   38  C18 UNL     1      20.908  32.042  16.473  1.00  0.00     0.141 C 
BRANCH  38  39
HETATM   39  O4  UNL     1      21.516  31.398  17.444  1.00  0.00    -0.348 OA
ATOM     40  H4  UNL     1      21.050  31.356  18.271  1.00  0.00     0.219 HD
ENDBRANCH  38  39
BRANCH  38  41
HETATM   41  N4  UNL     1      19.562  31.702  16.348  1.00  0.00    -0.363 N 
HETATM   42  C19 UNL     1      18.569  32.647  16.003  1.00  0.00     0.124 C 
HETATM   43  C20 UNL     1      17.363  31.961  15.304  1.00  0.00     0.020 C 
HETATM   44  C21 UNL     1      17.932  31.154  14.170  1.00  0.00     0.002 C 
HETATM   45  C22 UNL     1      18.029  29.682  14.517  1.00  0.00     0.002 C 
HETATM   46  C23 UNL     1      19.273  29.461  15.351  1.00  0.00     0.020 C 
HETATM   47  C24 UNL     1      19.268  30.270  16.606  1.00  0.00     0.124 C 
ENDBRANCH  38  41
ENDBRANCH  27  38
ENDBRANCH  25  27
ENDBRANCH   1  25
TORSDOF 18
ENDMDL
MODEL 4
REMARK VINA RESULT: -8.142110721      1.381      2.610
REMARK  18 active torsions:
REMARK  status: ('A' for Active; 'I' for Inactive)
REMARK    1  A    between atoms: C2_2  and  O1_3 
REMARK    2  A    between atoms: O1_3  and  C3_4 
REMARK    3  A    between atoms: C3_4  and  C4_6 
REMARK    4  A    between atoms: C4_6  and  C5_7 
REMARK    5  A    between atoms: C5_7  and  N1_8 
REMARK    6  A    between atoms: C5_7  and  C30_44 
REMARK       I    between atoms: N1_8  and  C6_10 
REMARK    7  A    between atoms: C6_10  and  C7_12 
REMARK    8  A    between atoms: C7_12  and  C8_13 
REMARK    9  A    between atoms: C7_12  and  N5_37 
REMARK   10  A    between atoms: C8_13  and  N2_14 
REMARK   11  A    between atoms: N2_14  and  C9_16 
REMARK   12  A    between atoms: C9_16  and  C11_18 
REMARK   13  A    between atoms: C9_16  and  C18_27 
REMARK   14  A    between atoms: C11_18  and  C12_19 
REMARK   15  A    between atoms: C12_19  and  C13_20 
REMARK   16  A    between atoms: C13_20  and  N3_21 
REMARK   17  A    between atoms: C18_27  and  O4_28 
REMARK   18  A    between atoms: C18_27  and  N4_30 
ROOT
HETATM    1  C8  UNL     1      19.406  31.771  15.290  1.00  0.00     0.149 C 
ENDROOT
BRANCH   1   2
HETATM    2  C7  UNL     1      19.745  33.252  15.266  1.00  0.00     0.190 C 
BRANCH   2   3
HETATM    3  C6  UNL     1      18.554  34.035  15.451  1.00  0.00     0.245 C 
HETATM    4  N1  UNL     1      18.074  34.728  16.550  1.00  0.00    -0.331 N 
ATOM      5  H1  UNL     1      18.618  34.702  17.413  1.00  0.00     0.168 HD
HETATM    6  O3  UNL     1      17.811  34.096  14.400  1.00  0.00    -0.271 OA
BRANCH   4   7
HETATM    7  C5  UNL     1      16.855  35.479  16.541  1.00  0.00     0.006 C 
BRANCH   7   8
HETATM    8  C4  UNL     1      15.600  34.690  16.549  1.00  0.00     0.164 C 
BRANCH   8   9
HETATM    9  C3  UNL     1      15.463  33.635  17.538  1.00  0.00     0.264 C 
HETATM   10  O2  UNL     1      15.638  33.829  18.745  1.00  0.00    -0.265 OA
BRANCH   9  11
HETATM   11  O1  UNL     1      15.117  32.338  17.132  1.00  0.00    -0.322 OA
BRANCH  11  12
HETATM   12  C2  UNL     1      15.628  31.882  15.913  1.00  0.00     0.174 C 
HETATM   13  C1  UNL     1      16.635  30.784  16.177  1.00  0.00     0.034 C 
ENDBRANCH  11  12
ENDBRANCH   9  11
ENDBRANCH   8   9
ENDBRANCH   7   8
BRANCH   7  14
HETATM   14  C30 UNL     1      16.863  36.711  17.405  1.00  0.00    -0.012 C 
HETATM   15  C31 UNL     1      15.518  36.955  18.049  1.00  0.00     0.021 C 
HETATM   16  C32 UNL     1      17.822  36.424  18.575  1.00  0.00     0.021 C 
HETATM   17  C33 UNL     1      17.352  37.959  16.770  1.00  0.00     0.021 C 
ENDBRANCH   7  14
ENDBRANCH   4   7
ENDBRANCH   2   3
BRANCH   2  18
HETATM   18  N5  UNL     1      20.897  33.463  15.992  1.00  0.00    -0.391 N 
HETATM   19  C25 UNL     1      21.290  34.831  16.125  1.00  0.00     0.144 C 
HETATM   20  C26 UNL     1      21.712  35.102  17.548  1.00  0.00     0.187 C 
HETATM   21  O5  UNL     1      21.890  33.963  18.289  1.00  0.00    -0.388 OA
HETATM   22  C27 UNL     1      22.562  32.964  17.630  1.00  0.00     0.192 C 
HETATM   23  C28 UNL     1      21.894  32.576  16.299  1.00  0.00     0.099 C 
HETATM   24  C29 UNL     1      22.991  32.651  15.253  1.00  0.00     0.034 C 
ENDBRANCH   2  18
ENDBRANCH   1   2
BRANCH   1  25
HETATM   25  N2  UNL     1      19.332  31.189  14.002  1.00  0.00    -0.404 N 
ATOM     26  H2  UNL     1      18.897  31.680  13.222  1.00  0.00     0.154 HD
BRANCH  25  27
HETATM   27  C9  UNL     1      19.902  29.864  13.839  1.00  0.00     0.087 C 
HETATM   28  C10 UNL     1      21.089  29.668  14.724  1.00  0.00     0.047 C 
BRANCH  27  29
HETATM   29  C11 UNL     1      20.453  29.885  12.378  1.00  0.00     0.044 C 
BRANCH  29  30
HETATM   30  C12 UNL     1      21.667  29.056  12.260  1.00  0.00     0.047 C 
BRANCH  30  31
HETATM   31  C13 UNL     1      21.585  28.007  11.223  1.00  0.00     0.058 C 
BRANCH  31  32
HETATM   32  N3  UNL     1      22.583  27.054  11.053  1.00  0.00    -0.392 N 
HETATM   33  C14 UNL     1      23.682  26.938  11.915  1.00  0.00     0.132 C 
HETATM   34  C15 UNL     1      24.996  26.855  11.132  1.00  0.00     0.093 C 
HETATM   35  S1  UNL     1      24.654  25.767   9.721  1.00  0.00    -0.166 SA
HETATM   36  C16 UNL     1      23.154  24.839  10.152  1.00  0.00     0.093 C 
HETATM   37  C17 UNL     1      22.085  25.854  10.470  1.00  0.00     0.132 C 
ENDBRANCH  31  32
ENDBRANCH  30  31
ENDBRANCH  29  30
ENDBRANCH  27  29
BRANCH  27  38
HETATM   38  C18 UNL     1      18.901  28.798  13.921  1.00  0.00     0.141 C 
BRANCH  38  39
HETATM   39  O4  UNL     1      18.939  28.056  15.005  1.00  0.00    -0.348 OA
ATOM     40  H4  UNL     1      19.509  27.296  14.969  1.00  0.00     0.219 HD
ENDBRANCH  38  39
BRANCH  38  41
HETATM   41  N4  UNL     1      17.891  28.425  13.035  1.00  0.00    -0.363 N 
HETATM   42  C19 UNL     1      17.183  29.365  12.253  1.00  0.00     0.124 C 
HETATM   43  C20 UNL     1      16.640  28.713  10.951  1.00  0.00     0.020 C 
HETATM   44  C21 UNL     1      17.815  28.048  10.287  1.00  0.00     0.002 C 
HETATM   45  C22 UNL     1      17.830  26.553  10.532  1.00  0.00     0.002 C 
HETATM   46  C23 UNL     1      18.407  26.290  11.906  1.00  0.00     0.020 C 
HETATM   47  C24 UNL     1      17.630  26.965  12.989  1.00  0.00     0.124 C 
ENDBRANCH  38  41
ENDBRANCH  27  38
ENDBRANCH  25  27
ENDBRANCH   1  25
TORSDOF 18
ENDMDL
MODEL 5
REMARK VINA RESULT: -8.114714212      1.292      4.040
REMARK  18 active torsions:
REMARK  status: ('A' for Active; 'I' for Inactive)
REMARK    1  A    between atoms: C2_2  and  O1_3 
REMARK    2  A    between atoms: O1_3  and  C3_4 
REMARK    3  A    between atoms: C3_4  and  C4_6 
REMARK    4  A    between atoms: C4_6  and  C5_7 
REMARK    5  A    between atoms: C5_7  and  N1_8 
REMARK    6  A    between atoms: C5_7  and  C30_44 
REMARK       I    between atoms: N1_8  and  C6_10 
REMARK    7  A    between atoms: C6_10  and  C7_12 
REMARK    8  A    between atoms: C7_12  and  C8_13 
REMARK    9  A    between atoms: C7_12  and  N5_37 
REMARK   10  A    between atoms: C8_13  and  N2_14 
REMARK   11  A    between atoms: N2_14  and  C9_16 
REMARK   12  A    between atoms: C9_16  and  C11_18 
REMARK   13  A    between atoms: C9_16  and  C18_27 
REMARK   14  A    between atoms: C11_18  and  C12_19 
REMARK   15  A    between atoms: C12_19  and  C13_20 
REMARK   16  A    between atoms: C13_20  and  N3_21 
REMARK   17  A    between atoms: C18_27  and  O4_28 
REMARK   18  A    between atoms: C18_27  and  N4_30 
ROOT
HETATM    1  C8  UNL     1      17.801  30.782  15.003  1.00  0.00     0.149 C 
ENDROOT
BRANCH   1   2
HETATM    2  C7  UNL     1      18.085  31.894  16.000  1.00  0.00     0.190 C 
BRANCH   2   3
HETATM    3  C6  UNL     1      19.368  32.484  15.732  1.00  0.00     0.245 C 
HETATM    4  N1  UNL     1      20.556  32.458  16.445  1.00  0.00    -0.331 N 
ATOM      5  H1  UNL     1      20.577  31.953  17.331  1.00  0.00     0.168 HD
HETATM    6  O3  UNL     1      19.406  33.151  14.631  1.00  0.00    -0.271 OA
BRANCH   4   7
HETATM    7  C5  UNL     1      21.756  33.100  16.004  1.00  0.00     0.006 C 
BRANCH   7   8
HETATM    8  C4  UNL     1      22.438  33.965  16.996  1.00  0.00     0.164 C 
BRANCH   8   9
HETATM    9  C3  UNL     1      21.626  34.608  18.014  1.00  0.00     0.264 C 
HETATM   10  O2  UNL     1      21.988  34.705  19.191  1.00  0.00    -0.265 OA
BRANCH   9  11
HETATM   11  O1  UNL     1      20.379  35.152  17.671  1.00  0.00    -0.322 OA
BRANCH  11  12
HETATM   12  C2  UNL     1      19.363  35.100  18.629  1.00  0.00     0.174 C 
HETATM   13  C1  UNL     1      18.526  36.357  18.534  1.00  0.00     0.034 C 
ENDBRANCH  11  12
ENDBRANCH   9  11
ENDBRANCH   8   9
ENDBRANCH   7   8
BRANCH   7  14
HETATM   14  C30 UNL     1      22.653  32.249  15.147  1.00  0.00    -0.012 C 
HETATM   15  C31 UNL     1      22.368  32.437  13.675  1.00  0.00     0.021 C 
HETATM   16  C32 UNL     1      24.086  32.775  15.348  1.00  0.00     0.021 C 
HETATM   17  C33 UNL     1      22.698  30.802  15.471  1.00  0.00     0.021 C 
ENDBRANCH   7  14
ENDBRANCH   4   7
ENDBRANCH   2   3
BRANCH   2  18
HETATM   18  N5  UNL     1      16.942  32.643  16.177  1.00  0.00    -0.391 N 
HETATM   19  C25 UNL     1      15.715  31.949  15.934  1.00  0.00     0.144 C 
HETATM   20  C26 UNL     1      14.721  32.279  17.019  1.00  0.00     0.187 C 
HETATM   21  O5  UNL     1      15.099  33.342  17.798  1.00  0.00    -0.388 OA
HETATM   22  C27 UNL     1      15.610  34.402  17.091  1.00  0.00     0.192 C 
HETATM   23  C28 UNL     1      16.802  34.005  16.203  1.00  0.00     0.099 C 
HETATM   24  C29 UNL     1      16.467  34.515  14.814  1.00  0.00     0.034 C 
ENDBRANCH   2  18
ENDBRANCH   1   2
BRANCH   1  25
HETATM   25  N2  UNL     1      18.914  30.457  14.192  1.00  0.00    -0.404 N 
ATOM     26  H2  UNL     1      19.363  31.157  13.600  1.00  0.00     0.154 HD
BRANCH  25  27
HETATM   27  C9  UNL     1      19.389  29.086  14.236  1.00  0.00     0.087 C 
HETATM   28  C10 UNL     1      20.116  28.802  15.509  1.00  0.00     0.047 C 
BRANCH  27  29
HETATM   29  C11 UNL     1      20.465  29.040  13.105  1.00  0.00     0.044 C 
BRANCH  29  30
HETATM   30  C12 UNL     1      21.356  27.877  13.271  1.00  0.00     0.047 C 
BRANCH  30  31
HETATM   31  C13 UNL     1      22.671  28.023  12.613  1.00  0.00     0.058 C 
BRANCH  31  32
HETATM   32  N3  UNL     1      23.248  26.996  11.874  1.00  0.00    -0.392 N 
HETATM   33  C14 UNL     1      24.580  26.591  12.042  1.00  0.00     0.132 C 
HETATM   34  C15 UNL     1      25.301  26.482  10.695  1.00  0.00     0.093 C 
HETATM   35  S1  UNL     1      24.109  25.713   9.565  1.00  0.00    -0.166 SA
HETATM   36  C16 UNL     1      22.857  24.921  10.614  1.00  0.00     0.093 C 
HETATM   37  C17 UNL     1      22.303  25.991  11.522  1.00  0.00     0.132 C 
ENDBRANCH  31  32
ENDBRANCH  30  31
ENDBRANCH  29  30
ENDBRANCH  27  29
BRANCH  27  38
HETATM   38  C18 UNL     1      18.350  28.111  13.899  1.00  0.00     0.141 C 
BRANCH  38  39
HETATM   39  O4  UNL     1      17.929  27.354  14.887  1.00  0.00    -0.348 OA
ATOM     40  H4  UNL     1      18.583  26.794  15.289  1.00  0.00     0.219 HD
ENDBRANCH  38  39
BRANCH  38  41
HETATM   41  N4  UNL     1      17.713  27.839  12.689  1.00  0.00    -0.363 N 
HETATM   42  C19 UNL     1      17.268  28.859  11.819  1.00  0.00     0.124 C 
HETATM   43  C20 UNL     1      17.220  28.360  10.349  1.00  0.00     0.020 C 
HETATM   44  C21 UNL     1      18.577  27.782  10.053  1.00  0.00     0.002 C 
HETATM   45  C22 UNL     1      18.573  26.268  10.126  1.00  0.00     0.002 C 
HETATM   46  C23 UNL     1      18.668  25.851  11.577  1.00  0.00     0.020 C 
HETATM   47  C24 UNL     1      17.545  26.393  12.400  1.00  0.00     0.124 C 
ENDBRANCH  38  41
ENDBRANCH  27  38
ENDBRANCH  25  27
ENDBRANCH   1  25
TORSDOF 18
ENDMDL
