MODEL 1
REMARK VINA RESULT: -8.024802261      0.000      0.000
REMARK  6 active torsions:
REMARK  status: ('A' for Active; 'I' for Inactive)
REMARK       I    between atoms: N2_4  and  C1_6 
REMARK    1  A    between atoms: N4_8  and  C2_10 
REMARK    2  A    between atoms: C2_10  and  C3_11 
REMARK    3  A    between atoms: C3_11  and  C4_12 
REMARK    4  A    between atoms: C4_12  and  O1_13 
REMARK    5  A    between atoms: O1_13  and  C5_14 
REMARK    6  A    between atoms: C8_26  and  N10_27 
ROOT
HETATM    1  C5  UNL     1      17.166  46.155  47.630  1.00  0.00     0.158 A 
HETATM    2  C6  UNL     1      16.584  47.403  47.705  1.00  0.00     0.169 A 
HETATM    3  N5  UNL     1      15.187  47.693  47.901  1.00  0.00    -0.078 NA
HETATM    4  N6  UNL     1      17.585  48.282  47.557  1.00  0.00    -0.262 N 
ATOM      5  H6  UNL     1      17.463  49.294  47.569  1.00  0.00     0.189 HD
HETATM    6  N7  UNL     1      18.758  47.677  47.393  1.00  0.00    -0.065 N 
HETATM    7  C7  UNL     1      20.020  48.170  47.211  1.00  0.00     0.713 A 
HETATM    8  N8  UNL     1      20.190  49.443  47.179  1.00  0.00    -0.232 N 
ATOM      9  H81 UNL     1      21.131  49.812  47.043  1.00  0.00     0.174 HD
ATOM     10  H82 UNL     1      19.404  50.085  47.288  1.00  0.00     0.174 HD
HETATM   11  N9  UNL     1      21.052  47.328  47.068  1.00  0.00    -0.021 N 
ATOM     12  H9  UNL     1      21.996  47.688  46.930  1.00  0.00     0.203 HD
HETATM   13  C8  UNL     1      20.828  46.005  47.108  1.00  0.00     0.692 A 
HETATM   14  N11 UNL     1      19.584  45.532  47.288  1.00  0.00    -0.171 N 
ATOM     15  H11 UNL     1      19.438  44.524  47.315  1.00  0.00     0.186 HD
HETATM   16  C9  UNL     1      18.519  46.354  47.435  1.00  0.00     0.197 A 
ENDROOT
BRANCH   1  17
HETATM   17  O1  UNL     1      16.519  44.953  47.730  1.00  0.00    -0.344 OA
BRANCH  17  18
HETATM   18  C4  UNL     1      16.531  43.891  46.833  1.00  0.00     0.177 C 
BRANCH  18  19
HETATM   19  C3  UNL     1      15.286  43.037  46.905  1.00  0.00     0.046 C 
BRANCH  19  20
HETATM   20  C2  UNL     1      14.335  43.360  45.761  1.00  0.00     0.124 C 
BRANCH  20  21
HETATM   21  N4  UNL     1      13.310  44.233  46.298  1.00  0.00    -0.363 N 
HETATM   22  C1  UNL     1      13.320  45.512  46.019  1.00  0.00     0.202 C 
HETATM   23  N2  UNL     1      12.336  46.387  46.527  1.00  0.00    -0.280 N 
HETATM   24  N3  UNL     1      14.341  46.025  45.190  1.00  0.00    -0.062 NA
HETATM   25  N1  UNL     1      12.249  46.565  47.794  1.00  0.00    -0.343 N 
ATOM     26  H2  UNL     1      11.701  46.873  45.893  1.00  0.00     0.189 HD
ATOM     27  H12 UNL     1      12.892  46.072  48.414  1.00  0.00     0.176 HD
ATOM     28  H11 UNL     1      11.538  47.198  48.161  1.00  0.00     0.176 HD
ATOM     29  H4  UNL     1      12.578  43.849  46.895  1.00  0.00     0.162 HD
ENDBRANCH  20  21
ENDBRANCH  19  20
ENDBRANCH  18  19
ENDBRANCH  17  18
ENDBRANCH   1  17
BRANCH  13  30
HETATM   30  N10 UNL     1      21.856  45.224  46.966  1.00  0.00    -0.234 N 
ATOM     31 2H10 UNL     1      22.385  45.170  46.096  1.00  0.00     0.174 HD
ATOM     32 1H10 UNL     1      22.123  44.655  47.770  1.00  0.00     0.174 HD
ENDBRANCH  13  30
TORSDOF 6
ENDMDL
MODEL 2
REMARK VINA RESULT: -7.926662522      2.505      6.852
REMARK  6 active torsions:
REMARK  status: ('A' for Active; 'I' for Inactive)
REMARK       I    between atoms: N2_4  and  C1_6 
REMARK    1  A    between atoms: N4_8  and  C2_10 
REMARK    2  A    between atoms: C2_10  and  C3_11 
REMARK    3  A    between atoms: C3_11  and  C4_12 
REMARK    4  A    between atoms: C4_12  and  O1_13 
REMARK    5  A    between atoms: O1_13  and  C5_14 
REMARK    6  A    between atoms: C8_26  and  N10_27 
ROOT
HETATM    1  C5  UNL     1      17.312  44.524  48.173  1.00  0.00     0.158 A 
HETATM    2  C6  UNL     1      17.149  44.687  49.533  1.00  0.00     0.169 A 
HETATM    3  N5  UNL     1      18.190  44.746  50.525  1.00  0.00    -0.078 NA
HETATM    4  N6  UNL     1      15.826  44.775  49.734  1.00  0.00    -0.262 N 
ATOM      5  H6  UNL     1      15.395  44.900  50.649  1.00  0.00     0.189 HD
HETATM    6  N7  UNL     1      15.143  44.679  48.597  1.00  0.00    -0.065 N 
HETATM    7  C7  UNL     1      13.802  44.717  48.334  1.00  0.00     0.713 A 
HETATM    8  N8  UNL     1      12.982  44.868  49.312  1.00  0.00    -0.232 N 
ATOM      9  H81 UNL     1      11.981  44.896  49.117  1.00  0.00     0.174 HD
ATOM     10  H82 UNL     1      13.315  44.961  50.272  1.00  0.00     0.174 HD
HETATM   11  N9  UNL     1      13.365  44.594  47.074  1.00  0.00    -0.021 N 
ATOM     12  H9  UNL     1      12.366  44.619  46.870  1.00  0.00     0.203 HD
HETATM   13  C8  UNL     1      14.257  44.438  46.083  1.00  0.00     0.692 A 
HETATM   14  N11 UNL     1      15.571  44.404  46.353  1.00  0.00    -0.171 N 
ATOM     15  H11 UNL     1      16.230  44.284  45.585  1.00  0.00     0.186 HD
HETATM   16  C9  UNL     1      16.048  44.523  47.614  1.00  0.00     0.197 A 
ENDROOT
BRANCH   1  17
HETATM   17  O1  UNL     1      18.502  44.390  47.511  1.00  0.00    -0.344 OA
BRANCH  17  18
HETATM   18  C4  UNL     1      19.185  45.345  46.765  1.00  0.00     0.177 C 
BRANCH  18  19
HETATM   19  C3  UNL     1      19.357  46.657  47.495  1.00  0.00     0.046 C 
BRANCH  19  20
HETATM   20  C2  UNL     1      20.755  46.776  48.084  1.00  0.00     0.124 C 
BRANCH  20  21
HETATM   21  N4  UNL     1      21.014  45.548  48.811  1.00  0.00    -0.363 N 
HETATM   22  C1  UNL     1      21.359  45.589  50.072  1.00  0.00     0.202 C 
HETATM   23  N2  UNL     1      21.618  44.412  50.807  1.00  0.00    -0.280 N 
HETATM   24  N3  UNL     1      21.475  46.843  50.712  1.00  0.00    -0.062 NA
HETATM   25  N1  UNL     1      22.599  43.662  50.462  1.00  0.00    -0.343 N 
ATOM     26  H2  UNL     1      21.032  44.161  51.602  1.00  0.00     0.189 HD
ATOM     27  H12 UNL     1      23.176  43.927  49.664  1.00  0.00     0.176 HD
ATOM     28  H11 UNL     1      22.786  42.811  50.993  1.00  0.00     0.176 HD
ATOM     29  H4  UNL     1      20.927  44.650  48.337  1.00  0.00     0.162 HD
ENDBRANCH  20  21
ENDBRANCH  19  20
ENDBRANCH  18  19
ENDBRANCH  17  18
ENDBRANCH   1  17
BRANCH  13  30
HETATM   30  N10 UNL     1      13.791  44.324  44.877  1.00  0.00    -0.234 N 
ATOM     31 2H10 UNL     1      14.282  44.695  44.063  1.00  0.00     0.174 HD
ATOM     32 1H10 UNL     1      12.899  43.841  44.765  1.00  0.00     0.174 HD
ENDBRANCH  13  30
TORSDOF 6
ENDMDL
MODEL 3
REMARK VINA RESULT: -7.805452123      1.662      6.403
REMARK  6 active torsions:
REMARK  status: ('A' for Active; 'I' for Inactive)
REMARK       I    between atoms: N2_4  and  C1_6 
REMARK    1  A    between atoms: N4_8  and  C2_10 
REMARK    2  A    between atoms: C2_10  and  C3_11 
REMARK    3  A    between atoms: C3_11  and  C4_12 
REMARK    4  A    between atoms: C4_12  and  O1_13 
REMARK    5  A    between atoms: O1_13  and  C5_14 
REMARK    6  A    between atoms: C8_26  and  N10_27 
ROOT
HETATM    1  C5  UNL     1      16.960  44.761  47.384  1.00  0.00     0.158 A 
HETATM    2  C6  UNL     1      17.081  44.638  46.015  1.00  0.00     0.169 A 
HETATM    3  N5  UNL     1      18.281  44.333  45.280  1.00  0.00    -0.078 NA
HETATM    4  N6  UNL     1      15.857  44.861  45.519  1.00  0.00    -0.262 N 
ATOM      5  H6  UNL     1      15.631  44.838  44.525  1.00  0.00     0.189 HD
HETATM    6  N7  UNL     1      14.970  45.118  46.477  1.00  0.00    -0.065 N 
HETATM    7  C7  UNL     1      13.633  45.397  46.429  1.00  0.00     0.713 A 
HETATM    8  N8  UNL     1      13.048  45.439  45.286  1.00  0.00    -0.232 N 
ATOM      9  H81 UNL     1      12.050  45.648  45.250  1.00  0.00     0.174 HD
ATOM     10  H82 UNL     1      13.562  45.268  44.422  1.00  0.00     0.174 HD
HETATM   11  N9  UNL     1      12.957  45.622  47.564  1.00  0.00    -0.021 N 
ATOM     12  H9  UNL     1      11.960  45.833  47.537  1.00  0.00     0.203 HD
HETATM   13  C8  UNL     1      13.609  45.567  48.736  1.00  0.00     0.692 A 
HETATM   14  N11 UNL     1      14.922  45.292  48.770  1.00  0.00    -0.171 N 
ATOM     15  H11 UNL     1      15.397  45.256  49.672  1.00  0.00     0.186 HD
HETATM   16  C9  UNL     1      15.636  45.060  47.644  1.00  0.00     0.197 A 
ENDROOT
BRANCH   1  17
HETATM   17  O1  UNL     1      17.964  44.614  48.302  1.00  0.00    -0.344 OA
BRANCH  17  18
HETATM   18  C4  UNL     1      18.399  45.527  49.257  1.00  0.00     0.177 C 
BRANCH  18  19
HETATM   19  C3  UNL     1      19.855  45.899  49.102  1.00  0.00     0.046 C 
BRANCH  19  20
HETATM   20  C2  UNL     1      20.235  46.025  47.634  1.00  0.00     0.124 C 
BRANCH  20  21
HETATM   21  N4  UNL     1      20.777  47.357  47.451  1.00  0.00    -0.363 N 
HETATM   22  C1  UNL     1      19.990  48.351  47.129  1.00  0.00     0.202 C 
HETATM   23  N2  UNL     1      20.489  49.659  46.942  1.00  0.00    -0.280 N 
HETATM   24  N3  UNL     1      18.609  48.108  46.965  1.00  0.00    -0.062 NA
HETATM   25  N1  UNL     1      21.321  49.883  45.993  1.00  0.00    -0.343 N 
ATOM     26  H2  UNL     1      20.190  50.417  47.556  1.00  0.00     0.189 HD
ATOM     27  H12 UNL     1      21.609  49.114  45.388  1.00  0.00     0.176 HD
ATOM     28  H11 UNL     1      21.681  50.828  45.858  1.00  0.00     0.176 HD
ATOM     29  H4  UNL     1      21.777  47.519  47.573  1.00  0.00     0.162 HD
ENDBRANCH  20  21
ENDBRANCH  19  20
ENDBRANCH  18  19
ENDBRANCH  17  18
ENDBRANCH   1  17
BRANCH  13  30
HETATM   30  N10 UNL     1      12.916  45.791  49.811  1.00  0.00    -0.234 N 
ATOM     31 2H10 UNL     1      12.003  46.244  49.789  1.00  0.00     0.174 HD
ATOM     32 1H10 UNL     1      13.323  45.492  50.698  1.00  0.00     0.174 HD
ENDBRANCH  13  30
TORSDOF 6
ENDMDL
MODEL 4
REMARK VINA RESULT: -7.723358855      1.846      6.672
REMARK  6 active torsions:
REMARK  status: ('A' for Active; 'I' for Inactive)
REMARK       I    between atoms: N2_4  and  C1_6 
REMARK    1  A    between atoms: N4_8  and  C2_10 
REMARK    2  A    between atoms: C2_10  and  C3_11 
REMARK    3  A    between atoms: C3_11  and  C4_12 
REMARK    4  A    between atoms: C4_12  and  O1_13 
REMARK    5  A    between atoms: O1_13  and  C5_14 
REMARK    6  A    between atoms: C8_26  and  N10_27 
ROOT
HETATM    1  C5  UNL     1      17.416  46.493  47.819  1.00  0.00     0.158 A 
HETATM    2  C6  UNL     1      18.148  45.525  48.475  1.00  0.00     0.169 A 
HETATM    3  N5  UNL     1      19.317  45.731  49.290  1.00  0.00    -0.078 NA
HETATM    4  N6  UNL     1      17.547  44.360  48.194  1.00  0.00    -0.262 N 
ATOM      5  H6  UNL     1      17.864  43.456  48.542  1.00  0.00     0.189 HD
HETATM    6  N7  UNL     1      16.487  44.524  47.407  1.00  0.00    -0.065 N 
HETATM    7  C7  UNL     1      15.596  43.631  46.882  1.00  0.00     0.713 A 
HETATM    8  N8  UNL     1      15.738  42.382  47.148  1.00  0.00    -0.232 N 
ATOM      9  H81 UNL     1      15.073  41.716  46.756  1.00  0.00     0.174 HD
ATOM     10  H82 UNL     1      16.499  42.051  47.742  1.00  0.00     0.174 HD
HETATM   11  N9  UNL     1      14.597  44.065  46.102  1.00  0.00    -0.021 N 
ATOM     12  H9  UNL     1      13.928  43.405  45.705  1.00  0.00     0.203 HD
HETATM   13  C8  UNL     1      14.486  45.379  45.850  1.00  0.00     0.692 A 
HETATM   14  N11 UNL     1      15.367  46.247  46.372  1.00  0.00    -0.171 N 
ATOM     15  H11 UNL     1      15.264  47.240  46.167  1.00  0.00     0.186 HD
HETATM   16  C9  UNL     1      16.389  45.843  47.162  1.00  0.00     0.197 A 
ENDROOT
BRANCH   1  17
HETATM   17  O1  UNL     1      17.667  47.838  47.824  1.00  0.00    -0.344 OA
BRANCH  17  18
HETATM   18  C4  UNL     1      18.398  48.581  46.903  1.00  0.00     0.177 C 
BRANCH  18  19
HETATM   19  C3  UNL     1      19.847  48.753  47.294  1.00  0.00     0.046 C 
BRANCH  19  20
HETATM   20  C2  UNL     1      20.729  47.737  46.585  1.00  0.00     0.124 C 
BRANCH  20  21
HETATM   21  N4  UNL     1      21.502  47.061  47.609  1.00  0.00    -0.363 N 
HETATM   22  C1  UNL     1      21.905  45.829  47.427  1.00  0.00     0.202 C 
HETATM   23  N2  UNL     1      22.658  45.145  48.405  1.00  0.00    -0.280 N 
HETATM   24  N3  UNL     1      21.577  45.172  46.221  1.00  0.00    -0.062 NA
HETATM   25  N1  UNL     1      22.130  44.905  49.548  1.00  0.00    -0.343 N 
ATOM     26  H2  UNL     1      23.612  44.844  48.204  1.00  0.00     0.189 HD
ATOM     27  H12 UNL     1      21.175  45.213  49.733  1.00  0.00     0.176 HD
ATOM     28  H11 UNL     1      22.674  44.411  50.255  1.00  0.00     0.176 HD
ATOM     29  H4  UNL     1      21.733  47.548  48.475  1.00  0.00     0.162 HD
ENDBRANCH  20  21
ENDBRANCH  19  20
ENDBRANCH  18  19
ENDBRANCH  17  18
ENDBRANCH   1  17
BRANCH  13  30
HETATM   30  N10 UNL     1      13.503  45.757  45.090  1.00  0.00    -0.234 N 
ATOM     31 2H10 UNL     1      13.575  45.779  44.073  1.00  0.00     0.174 HD
ATOM     32 1H10 UNL     1      12.638  46.038  45.553  1.00  0.00     0.174 HD
ENDBRANCH  13  30
TORSDOF 6
ENDMDL
MODEL 5
REMARK VINA RESULT: -7.722737961      1.262      1.719
REMARK  6 active torsions:
REMARK  status: ('A' for Active; 'I' for Inactive)
REMARK       I    between atoms: N2_4  and  C1_6 
REMARK    1  A    between atoms: N4_8  and  C2_10 
REMARK    2  A    between atoms: C2_10  and  C3_11 
REMARK    3  A    between atoms: C3_11  and  C4_12 
REMARK    4  A    between atoms: C4_12  and  O1_13 
REMARK    5  A    between atoms: O1_13  and  C5_14 
REMARK    6  A    between atoms: C8_26  and  N10_27 
ROOT
HETATM    1  C5  UNL     1      17.223  46.139  47.689  1.00  0.00     0.158 A 
HETATM    2  C6  UNL     1      16.638  47.387  47.629  1.00  0.00     0.169 A 
HETATM    3  N5  UNL     1      15.233  47.686  47.735  1.00  0.00    -0.078 NA
HETATM    4  N6  UNL     1      17.644  48.254  47.451  1.00  0.00    -0.262 N 
ATOM      5  H6  UNL     1      17.520  49.263  47.369  1.00  0.00     0.189 HD
HETATM    6  N7  UNL     1      18.824  47.642  47.394  1.00  0.00    -0.065 N 
HETATM    7  C7  UNL     1      20.092  48.124  47.227  1.00  0.00     0.713 A 
HETATM    8  N8  UNL     1      20.263  49.391  47.093  1.00  0.00    -0.232 N 
ATOM      9  H81 UNL     1      21.209  49.750  46.968  1.00  0.00     0.174 HD
ATOM     10  H82 UNL     1      19.472  50.036  47.109  1.00  0.00     0.174 HD
HETATM   11  N9  UNL     1      21.130  47.278  47.205  1.00  0.00    -0.021 N 
ATOM     12  H9  UNL     1      22.079  47.629  47.079  1.00  0.00     0.203 HD
HETATM   13  C8  UNL     1      20.906  45.962  47.350  1.00  0.00     0.692 A 
HETATM   14  N11 UNL     1      19.656  45.501  47.514  1.00  0.00    -0.171 N 
ATOM     15  H11 UNL     1      19.509  44.498  47.621  1.00  0.00     0.186 HD
HETATM   16  C9  UNL     1      18.584  46.327  47.540  1.00  0.00     0.197 A 
ENDROOT
BRANCH   1  17
HETATM   17  O1  UNL     1      16.573  44.948  47.863  1.00  0.00    -0.344 OA
BRANCH  17  18
HETATM   18  C4  UNL     1      16.237  44.316  49.056  1.00  0.00     0.177 C 
BRANCH  18  19
HETATM   19  C3  UNL     1      15.060  44.954  49.755  1.00  0.00     0.046 C 
BRANCH  19  20
HETATM   20  C2  UNL     1      13.747  44.532  49.111  1.00  0.00     0.124 C 
BRANCH  20  21
HETATM   21  N4  UNL     1      13.633  45.263  47.864  1.00  0.00    -0.363 N 
HETATM   22  C1  UNL     1      13.397  44.627  46.746  1.00  0.00     0.202 C 
HETATM   23  N2  UNL     1      13.281  45.310  45.516  1.00  0.00    -0.280 N 
HETATM   24  N3  UNL     1      13.253  43.223  46.773  1.00  0.00    -0.062 NA
HETATM   25  N1  UNL     1      14.295  45.944  45.054  1.00  0.00    -0.343 N 
ATOM     26  H2  UNL     1      12.401  45.300  45.001  1.00  0.00     0.189 HD
ATOM     27  H12 UNL     1      15.168  45.944  45.581  1.00  0.00     0.176 HD
ATOM     28  H11 UNL     1      14.212  46.438  44.165  1.00  0.00     0.176 HD
ATOM     29  H4  UNL     1      13.739  46.277  47.859  1.00  0.00     0.162 HD
ENDBRANCH  20  21
ENDBRANCH  19  20
ENDBRANCH  18  19
ENDBRANCH  17  18
ENDBRANCH   1  17
BRANCH  13  30
HETATM   30  N10 UNL     1      21.940  45.177  47.323  1.00  0.00    -0.234 N 
ATOM     31 2H10 UNL     1      22.823  45.451  46.895  1.00  0.00     0.174 HD
ATOM     32 1H10 UNL     1      21.838  44.258  47.754  1.00  0.00     0.174 HD
ENDBRANCH  13  30
TORSDOF 6
ENDMDL
