MODEL 1
REMARK VINA RESULT: -5.707107041      0.000      0.000
REMARK  8 active torsions:
REMARK  status: ('A' for Active; 'I' for Inactive)
REMARK    1  A    between atoms: C2_2  and  C3_3 
REMARK    2  A    between atoms: C4_4  and  C5_5 
REMARK       I    between atoms: C5_5  and  N1_7 
REMARK    3  A    between atoms: C18_22  and  C19_23 
REMARK    4  A    between atoms: C19_23  and  C20_24 
REMARK    5  A    between atoms: C20_24  and  O3_25 
REMARK    6  A    between atoms: C22_28  and  N2_29 
REMARK    7  A    between atoms: N2_29  and  S2_31 
REMARK    8  A    between atoms: S2_31  and  N3_32 
ROOT
HETATM    1  C3  UNL     1      79.788  59.910  11.485  1.00  0.00    -0.032 C 
HETATM    2  C4  UNL     1      79.798  60.948  12.381  1.00  0.00     0.046 C 
HETATM    3  C11 UNL     1      80.843  61.208  13.245  1.00  0.00    -0.028 C 
HETATM    4  C12 UNL     1      80.587  62.195  14.276  1.00  0.00     0.050 C 
HETATM    5  C13 UNL     1      82.134  60.651  13.265  1.00  0.00     0.027 A 
HETATM    6  S1  UNL     1      83.475  61.366  14.041  1.00  0.00    -0.093 SA
HETATM    7  C14 UNL     1      84.655  60.206  13.665  1.00  0.00    -0.007 A 
HETATM    8  C15 UNL     1      83.978  59.283  12.940  1.00  0.00    -0.027 A 
HETATM    9  C16 UNL     1      82.646  59.499  12.719  1.00  0.00     0.040 A 
HETATM   10  C17 UNL     1      81.848  58.591  11.983  1.00  0.00     0.191 C 
HETATM   11  O2  UNL     1      82.393  57.486  11.700  1.00  0.00    -0.287 OA
HETATM   12  C18 UNL     1      80.552  58.724  11.519  1.00  0.00     0.002 C 
HETATM   13  C21 UNL     1      84.984  58.199  12.563  1.00  0.00     0.067 C 
HETATM   14  C22 UNL     1      86.324  58.688  12.946  1.00  0.00     0.103 C 
HETATM   15  C23 UNL     1      86.101  59.880  13.841  1.00  0.00     0.073 C 
ENDROOT
BRANCH   2  16
HETATM   16  C5  UNL     1      78.711  61.858  12.496  1.00  0.00     0.254 C 
HETATM   17  O1  UNL     1      77.725  61.380  13.187  1.00  0.00    -0.267 OA
HETATM   18  N1  UNL     1      78.519  63.150  12.001  1.00  0.00    -0.348 N 
HETATM   19  C6  UNL     1      77.252  63.837  12.311  1.00  0.00     0.126 C 
HETATM   20  C10 UNL     1      79.412  63.923  11.179  1.00  0.00     0.126 C 
HETATM   21  C7  UNL     1      77.485  65.059  13.168  1.00  0.00     0.020 C 
HETATM   22  C8  UNL     1      78.750  65.781  12.754  1.00  0.00     0.003 C 
HETATM   23  C9  UNL     1      79.175  65.380  11.357  1.00  0.00     0.020 C 
ENDBRANCH   2  16
BRANCH   1  24
HETATM   24  C2  UNL     1      78.925  60.080  10.325  1.00  0.00     0.036 C 
HETATM   25  C1  UNL     1      79.647  60.692   9.167  1.00  0.00     0.010 C 
ENDBRANCH   1  24
BRANCH  12  26
HETATM   26  C19 UNL     1      79.926  57.504  11.030  1.00  0.00     0.069 C 
BRANCH  26  27
HETATM   27  C20 UNL     1      79.128  56.771  12.086  1.00  0.00     0.168 C 
BRANCH  27  28
HETATM   28  O3  UNL     1      79.912  55.702  12.583  1.00  0.00    -0.401 OA
ATOM     29  H3  UNL     1      79.655  55.530  13.481  1.00  0.00     0.209 HD
ENDBRANCH  27  28
ENDBRANCH  26  27
ENDBRANCH  12  26
BRANCH  14  30
HETATM   30  N2  UNL     1      87.210  58.973  11.851  1.00  0.00    -0.298 N 
ATOM     31  H2  UNL     1      86.855  59.232  10.930  1.00  0.00     0.174 HD
BRANCH  30  32
HETATM   32  S2  UNL     1      88.859  58.861  12.162  1.00  0.00     0.313 S 
HETATM   33  O4  UNL     1      89.113  57.654  13.040  1.00  0.00    -0.183 OA
HETATM   34  O5  UNL     1      89.712  58.686  10.945  1.00  0.00    -0.183 OA
BRANCH  32  35
HETATM   35  N3  UNL     1      89.506  60.230  13.022  1.00  0.00    -0.312 N 
ATOM     36  H32 UNL     1      90.230  60.134  13.734  1.00  0.00     0.170 HD
ATOM     37  H31 UNL     1      89.095  61.122  12.745  1.00  0.00     0.170 HD
ENDBRANCH  32  35
ENDBRANCH  30  32
ENDBRANCH  14  30
TORSDOF 8
ENDMDL
MODEL 2
REMARK VINA RESULT: -5.584096433      3.377      8.575
REMARK  8 active torsions:
REMARK  status: ('A' for Active; 'I' for Inactive)
REMARK    1  A    between atoms: C2_2  and  C3_3 
REMARK    2  A    between atoms: C4_4  and  C5_5 
REMARK       I    between atoms: C5_5  and  N1_7 
REMARK    3  A    between atoms: C18_22  and  C19_23 
REMARK    4  A    between atoms: C19_23  and  C20_24 
REMARK    5  A    between atoms: C20_24  and  O3_25 
REMARK    6  A    between atoms: C22_28  and  N2_29 
REMARK    7  A    between atoms: N2_29  and  S2_31 
REMARK    8  A    between atoms: S2_31  and  N3_32 
ROOT
HETATM    1  C3  UNL     1      84.949  60.022  12.779  1.00  0.00    -0.032 C 
HETATM    2  C4  UNL     1      84.350  58.989  12.105  1.00  0.00     0.046 C 
HETATM    3  C11 UNL     1      83.013  58.968  11.764  1.00  0.00    -0.028 C 
HETATM    4  C12 UNL     1      82.502  57.706  11.264  1.00  0.00     0.050 C 
HETATM    5  C13 UNL     1      82.067  60.006  11.826  1.00  0.00     0.027 A 
HETATM    6  S1  UNL     1      80.601  60.024  10.952  1.00  0.00    -0.093 SA
HETATM    7  C14 UNL     1      79.990  61.517  11.477  1.00  0.00    -0.007 A 
HETATM    8  C15 UNL     1      80.943  61.973  12.326  1.00  0.00    -0.027 A 
HETATM    9  C16 UNL     1      82.046  61.189  12.525  1.00  0.00     0.040 A 
HETATM   10  C17 UNL     1      83.092  61.571  13.398  1.00  0.00     0.191 C 
HETATM   11  O2  UNL     1      82.865  62.584  14.118  1.00  0.00    -0.287 OA
HETATM   12  C18 UNL     1      84.339  61.003  13.589  1.00  0.00     0.002 C 
HETATM   13  C21 UNL     1      80.458  63.325  12.843  1.00  0.00     0.067 C 
HETATM   14  C22 UNL     1      79.263  63.694  12.058  1.00  0.00     0.103 C 
HETATM   15  C23 UNL     1      78.834  62.450  11.326  1.00  0.00     0.073 C 
ENDROOT
BRANCH   2  16
HETATM   16  C5  UNL     1      85.070  57.833  11.695  1.00  0.00     0.254 C 
HETATM   17  O1  UNL     1      85.251  56.985  12.658  1.00  0.00    -0.267 OA
HETATM   18  N1  UNL     1      85.613  57.459  10.464  1.00  0.00    -0.348 N 
HETATM   19  C6  UNL     1      86.312  56.165  10.371  1.00  0.00     0.126 C 
HETATM   20  C10 UNL     1      85.603  58.203   9.232  1.00  0.00     0.126 C 
HETATM   21  C7  UNL     1      85.592  55.217   9.441  1.00  0.00     0.020 C 
HETATM   22  C8  UNL     1      85.029  55.952   8.243  1.00  0.00     0.003 C 
HETATM   23  C9  UNL     1      85.706  57.294   8.058  1.00  0.00     0.020 C 
ENDBRANCH   2  16
BRANCH   1  24
HETATM   24  C2  UNL     1      86.387  60.155  12.588  1.00  0.00     0.036 C 
HETATM   25  C1  UNL     1      86.725  61.056  11.443  1.00  0.00     0.010 C 
ENDBRANCH   1  24
BRANCH  12  26
HETATM   26  C19 UNL     1      85.077  61.471  14.753  1.00  0.00     0.069 C 
BRANCH  26  27
HETATM   27  C20 UNL     1      84.778  60.686  16.012  1.00  0.00     0.168 C 
BRANCH  27  28
HETATM   28  O3  UNL     1      83.854  61.421  16.793  1.00  0.00    -0.401 OA
ATOM     29  H3  UNL     1      82.993  61.030  16.693  1.00  0.00     0.209 HD
ENDBRANCH  27  28
ENDBRANCH  26  27
ENDBRANCH  12  26
BRANCH  14  30
HETATM   30  N2  UNL     1      79.428  64.824  11.185  1.00  0.00    -0.298 N 
ATOM     31  H2  UNL     1      79.926  64.746  10.298  1.00  0.00     0.174 HD
BRANCH  30  32
HETATM   32  S2  UNL     1      78.762  66.281  11.697  1.00  0.00     0.313 S 
HETATM   33  O4  UNL     1      79.817  67.363  11.611  1.00  0.00    -0.183 OA
HETATM   34  O5  UNL     1      77.600  66.756  10.881  1.00  0.00    -0.183 OA
BRANCH  32  35
HETATM   35  N3  UNL     1      78.222  66.262  13.354  1.00  0.00    -0.312 N 
ATOM     36  H32 UNL     1      78.759  65.815  14.096  1.00  0.00     0.170 HD
ATOM     37  H31 UNL     1      77.330  66.735  13.501  1.00  0.00     0.170 HD
ENDBRANCH  32  35
ENDBRANCH  30  32
ENDBRANCH  14  30
TORSDOF 8
ENDMDL
MODEL 3
REMARK VINA RESULT: -5.392168584      1.933      2.410
REMARK  8 active torsions:
REMARK  status: ('A' for Active; 'I' for Inactive)
REMARK    1  A    between atoms: C2_2  and  C3_3 
REMARK    2  A    between atoms: C4_4  and  C5_5 
REMARK       I    between atoms: C5_5  and  N1_7 
REMARK    3  A    between atoms: C18_22  and  C19_23 
REMARK    4  A    between atoms: C19_23  and  C20_24 
REMARK    5  A    between atoms: C20_24  and  O3_25 
REMARK    6  A    between atoms: C22_28  and  N2_29 
REMARK    7  A    between atoms: N2_29  and  S2_31 
REMARK    8  A    between atoms: S2_31  and  N3_32 
ROOT
HETATM    1  C3  UNL     1      78.829  61.996  10.636  1.00  0.00    -0.032 C 
HETATM    2  C4  UNL     1      78.551  62.447  11.900  1.00  0.00     0.046 C 
HETATM    3  C11 UNL     1      79.396  62.278  12.979  1.00  0.00    -0.028 C 
HETATM    4  C12 UNL     1      78.843  62.609  14.278  1.00  0.00     0.050 C 
HETATM    5  C13 UNL     1      80.729  61.834  12.998  1.00  0.00     0.027 A 
HETATM    6  S1  UNL     1      81.815  62.113  14.284  1.00  0.00    -0.093 SA
HETATM    7  C14 UNL     1      83.188  61.341  13.651  1.00  0.00    -0.007 A 
HETATM    8  C15 UNL     1      82.770  60.879  12.448  1.00  0.00    -0.027 A 
HETATM    9  C16 UNL     1      81.475  61.128  12.085  1.00  0.00     0.040 A 
HETATM   10  C17 UNL     1      80.939  60.680  10.855  1.00  0.00     0.191 C 
HETATM   11  O2  UNL     1      81.668  59.886  10.194  1.00  0.00    -0.287 OA
HETATM   12  C18 UNL     1      79.730  60.980  10.252  1.00  0.00     0.002 C 
HETATM   13  C21 UNL     1      83.962  60.166  11.815  1.00  0.00     0.067 C 
HETATM   14  C22 UNL     1      85.141  60.446  12.658  1.00  0.00     0.103 C 
HETATM   15  C23 UNL     1      84.616  61.022  13.947  1.00  0.00     0.073 C 
ENDROOT
BRANCH   2  16
HETATM   16  C5  UNL     1      77.347  63.138  12.209  1.00  0.00     0.254 C 
HETATM   17  O1  UNL     1      76.365  62.339  12.488  1.00  0.00    -0.267 OA
HETATM   18  N1  UNL     1      77.038  64.499  12.260  1.00  0.00    -0.348 N 
HETATM   19  C6  UNL     1      75.665  64.893  12.626  1.00  0.00     0.126 C 
HETATM   20  C10 UNL     1      77.902  65.612  11.969  1.00  0.00     0.126 C 
HETATM   21  C7  UNL     1      75.642  65.654  13.931  1.00  0.00     0.020 C 
HETATM   22  C8  UNL     1      76.836  66.577  14.043  1.00  0.00     0.003 C 
HETATM   23  C9  UNL     1      77.456  66.837  12.686  1.00  0.00     0.020 C 
ENDBRANCH   2  16
BRANCH   1  24
HETATM   24  C2  UNL     1      78.152  62.691   9.549  1.00  0.00     0.036 C 
HETATM   25  C1  UNL     1      78.981  63.801   8.984  1.00  0.00     0.010 C 
ENDBRANCH   1  24
BRANCH  12  26
HETATM   26  C19 UNL     1      79.364  60.146   9.117  1.00  0.00     0.069 C 
BRANCH  26  27
HETATM   27  C20 UNL     1      78.476  58.978   9.488  1.00  0.00     0.168 C 
BRANCH  27  28
HETATM   28  O3  UNL     1      79.298  57.871   9.809  1.00  0.00    -0.401 OA
ATOM     29  H3  UNL     1      79.291  57.266   9.077  1.00  0.00     0.209 HD
ENDBRANCH  27  28
ENDBRANCH  26  27
ENDBRANCH  12  26
BRANCH  14  30
HETATM   30  N2  UNL     1      86.148  61.273  12.049  1.00  0.00    -0.298 N 
ATOM     31  H2  UNL     1      85.970  62.251  11.821  1.00  0.00     0.174 HD
BRANCH  30  32
HETATM   32  S2  UNL     1      87.632  60.548  11.730  1.00  0.00     0.313 S 
HETATM   33  O4  UNL     1      87.393  59.164  11.164  1.00  0.00    -0.183 OA
HETATM   34  O5  UNL     1      88.479  61.274  10.732  1.00  0.00    -0.183 OA
BRANCH  32  35
HETATM   35  N3  UNL     1      88.624  60.327  13.145  1.00  0.00    -0.312 N 
ATOM     36  H32 UNL     1      89.556  60.732  13.225  1.00  0.00     0.170 HD
ATOM     37  H31 UNL     1      88.183  59.763  13.872  1.00  0.00     0.170 HD
ENDBRANCH  32  35
ENDBRANCH  30  32
ENDBRANCH  14  30
TORSDOF 8
ENDMDL
MODEL 4
REMARK VINA RESULT: -5.313344679      6.063      9.570
REMARK  8 active torsions:
REMARK  status: ('A' for Active; 'I' for Inactive)
REMARK    1  A    between atoms: C2_2  and  C3_3 
REMARK    2  A    between atoms: C4_4  and  C5_5 
REMARK       I    between atoms: C5_5  and  N1_7 
REMARK    3  A    between atoms: C18_22  and  C19_23 
REMARK    4  A    between atoms: C19_23  and  C20_24 
REMARK    5  A    between atoms: C20_24  and  O3_25 
REMARK    6  A    between atoms: C22_28  and  N2_29 
REMARK    7  A    between atoms: N2_29  and  S2_31 
REMARK    8  A    between atoms: S2_31  and  N3_32 
ROOT
HETATM    1  C3  UNL     1      73.416  63.917  17.625  1.00  0.00    -0.032 C 
HETATM    2  C4  UNL     1      73.047  64.962  16.819  1.00  0.00     0.046 C 
HETATM    3  C11 UNL     1      73.774  65.380  15.722  1.00  0.00    -0.028 C 
HETATM    4  C12 UNL     1      73.362  66.637  15.126  1.00  0.00     0.050 C 
HETATM    5  C13 UNL     1      74.863  64.754  15.091  1.00  0.00     0.027 A 
HETATM    6  S1  UNL     1      75.372  65.091  13.498  1.00  0.00    -0.093 SA
HETATM    7  C14 UNL     1      76.675  64.008  13.395  1.00  0.00    -0.007 A 
HETATM    8  C15 UNL     1      76.687  63.406  14.608  1.00  0.00    -0.027 A 
HETATM    9  C16 UNL     1      75.740  63.786  15.518  1.00  0.00     0.040 A 
HETATM   10  C17 UNL     1      75.673  63.225  16.815  1.00  0.00     0.191 C 
HETATM   11  O2  UNL     1      76.646  62.487  17.145  1.00  0.00    -0.287 OA
HETATM   12  C18 UNL     1      74.700  63.355  17.790  1.00  0.00     0.002 C 
HETATM   13  C21 UNL     1      77.843  62.409  14.590  1.00  0.00     0.067 C 
HETATM   14  C22 UNL     1      78.347  62.343  13.204  1.00  0.00     0.103 C 
HETATM   15  C23 UNL     1      77.743  63.516  12.476  1.00  0.00     0.073 C 
ENDROOT
BRANCH   2  16
HETATM   16  C5  UNL     1      71.862  65.714  17.049  1.00  0.00     0.254 C 
HETATM   17  O1  UNL     1      72.006  66.608  17.976  1.00  0.00    -0.267 OA
HETATM   18  N1  UNL     1      70.593  65.659  16.470  1.00  0.00    -0.348 N 
HETATM   19  C6  UNL     1      69.564  66.602  16.944  1.00  0.00     0.126 C 
HETATM   20  C10 UNL     1      70.126  64.755  15.452  1.00  0.00     0.126 C 
HETATM   21  C7  UNL     1      69.148  67.557  15.849  1.00  0.00     0.020 C 
HETATM   22  C8  UNL     1      69.087  66.854  14.509  1.00  0.00     0.003 C 
HETATM   23  C9  UNL     1      69.000  65.352  14.684  1.00  0.00     0.020 C 
ENDBRANCH   2  16
BRANCH   1  24
HETATM   24  C2  UNL     1      72.338  63.269  18.360  1.00  0.00     0.036 C 
HETATM   25  C1  UNL     1      71.788  62.085  17.632  1.00  0.00     0.010 C 
ENDBRANCH   1  24
BRANCH  12  26
HETATM   26  C19 UNL     1      75.060  62.868  19.113  1.00  0.00     0.069 C 
BRANCH  26  27
HETATM   27  C20 UNL     1      75.891  63.848  19.911  1.00  0.00     0.168 C 
BRANCH  27  28
HETATM   28  O3  UNL     1      77.232  63.395  19.926  1.00  0.00    -0.401 OA
ATOM     29  H3  UNL     1      77.328  62.711  19.274  1.00  0.00     0.209 HD
ENDBRANCH  27  28
ENDBRANCH  26  27
ENDBRANCH  12  26
BRANCH  14  30
HETATM   30  N2  UNL     1      78.121  61.094  12.528  1.00  0.00    -0.298 N 
ATOM     31  H2  UNL     1      77.278  60.928  11.979  1.00  0.00     0.174 HD
BRANCH  30  32
HETATM   32  S2  UNL     1      79.316  59.921  12.688  1.00  0.00     0.313 S 
HETATM   33  O4  UNL     1      78.671  58.616  13.106  1.00  0.00    -0.183 OA
HETATM   34  O5  UNL     1      80.079  59.633  11.434  1.00  0.00    -0.183 OA
BRANCH  32  35
HETATM   35  N3  UNL     1      80.502  60.288  13.910  1.00  0.00    -0.312 N 
ATOM     36  H32 UNL     1      80.272  60.822  14.749  1.00  0.00     0.170 HD
ATOM     37  H31 UNL     1      81.431  59.921  13.705  1.00  0.00     0.170 HD
ENDBRANCH  32  35
ENDBRANCH  30  32
ENDBRANCH  14  30
TORSDOF 8
ENDMDL
MODEL 5
REMARK VINA RESULT: -5.278383275      3.472      8.443
REMARK  8 active torsions:
REMARK  status: ('A' for Active; 'I' for Inactive)
REMARK    1  A    between atoms: C2_2  and  C3_3 
REMARK    2  A    between atoms: C4_4  and  C5_5 
REMARK       I    between atoms: C5_5  and  N1_7 
REMARK    3  A    between atoms: C18_22  and  C19_23 
REMARK    4  A    between atoms: C19_23  and  C20_24 
REMARK    5  A    between atoms: C20_24  and  O3_25 
REMARK    6  A    between atoms: C22_28  and  N2_29 
REMARK    7  A    between atoms: N2_29  and  S2_31 
REMARK    8  A    between atoms: S2_31  and  N3_32 
ROOT
HETATM    1  C3  UNL     1      84.249  59.708  12.629  1.00  0.00    -0.032 C 
HETATM    2  C4  UNL     1      83.414  58.732  12.147  1.00  0.00     0.046 C 
HETATM    3  C11 UNL     1      82.059  58.907  11.957  1.00  0.00    -0.028 C 
HETATM    4  C12 UNL     1      81.296  57.707  11.665  1.00  0.00     0.050 C 
HETATM    5  C13 UNL     1      81.303  60.091  12.000  1.00  0.00     0.027 A 
HETATM    6  S1  UNL     1      79.761  60.274  11.293  1.00  0.00    -0.093 SA
HETATM    7  C14 UNL     1      79.464  61.893  11.704  1.00  0.00    -0.007 A 
HETATM    8  C15 UNL     1      80.575  62.260  12.387  1.00  0.00    -0.027 A 
HETATM    9  C16 UNL     1      81.558  61.322  12.555  1.00  0.00     0.040 A 
HETATM   10  C17 UNL     1      82.752  61.603  13.260  1.00  0.00     0.191 C 
HETATM   11  O2  UNL     1      82.779  62.705  13.879  1.00  0.00    -0.287 OA
HETATM   12  C18 UNL     1      83.908  60.852  13.380  1.00  0.00     0.002 C 
HETATM   13  C21 UNL     1      80.379  63.718  12.793  1.00  0.00     0.067 C 
HETATM   14  C22 UNL     1      79.168  64.208  12.104  1.00  0.00     0.103 C 
HETATM   15  C23 UNL     1      78.460  62.989  11.572  1.00  0.00     0.073 C 
ENDROOT
BRANCH   2  16
HETATM   16  C5  UNL     1      83.886  57.436  11.799  1.00  0.00     0.254 C 
HETATM   17  O1  UNL     1      84.005  56.651  12.823  1.00  0.00    -0.267 OA
HETATM   18  N1  UNL     1      84.244  56.871  10.573  1.00  0.00    -0.348 N 
HETATM   19  C6  UNL     1      84.700  55.470  10.553  1.00  0.00     0.126 C 
HETATM   20  C10 UNL     1      84.251  57.501   9.279  1.00  0.00     0.126 C 
HETATM   21  C7  UNL     1      83.747  54.593   9.775  1.00  0.00     0.020 C 
HETATM   22  C8  UNL     1      83.213  55.316   8.557  1.00  0.00     0.003 C 
HETATM   23  C9  UNL     1      84.091  56.496   8.194  1.00  0.00     0.020 C 
ENDBRANCH   2  16
BRANCH   1  24
HETATM   24  C2  UNL     1      85.655  59.576  12.269  1.00  0.00     0.036 C 
HETATM   25  C1  UNL     1      86.005  60.369  11.051  1.00  0.00     0.010 C 
ENDBRANCH   1  24
BRANCH  12  26
HETATM   26  C19 UNL     1      84.850  61.297  14.396  1.00  0.00     0.069 C 
BRANCH  26  27
HETATM   27  C20 UNL     1      84.664  60.614  15.732  1.00  0.00     0.168 C 
BRANCH  27  28
HETATM   28  O3  UNL     1      83.931  61.476  16.583  1.00  0.00    -0.401 OA
ATOM     29  H3  UNL     1      83.193  60.995  16.939  1.00  0.00     0.209 HD
ENDBRANCH  27  28
ENDBRANCH  26  27
ENDBRANCH  12  26
BRANCH  14  30
HETATM   30  N2  UNL     1      79.398  65.203  11.093  1.00  0.00    -0.298 N 
ATOM     31  H2  UNL     1      79.948  65.000  10.258  1.00  0.00     0.174 HD
BRANCH  30  32
HETATM   32  S2  UNL     1      78.717  66.719  11.354  1.00  0.00     0.313 S 
HETATM   33  O4  UNL     1      77.609  66.941  10.347  1.00  0.00    -0.183 OA
HETATM   34  O5  UNL     1      78.104  66.902  12.707  1.00  0.00    -0.183 OA
BRANCH  32  35
HETATM   35  N3  UNL     1      79.836  68.037  11.141  1.00  0.00    -0.312 N 
ATOM     36  H32 UNL     1      80.837  67.887  11.015  1.00  0.00     0.170 HD
ATOM     37  H31 UNL     1      79.395  68.957  11.155  1.00  0.00     0.170 HD
ENDBRANCH  32  35
ENDBRANCH  30  32
ENDBRANCH  14  30
TORSDOF 8
ENDMDL
