MODEL 1
REMARK VINA RESULT: -9.086268538      0.000      0.000
REMARK  17 active torsions:
REMARK  status: ('A' for Active; 'I' for Inactive)
REMARK    1  A    between atoms: C2_2  and  C3_3 
REMARK    2  A    between atoms: C5_5  and  C6_6 
REMARK    3  A    between atoms: C6_6  and  C7_7 
REMARK    4  A    between atoms: C9_9  and  O1_10 
REMARK    5  A    between atoms: C11_13  and  C12_14 
REMARK    6  A    between atoms: C12_14  and  C13_15 
REMARK    7  A    between atoms: C14_16  and  C15_17 
REMARK    8  A    between atoms: C15_17  and  C16_18 
REMARK    9  A    between atoms: C17_19  and  C18_20 
REMARK   10  A    between atoms: C18_20  and  S1_21 
REMARK   11  A    between atoms: S1_21  and  C19_22 
REMARK   12  A    between atoms: C19_22  and  O2_23 
REMARK   13  A    between atoms: C19_22  and  C23_28 
REMARK   14  A    between atoms: O2_23  and  O3_24 
REMARK   15  A    between atoms: O3_24  and  C20_25 
REMARK   16  A    between atoms: C23_28  and  O4_29 
REMARK   17  A    between atoms: C23_28  and  C24_31 
ROOT
HETATM    1  C13 UNL     1      13.788  19.607   9.384  1.00  0.00    -0.026 C 
HETATM    2  C14 UNL     1      13.438  18.383   9.621  1.00  0.00    -0.027 C 
ENDROOT
BRANCH   2   3
HETATM    3  C15 UNL     1      14.009  17.531  10.669  1.00  0.00     0.053 C 
BRANCH   3   4
HETATM    4  C16 UNL     1      14.970  16.543  10.115  1.00  0.00    -0.026 C 
HETATM    5  C17 UNL     1      16.219  16.527  10.424  1.00  0.00    -0.020 C 
BRANCH   5   6
HETATM    6  C18 UNL     1      16.903  17.432  11.334  1.00  0.00     0.103 C 
BRANCH   6   7
HETATM    7  S1  UNL     1      17.588  16.491  12.736  1.00  0.00    -0.124 SA
BRANCH   7   8
HETATM    8  C19 UNL     1      16.512  16.871  14.190  1.00  0.00     0.278 C 
BRANCH   8   9
HETATM    9  O2  UNL     1      17.328  17.300  15.181  1.00  0.00    -0.218 OA
BRANCH   9  10
HETATM   10  O3  UNL     1      17.500  16.470  16.153  1.00  0.00    -0.235 OA
BRANCH  10  11
HETATM   11  C20 UNL     1      18.785  16.291  16.598  1.00  0.00     0.152 C 
HETATM   12  C21 UNL     1      18.754  15.964  18.077  1.00  0.00     0.042 C 
HETATM   13  C22 UNL     1      19.450  15.182  15.805  1.00  0.00     0.042 C 
ENDBRANCH  10  11
ENDBRANCH   9  10
ENDBRANCH   8   9
BRANCH   8  14
HETATM   14  C23 UNL     1      15.633  15.737  14.432  1.00  0.00     0.090 C 
BRANCH  14  15
HETATM   15  O4  UNL     1      16.173  14.549  14.548  1.00  0.00    -0.361 OA
ATOM     16  H4  UNL     1      16.250  14.174  15.418  1.00  0.00     0.217 HD
ENDBRANCH  14  15
BRANCH  14  17
HETATM   17  C24 UNL     1      14.208  15.777  14.560  1.00  0.00    -0.039 C 
HETATM   18  C25 UNL     1      13.482  16.239  15.537  1.00  0.00     0.021 C 
HETATM   19  C26 UNL     1      13.377  15.202  13.401  1.00  0.00     0.050 C 
ENDBRANCH  14  17
ENDBRANCH   8  14
ENDBRANCH   7   8
ENDBRANCH   6   7
ENDBRANCH   5   6
ENDBRANCH   3   4
ENDBRANCH   2   3
BRANCH   1  20
HETATM   20  C12 UNL     1      14.820  20.334  10.134  1.00  0.00     0.065 C 
BRANCH  20  21
HETATM   21  C11 UNL     1      15.107  21.672   9.522  1.00  0.00    -0.052 A 
HETATM   22  C10 UNL     1      14.575  22.787  10.121  1.00  0.00     0.044 A 
HETATM   23  C9  UNL     1      14.868  24.012   9.527  1.00  0.00     0.066 A 
HETATM   24  C8  UNL     1      15.668  24.052   8.383  1.00  0.00     0.044 A 
HETATM   25  C7  UNL     1      16.181  22.921   7.813  1.00  0.00    -0.052 A 
HETATM   26  C27 UNL     1      15.890  21.701   8.402  1.00  0.00     0.015 A 
BRANCH  23  27
HETATM   27  O1  UNL     1      14.356  25.154  10.092  1.00  0.00    -0.361 OA
ATOM     28  H1  UNL     1      13.677  25.123  10.756  1.00  0.00     0.217 HD
ENDBRANCH  23  27
BRANCH  25  29
HETATM   29  C6  UNL     1      17.042  22.916   6.596  1.00  0.00     0.066 C 
BRANCH  29  30
HETATM   30  C5  UNL     1      17.303  24.323   6.216  1.00  0.00    -0.015 C 
HETATM   31  C3  UNL     1      17.510  24.760   4.997  1.00  0.00    -0.066 C 
HETATM   32  C4  UNL     1      17.756  26.237   4.823  1.00  0.00     0.048 C 
BRANCH  31  33
HETATM   33  C2  UNL     1      17.515  23.917   3.811  1.00  0.00    -0.004 C 
HETATM   34  C1  UNL     1      17.530  24.449   2.590  1.00  0.00     0.012 C 
ENDBRANCH  31  33
ENDBRANCH  29  30
ENDBRANCH  25  29
ENDBRANCH  20  21
ENDBRANCH   1  20
TORSDOF 17
ENDMDL
MODEL 2
REMARK VINA RESULT: -8.973999192      2.602     10.784
REMARK  17 active torsions:
REMARK  status: ('A' for Active; 'I' for Inactive)
REMARK    1  A    between atoms: C2_2  and  C3_3 
REMARK    2  A    between atoms: C5_5  and  C6_6 
REMARK    3  A    between atoms: C6_6  and  C7_7 
REMARK    4  A    between atoms: C9_9  and  O1_10 
REMARK    5  A    between atoms: C11_13  and  C12_14 
REMARK    6  A    between atoms: C12_14  and  C13_15 
REMARK    7  A    between atoms: C14_16  and  C15_17 
REMARK    8  A    between atoms: C15_17  and  C16_18 
REMARK    9  A    between atoms: C17_19  and  C18_20 
REMARK   10  A    between atoms: C18_20  and  S1_21 
REMARK   11  A    between atoms: S1_21  and  C19_22 
REMARK   12  A    between atoms: C19_22  and  O2_23 
REMARK   13  A    between atoms: C19_22  and  C23_28 
REMARK   14  A    between atoms: O2_23  and  O3_24 
REMARK   15  A    between atoms: O3_24  and  C20_25 
REMARK   16  A    between atoms: C23_28  and  O4_29 
REMARK   17  A    between atoms: C23_28  and  C24_31 
ROOT
HETATM    1  C13 UNL     1      13.044  17.031  10.345  1.00  0.00    -0.026 C 
HETATM    2  C14 UNL     1      13.102  18.179   9.750  1.00  0.00    -0.027 C 
ENDROOT
BRANCH   2   3
HETATM    3  C15 UNL     1      14.339  18.864   9.360  1.00  0.00     0.053 C 
BRANCH   3   4
HETATM    4  C16 UNL     1      14.858  19.730  10.450  1.00  0.00    -0.026 C 
HETATM    5  C17 UNL     1      16.072  20.156  10.492  1.00  0.00    -0.020 C 
BRANCH   5   6
HETATM    6  C18 UNL     1      17.124  19.884   9.525  1.00  0.00     0.103 C 
BRANCH   6   7
HETATM    7  S1  UNL     1      17.846  21.455   8.948  1.00  0.00    -0.124 SA
BRANCH   7   8
HETATM    8  C19 UNL     1      16.589  22.222   7.831  1.00  0.00     0.278 C 
BRANCH   8   9
HETATM    9  O2  UNL     1      17.218  22.508   6.668  1.00  0.00    -0.218 OA
BRANCH   9  10
HETATM   10  O3  UNL     1      16.827  23.586   6.078  1.00  0.00    -0.235 OA
BRANCH  10  11
HETATM   11  C20 UNL     1      17.752  24.244   5.308  1.00  0.00     0.152 C 
HETATM   12  C21 UNL     1      17.543  23.866   3.856  1.00  0.00     0.042 C 
HETATM   13  C22 UNL     1      17.612  25.740   5.511  1.00  0.00     0.042 C 
ENDBRANCH  10  11
ENDBRANCH   9  10
ENDBRANCH   8   9
BRANCH   8  14
HETATM   14  C23 UNL     1      15.909  23.287   8.553  1.00  0.00     0.090 C 
BRANCH  14  15
HETATM   15  O4  UNL     1      16.593  24.362   8.860  1.00  0.00    -0.361 OA
ATOM     16  H4  UNL     1      16.456  24.753   9.715  1.00  0.00     0.217 HD
ENDBRANCH  14  15
BRANCH  14  17
HETATM   17  C24 UNL     1      14.541  23.290   8.975  1.00  0.00    -0.039 C 
HETATM   18  C25 UNL     1      13.553  22.546   8.569  1.00  0.00     0.021 C 
HETATM   19  C26 UNL     1      14.138  24.302  10.061  1.00  0.00     0.050 C 
ENDBRANCH  14  17
ENDBRANCH   8  14
ENDBRANCH   7   8
ENDBRANCH   6   7
ENDBRANCH   5   6
ENDBRANCH   3   4
ENDBRANCH   2   3
BRANCH   1  20
HETATM   20  C12 UNL     1      14.217  16.234  10.725  1.00  0.00     0.065 C 
BRANCH  20  21
HETATM   21  C11 UNL     1      14.347  16.119  12.215  1.00  0.00    -0.052 A 
HETATM   22  C10 UNL     1      15.269  16.914  12.847  1.00  0.00     0.044 A 
HETATM   23  C9  UNL     1      15.357  16.784  14.232  1.00  0.00     0.066 A 
HETATM   24  C8  UNL     1      14.527  15.878  14.895  1.00  0.00     0.044 A 
HETATM   25  C7  UNL     1      13.620  15.101  14.231  1.00  0.00    -0.052 A 
HETATM   26  C27 UNL     1      13.531  15.229  12.854  1.00  0.00     0.015 A 
BRANCH  23  27
HETATM   27  O1  UNL     1      16.267  17.560  14.907  1.00  0.00    -0.361 OA
ATOM     28  H1  UNL     1      16.273  18.507  14.828  1.00  0.00     0.217 HD
ENDBRANCH  23  27
BRANCH  25  29
HETATM   29  C6  UNL     1      12.711  14.125  14.897  1.00  0.00     0.066 C 
BRANCH  29  30
HETATM   30  C5  UNL     1      11.897  13.472  13.847  1.00  0.00    -0.015 C 
HETATM   31  C3  UNL     1      10.632  13.143  13.955  1.00  0.00    -0.066 C 
HETATM   32  C4  UNL     1       9.983  12.484  12.764  1.00  0.00     0.048 C 
BRANCH  31  33
HETATM   33  C2  UNL     1       9.820  13.373  15.141  1.00  0.00    -0.004 C 
HETATM   34  C1  UNL     1       8.494  13.461  15.059  1.00  0.00     0.012 C 
ENDBRANCH  31  33
ENDBRANCH  29  30
ENDBRANCH  25  29
ENDBRANCH  20  21
ENDBRANCH   1  20
TORSDOF 17
ENDMDL
MODEL 3
REMARK VINA RESULT: -8.838642651      2.599     11.052
REMARK  17 active torsions:
REMARK  status: ('A' for Active; 'I' for Inactive)
REMARK    1  A    between atoms: C2_2  and  C3_3 
REMARK    2  A    between atoms: C5_5  and  C6_6 
REMARK    3  A    between atoms: C6_6  and  C7_7 
REMARK    4  A    between atoms: C9_9  and  O1_10 
REMARK    5  A    between atoms: C11_13  and  C12_14 
REMARK    6  A    between atoms: C12_14  and  C13_15 
REMARK    7  A    between atoms: C14_16  and  C15_17 
REMARK    8  A    between atoms: C15_17  and  C16_18 
REMARK    9  A    between atoms: C17_19  and  C18_20 
REMARK   10  A    between atoms: C18_20  and  S1_21 
REMARK   11  A    between atoms: S1_21  and  C19_22 
REMARK   12  A    between atoms: C19_22  and  O2_23 
REMARK   13  A    between atoms: C19_22  and  C23_28 
REMARK   14  A    between atoms: O2_23  and  O3_24 
REMARK   15  A    between atoms: O3_24  and  C20_25 
REMARK   16  A    between atoms: C23_28  and  O4_29 
REMARK   17  A    between atoms: C23_28  and  C24_31 
ROOT
HETATM    1  C13 UNL     1      13.649  17.315  10.277  1.00  0.00    -0.026 C 
HETATM    2  C14 UNL     1      14.054  18.439   9.779  1.00  0.00    -0.027 C 
ENDROOT
BRANCH   2   3
HETATM    3  C15 UNL     1      15.458  18.836   9.627  1.00  0.00     0.053 C 
BRANCH   3   4
HETATM    4  C16 UNL     1      15.785  20.036  10.439  1.00  0.00    -0.026 C 
HETATM    5  C17 UNL     1      16.305  21.102   9.941  1.00  0.00    -0.020 C 
BRANCH   5   6
HETATM    6  C18 UNL     1      16.660  21.330   8.549  1.00  0.00     0.103 C 
BRANCH   6   7
HETATM    7  S1  UNL     1      17.939  22.623   8.446  1.00  0.00    -0.124 SA
BRANCH   7   8
HETATM    8  C19 UNL     1      17.087  24.146   7.836  1.00  0.00     0.278 C 
BRANCH   8   9
HETATM    9  O2  UNL     1      15.771  23.998   8.114  1.00  0.00    -0.218 OA
BRANCH   9  10
HETATM   10  O3  UNL     1      15.377  24.526   9.222  1.00  0.00    -0.235 OA
BRANCH  10  11
HETATM   11  C20 UNL     1      14.023  24.583   9.437  1.00  0.00     0.152 C 
HETATM   12  C21 UNL     1      13.398  23.276   8.994  1.00  0.00     0.042 C 
HETATM   13  C22 UNL     1      13.751  24.852  10.905  1.00  0.00     0.042 C 
ENDBRANCH  10  11
ENDBRANCH   9  10
ENDBRANCH   8   9
BRANCH   8  14
HETATM   14  C23 UNL     1      17.501  24.396   6.464  1.00  0.00     0.090 C 
BRANCH  14  15
HETATM   15  O4  UNL     1      17.231  23.488   5.559  1.00  0.00    -0.361 OA
ATOM     16  H4  UNL     1      16.442  23.591   5.041  1.00  0.00     0.217 HD
ENDBRANCH  14  15
BRANCH  14  17
HETATM   17  C24 UNL     1      18.189  25.555   5.981  1.00  0.00    -0.039 C 
HETATM   18  C25 UNL     1      17.872  26.351   5.000  1.00  0.00     0.021 C 
HETATM   19  C26 UNL     1      19.493  25.952   6.692  1.00  0.00     0.050 C 
ENDBRANCH  14  17
ENDBRANCH   8  14
ENDBRANCH   7   8
ENDBRANCH   6   7
ENDBRANCH   5   6
ENDBRANCH   3   4
ENDBRANCH   2   3
BRANCH   1  20
HETATM   20  C12 UNL     1      14.541  16.257  10.769  1.00  0.00     0.065 C 
BRANCH  20  21
HETATM   21  C11 UNL     1      14.597  16.236  12.268  1.00  0.00    -0.052 A 
HETATM   22  C10 UNL     1      15.531  17.024  12.893  1.00  0.00     0.044 A 
HETATM   23  C9  UNL     1      15.548  16.983  14.286  1.00  0.00     0.066 A 
HETATM   24  C8  UNL     1      14.641  16.167  14.964  1.00  0.00     0.044 A 
HETATM   25  C7  UNL     1      13.724  15.394  14.308  1.00  0.00    -0.052 A 
HETATM   26  C27 UNL     1      13.705  15.434  12.923  1.00  0.00     0.015 A 
BRANCH  23  27
HETATM   27  O1  UNL     1      16.466  17.755  14.953  1.00  0.00    -0.361 OA
ATOM     28  H1  UNL     1      17.041  17.389  15.615  1.00  0.00     0.217 HD
ENDBRANCH  23  27
BRANCH  25  29
HETATM   29  C6  UNL     1      12.734  14.512  14.990  1.00  0.00     0.066 C 
BRANCH  29  30
HETATM   30  C5  UNL     1      12.018  13.741  13.949  1.00  0.00    -0.015 C 
HETATM   31  C3  UNL     1      10.762  13.369  14.001  1.00  0.00    -0.066 C 
HETATM   32  C4  UNL     1      10.221  12.587  12.831  1.00  0.00     0.048 C 
BRANCH  31  33
HETATM   33  C2  UNL     1       9.863  13.661  15.108  1.00  0.00    -0.004 C 
HETATM   34  C1  UNL     1       8.561  13.390  15.026  1.00  0.00     0.012 C 
ENDBRANCH  31  33
ENDBRANCH  29  30
ENDBRANCH  25  29
ENDBRANCH  20  21
ENDBRANCH   1  20
TORSDOF 17
ENDMDL
MODEL 4
REMARK VINA RESULT: -8.724893483      2.890     10.859
REMARK  17 active torsions:
REMARK  status: ('A' for Active; 'I' for Inactive)
REMARK    1  A    between atoms: C2_2  and  C3_3 
REMARK    2  A    between atoms: C5_5  and  C6_6 
REMARK    3  A    between atoms: C6_6  and  C7_7 
REMARK    4  A    between atoms: C9_9  and  O1_10 
REMARK    5  A    between atoms: C11_13  and  C12_14 
REMARK    6  A    between atoms: C12_14  and  C13_15 
REMARK    7  A    between atoms: C14_16  and  C15_17 
REMARK    8  A    between atoms: C15_17  and  C16_18 
REMARK    9  A    between atoms: C17_19  and  C18_20 
REMARK   10  A    between atoms: C18_20  and  S1_21 
REMARK   11  A    between atoms: S1_21  and  C19_22 
REMARK   12  A    between atoms: C19_22  and  O2_23 
REMARK   13  A    between atoms: C19_22  and  C23_28 
REMARK   14  A    between atoms: O2_23  and  O3_24 
REMARK   15  A    between atoms: O3_24  and  C20_25 
REMARK   16  A    between atoms: C23_28  and  O4_29 
REMARK   17  A    between atoms: C23_28  and  C24_31 
ROOT
HETATM    1  C13 UNL     1      12.862  16.761  10.390  1.00  0.00    -0.026 C 
HETATM    2  C14 UNL     1      13.210  17.852   9.785  1.00  0.00    -0.027 C 
ENDROOT
BRANCH   2   3
HETATM    3  C15 UNL     1      14.593  18.291   9.569  1.00  0.00     0.053 C 
BRANCH   3   4
HETATM    4  C16 UNL     1      15.039  19.249  10.613  1.00  0.00    -0.026 C 
HETATM    5  C17 UNL     1      16.105  19.960  10.505  1.00  0.00    -0.020 C 
BRANCH   5   6
HETATM    6  C18 UNL     1      17.040  19.965   9.390  1.00  0.00     0.103 C 
BRANCH   6   7
HETATM    7  S1  UNL     1      17.456  21.682   8.946  1.00  0.00    -0.124 SA
BRANCH   7   8
HETATM    8  C19 UNL     1      16.004  22.341   8.010  1.00  0.00     0.278 C 
BRANCH   8   9
HETATM    9  O2  UNL     1      16.479  22.831   6.842  1.00  0.00    -0.218 OA
BRANCH   9  10
HETATM   10  O3  UNL     1      17.311  23.810   6.951  1.00  0.00    -0.235 OA
BRANCH  10  11
HETATM   11  C20 UNL     1      17.344  24.716   5.922  1.00  0.00     0.152 C 
HETATM   12  C21 UNL     1      18.527  25.642   6.119  1.00  0.00     0.042 C 
HETATM   13  C22 UNL     1      17.436  23.983   4.598  1.00  0.00     0.042 C 
ENDBRANCH  10  11
ENDBRANCH   9  10
ENDBRANCH   8   9
BRANCH   8  14
HETATM   14  C23 UNL     1      15.237  23.211   8.888  1.00  0.00     0.090 C 
BRANCH  14  15
HETATM   15  O4  UNL     1      15.732  24.388   9.181  1.00  0.00    -0.361 OA
ATOM     16  H4  UNL     1      16.527  24.663   8.741  1.00  0.00     0.217 HD
ENDBRANCH  14  15
BRANCH  14  17
HETATM   17  C24 UNL     1      13.968  22.915   9.482  1.00  0.00    -0.039 C 
HETATM   18  C25 UNL     1      13.086  22.021   9.137  1.00  0.00     0.021 C 
HETATM   19  C26 UNL     1      13.546  23.749  10.703  1.00  0.00     0.050 C 
ENDBRANCH  14  17
ENDBRANCH   8  14
ENDBRANCH   7   8
ENDBRANCH   6   7
ENDBRANCH   5   6
ENDBRANCH   3   4
ENDBRANCH   2   3
BRANCH   1  20
HETATM   20  C12 UNL     1      13.807  15.790  10.956  1.00  0.00     0.065 C 
BRANCH  20  21
HETATM   21  C11 UNL     1      13.636  15.655  12.440  1.00  0.00    -0.052 A 
HETATM   22  C10 UNL     1      14.592  16.208  13.255  1.00  0.00     0.044 A 
HETATM   23  C9  UNL     1      14.396  16.068  14.627  1.00  0.00     0.066 A 
HETATM   24  C8  UNL     1      13.270  15.392  15.099  1.00  0.00     0.044 A 
HETATM   25  C7  UNL     1      12.338  14.853  14.257  1.00  0.00    -0.052 A 
HETATM   26  C27 UNL     1      12.531  14.991  12.892  1.00  0.00     0.015 A 
BRANCH  23  27
HETATM   27  O1  UNL     1      15.328  16.605  15.480  1.00  0.00    -0.361 OA
ATOM     28  H1  UNL     1      16.196  16.230  15.574  1.00  0.00     0.217 HD
ENDBRANCH  23  27
BRANCH  25  29
HETATM   29  C6  UNL     1      11.119  14.128  14.715  1.00  0.00     0.066 C 
BRANCH  29  30
HETATM   30  C5  UNL     1      10.662  13.259  13.607  1.00  0.00    -0.015 C 
HETATM   31  C3  UNL     1       9.424  12.886  13.388  1.00  0.00    -0.066 C 
HETATM   32  C4  UNL     1       9.167  11.996  12.199  1.00  0.00     0.048 C 
BRANCH  31  33
HETATM   33  C2  UNL     1       8.290  13.273  14.214  1.00  0.00    -0.004 C 
HETATM   34  C1  UNL     1       7.071  13.398  13.693  1.00  0.00     0.012 C 
ENDBRANCH  31  33
ENDBRANCH  29  30
ENDBRANCH  25  29
ENDBRANCH  20  21
ENDBRANCH   1  20
TORSDOF 17
ENDMDL
MODEL 5
REMARK VINA RESULT: -8.670588571      2.922     11.370
REMARK  17 active torsions:
REMARK  status: ('A' for Active; 'I' for Inactive)
REMARK    1  A    between atoms: C2_2  and  C3_3 
REMARK    2  A    between atoms: C5_5  and  C6_6 
REMARK    3  A    between atoms: C6_6  and  C7_7 
REMARK    4  A    between atoms: C9_9  and  O1_10 
REMARK    5  A    between atoms: C11_13  and  C12_14 
REMARK    6  A    between atoms: C12_14  and  C13_15 
REMARK    7  A    between atoms: C14_16  and  C15_17 
REMARK    8  A    between atoms: C15_17  and  C16_18 
REMARK    9  A    between atoms: C17_19  and  C18_20 
REMARK   10  A    between atoms: C18_20  and  S1_21 
REMARK   11  A    between atoms: S1_21  and  C19_22 
REMARK   12  A    between atoms: C19_22  and  O2_23 
REMARK   13  A    between atoms: C19_22  and  C23_28 
REMARK   14  A    between atoms: O2_23  and  O3_24 
REMARK   15  A    between atoms: O3_24  and  C20_25 
REMARK   16  A    between atoms: C23_28  and  O4_29 
REMARK   17  A    between atoms: C23_28  and  C24_31 
ROOT
HETATM    1  C13 UNL     1      14.749  16.660  10.097  1.00  0.00    -0.026 C 
HETATM    2  C14 UNL     1      15.316  17.746   9.677  1.00  0.00    -0.027 C 
ENDROOT
BRANCH   2   3
HETATM    3  C15 UNL     1      14.757  19.095   9.816  1.00  0.00     0.053 C 
BRANCH   3   4
HETATM    4  C16 UNL     1      15.655  19.987  10.594  1.00  0.00    -0.026 C 
HETATM    5  C17 UNL     1      16.404  20.879  10.048  1.00  0.00    -0.020 C 
BRANCH   5   6
HETATM    6  C18 UNL     1      16.514  21.174   8.628  1.00  0.00     0.103 C 
BRANCH   6   7
HETATM    7  S1  UNL     1      17.884  22.343   8.349  1.00  0.00    -0.124 SA
BRANCH   7   8
HETATM    8  C19 UNL     1      17.104  23.965   7.928  1.00  0.00     0.278 C 
BRANCH   8   9
HETATM    9  O2  UNL     1      15.785  23.852   8.212  1.00  0.00    -0.218 OA
BRANCH   9  10
HETATM   10  O3  UNL     1      15.387  24.500   9.253  1.00  0.00    -0.235 OA
BRANCH  10  11
HETATM   11  C20 UNL     1      14.384  23.929   9.994  1.00  0.00     0.152 C 
HETATM   12  C21 UNL     1      13.717  25.002  10.830  1.00  0.00     0.042 C 
HETATM   13  C22 UNL     1      13.387  23.255   9.071  1.00  0.00     0.042 C 
ENDBRANCH  10  11
ENDBRANCH   9  10
ENDBRANCH   8   9
BRANCH   8  14
HETATM   14  C23 UNL     1      17.513  24.346   6.584  1.00  0.00     0.090 C 
BRANCH  14  15
HETATM   15  O4  UNL     1      17.101  23.612   5.580  1.00  0.00    -0.361 OA
ATOM     16  H4  UNL     1      16.274  23.836   5.169  1.00  0.00     0.217 HD
ENDBRANCH  14  15
BRANCH  14  17
HETATM   17  C24 UNL     1      18.335  25.462   6.230  1.00  0.00    -0.039 C 
HETATM   18  C25 UNL     1      19.450  25.867   6.769  1.00  0.00     0.021 C 
HETATM   19  C26 UNL     1      17.874  26.336   5.052  1.00  0.00     0.050 C 
ENDBRANCH  14  17
ENDBRANCH   8  14
ENDBRANCH   7   8
ENDBRANCH   6   7
ENDBRANCH   5   6
ENDBRANCH   3   4
ENDBRANCH   2   3
BRANCH   1  20
HETATM   20  C12 UNL     1      13.452  16.613  10.782  1.00  0.00     0.065 C 
BRANCH  20  21
HETATM   21  C11 UNL     1      13.515  15.776  12.026  1.00  0.00    -0.052 A 
HETATM   22  C10 UNL     1      14.525  16.023  12.922  1.00  0.00     0.044 A 
HETATM   23  C9  UNL     1      14.548  15.230  14.067  1.00  0.00     0.066 A 
HETATM   24  C8  UNL     1      13.570  14.250  14.249  1.00  0.00     0.044 A 
HETATM   25  C7  UNL     1      12.578  14.032  13.334  1.00  0.00    -0.052 A 
HETATM   26  C27 UNL     1      12.554  14.820  12.194  1.00  0.00     0.015 A 
BRANCH  23  27
HETATM   27  O1  UNL     1      15.541  15.441  14.991  1.00  0.00    -0.361 OA
ATOM     28  H1  UNL     1      16.167  16.149  14.900  1.00  0.00     0.217 HD
ENDBRANCH  23  27
BRANCH  25  29
HETATM   29  C6  UNL     1      11.512  13.002  13.487  1.00  0.00     0.066 C 
BRANCH  29  30
HETATM   30  C5  UNL     1      10.727  13.335  14.697  1.00  0.00    -0.015 C 
HETATM   31  C3  UNL     1       9.419  13.313  14.790  1.00  0.00    -0.066 C 
HETATM   32  C4  UNL     1       8.811  13.688  16.118  1.00  0.00     0.048 C 
BRANCH  31  33
HETATM   33  C2  UNL     1       8.523  12.950  13.702  1.00  0.00    -0.004 C 
HETATM   34  C1  UNL     1       7.252  13.349  13.695  1.00  0.00     0.012 C 
ENDBRANCH  31  33
ENDBRANCH  29  30
ENDBRANCH  25  29
ENDBRANCH  20  21
ENDBRANCH   1  20
TORSDOF 17
ENDMDL
