MODEL 1
REMARK VINA RESULT: -8.254185799      0.000      0.000
REMARK  13 active torsions:
REMARK  status: ('A' for Active; 'I' for Inactive)
REMARK    1  A    between atoms: C2_2  and  C3_3 
REMARK    2  A    between atoms: C3_3  and  C4_4 
REMARK       I    between atoms: C4_4  and  N1_6 
REMARK    3  A    between atoms: N1_6  and  C5_8 
REMARK    4  A    between atoms: C5_8  and  C6_9 
REMARK    5  A    between atoms: C14_17  and  C15_18 
REMARK    6  A    between atoms: C16_21  and  N3_22 
REMARK    7  A    between atoms: N3_22  and  C17_24 
REMARK    8  A    between atoms: C17_24  and  C18_25 
REMARK    9  A    between atoms: C22_32  and  N5_33 
REMARK   10  A    between atoms: N6_36  and  C25_37 
REMARK   11  A    between atoms: C25_37  and  C26_38 
REMARK   12  A    between atoms: C26_38  and  C27_39 
REMARK   13  A    between atoms: C27_39  and  N7_40 
ROOT
HETATM    1  C15 UNL     1      14.671  21.082  16.616  1.00  0.00     0.118 A 
HETATM    2  N2  UNL     1      15.263  21.773  17.629  1.00  0.00    -0.179 N 
ATOM      3  H2  UNL     1      15.955  22.480  17.378  1.00  0.00     0.185 HD
HETATM    4  C16 UNL     1      15.006  21.597  18.920  1.00  0.00     0.694 A 
HETATM    5  N4  UNL     1      14.106  20.678  19.257  1.00  0.00    -0.022 N 
ATOM      6  H4  UNL     1      13.885  20.516  20.239  1.00  0.00     0.203 HD
HETATM    7  C22 UNL     1      13.484  19.961  18.294  1.00  0.00     0.696 A 
HETATM    8  N8  UNL     1      13.773  20.169  16.985  1.00  0.00    -0.179 N 
ATOM      9  H8  UNL     1      13.296  19.618  16.273  1.00  0.00     0.185 HD
ENDROOT
BRANCH   1  10
HETATM   10  C14 UNL     1      15.072  21.384  15.265  1.00  0.00     0.065 C 
HETATM   11  C6  UNL     1      14.061  21.612  14.187  1.00  0.00    -0.014 C 
HETATM   12  C7  UNL     1      12.850  22.341  14.612  1.00  0.00     0.012 C 
HETATM   13  C12 UNL     1      14.821  22.325  13.038  1.00  0.00     0.012 C 
HETATM   14  C8  UNL     1      12.955  23.818  14.753  1.00  0.00     0.001 C 
HETATM   15  C9  UNL     1      14.196  24.303  15.471  1.00  0.00     0.005 C 
HETATM   16  C10 UNL     1      15.461  23.853  14.848  1.00  0.00    -0.014 C 
HETATM   17  C11 UNL     1      15.228  23.711  13.347  1.00  0.00     0.005 C 
HETATM   18  C13 UNL     1      16.042  22.558  15.291  1.00  0.00     0.017 C 
BRANCH  11  19
HETATM   19  C5  UNL     1      13.646  20.319  13.509  1.00  0.00     0.133 C 
BRANCH  19  20
HETATM   20  N1  UNL     1      12.345  19.833  13.949  1.00  0.00    -0.360 N 
HETATM   21  C4  UNL     1      11.383  19.385  13.016  1.00  0.00     0.217 C 
HETATM   22  O1  UNL     1      11.665  19.408  11.797  1.00  0.00    -0.274 OA
ATOM     23  H1  UNL     1      12.124  19.817  14.945  1.00  0.00     0.162 HD
BRANCH  21  24
HETATM   24  C3  UNL     1      10.071  18.894  13.444  1.00  0.00     0.102 C 
BRANCH  24  25
HETATM   25  C2  UNL     1       8.953  19.819  13.008  1.00  0.00     0.005 C 
HETATM   26  C1  UNL     1       9.072  21.150  13.715  1.00  0.00     0.005 C 
ENDBRANCH  24  25
ENDBRANCH  21  24
ENDBRANCH  19  20
ENDBRANCH  11  19
ENDBRANCH   1  10
BRANCH   4  27
HETATM   27  N3  UNL     1      15.621  22.303  19.816  1.00  0.00    -0.223 N 
ATOM     28  H3  UNL     1      15.089  22.965  20.380  1.00  0.00     0.177 HD
BRANCH  27  29
HETATM   29  C17 UNL     1      17.045  22.174  20.036  1.00  0.00     0.170 C 
BRANCH  29  30
HETATM   30  C18 UNL     1      17.829  23.273  19.389  1.00  0.00     0.139 C 
HETATM   31  C19 UNL     1      17.076  24.549  19.216  1.00  0.00     0.035 C 
HETATM   32  C20 UNL     1      17.469  24.994  17.826  1.00  0.00     0.029 C 
HETATM   33  C21 UNL     1      18.579  24.050  17.441  1.00  0.00     0.168 C 
HETATM   34  O2  UNL     1      18.192  22.866  18.089  1.00  0.00    -0.384 OA
ENDBRANCH  29  30
ENDBRANCH  27  29
ENDBRANCH   4  27
BRANCH   7  35
HETATM   35  N5  UNL     1      12.516  18.982  18.658  1.00  0.00    -0.211 N 
HETATM   36  C23 UNL     1      12.953  17.634  18.964  1.00  0.00     0.185 C 
HETATM   37  C24 UNL     1      11.922  16.623  18.532  1.00  0.00     0.078 C 
HETATM   38  N6  UNL     1      10.667  16.912  19.088  1.00  0.00    -0.390 N 
HETATM   39  C30 UNL     1      10.567  18.166  19.714  1.00  0.00     0.142 C 
HETATM   40  C31 UNL     1      11.097  19.247  18.754  1.00  0.00     0.161 C 
BRANCH  38  41
HETATM   41  C25 UNL     1       9.509  16.332  18.528  1.00  0.00     0.123 C 
BRANCH  41  42
HETATM   42  C26 UNL     1       9.694  15.853  17.102  1.00  0.00     0.050 C 
BRANCH  42  43
HETATM   43  C27 UNL     1       9.234  14.409  16.977  1.00  0.00     0.273 C 
BRANCH  43  44
HETATM   44  N7  UNL     1       8.974  14.003  15.627  1.00  0.00     0.080 N 
HETATM   45  C28 UNL     1       9.575  15.027  14.766  1.00  0.00     0.309 C 
HETATM   46  C29 UNL     1       9.612  12.761  15.246  1.00  0.00     0.309 C 
ENDBRANCH  43  44
ENDBRANCH  42  43
ENDBRANCH  41  42
ENDBRANCH  38  41
ENDBRANCH   7  35
TORSDOF 13
ENDMDL
MODEL 2
REMARK VINA RESULT: -8.240122660      3.305      6.039
REMARK  13 active torsions:
REMARK  status: ('A' for Active; 'I' for Inactive)
REMARK    1  A    between atoms: C2_2  and  C3_3 
REMARK    2  A    between atoms: C3_3  and  C4_4 
REMARK       I    between atoms: C4_4  and  N1_6 
REMARK    3  A    between atoms: N1_6  and  C5_8 
REMARK    4  A    between atoms: C5_8  and  C6_9 
REMARK    5  A    between atoms: C14_17  and  C15_18 
REMARK    6  A    between atoms: C16_21  and  N3_22 
REMARK    7  A    between atoms: N3_22  and  C17_24 
REMARK    8  A    between atoms: C17_24  and  C18_25 
REMARK    9  A    between atoms: C22_32  and  N5_33 
REMARK   10  A    between atoms: N6_36  and  C25_37 
REMARK   11  A    between atoms: C25_37  and  C26_38 
REMARK   12  A    between atoms: C26_38  and  C27_39 
REMARK   13  A    between atoms: C27_39  and  N7_40 
ROOT
HETATM    1  C15 UNL     1      18.714  24.502  16.285  1.00  0.00     0.118 A 
HETATM    2  N2  UNL     1      19.512  24.486  17.389  1.00  0.00    -0.179 N 
ATOM      3  H2  UNL     1      20.382  25.018  17.350  1.00  0.00     0.185 HD
HETATM    4  C16 UNL     1      19.242  23.830  18.511  1.00  0.00     0.694 A 
HETATM    5  N4  UNL     1      18.111  23.134  18.570  1.00  0.00    -0.022 N 
ATOM      6  H4  UNL     1      17.872  22.617  19.416  1.00  0.00     0.203 HD
HETATM    7  C22 UNL     1      17.277  23.113  17.505  1.00  0.00     0.696 A 
HETATM    8  N8  UNL     1      17.588  23.795  16.374  1.00  0.00    -0.179 N 
ATOM      9  H8  UNL     1      16.949  23.767  15.581  1.00  0.00     0.185 HD
ENDROOT
BRANCH   1  10
HETATM   10  C14 UNL     1      19.159  25.253  15.138  1.00  0.00     0.065 C 
HETATM   11  C6  UNL     1      18.867  26.714  15.006  1.00  0.00    -0.014 C 
HETATM   12  C7  UNL     1      18.934  27.480  16.266  1.00  0.00     0.012 C 
HETATM   13  C12 UNL     1      19.846  27.245  13.926  1.00  0.00     0.012 C 
HETATM   14  C8  UNL     1      20.282  27.849  16.772  1.00  0.00     0.001 C 
HETATM   15  C9  UNL     1      21.308  26.736  16.723  1.00  0.00     0.005 C 
HETATM   16  C10 UNL     1      21.511  26.168  15.372  1.00  0.00    -0.014 C 
HETATM   17  C11 UNL     1      21.261  27.273  14.349  1.00  0.00     0.005 C 
HETATM   18  C13 UNL     1      20.654  25.028  14.953  1.00  0.00     0.017 C 
BRANCH  11  19
HETATM   19  C5  UNL     1      17.527  26.971  14.342  1.00  0.00     0.133 C 
BRANCH  19  20
HETATM   20  N1  UNL     1      17.081  25.865  13.506  1.00  0.00    -0.360 N 
HETATM   21  C4  UNL     1      15.964  25.081  13.872  1.00  0.00     0.217 C 
HETATM   22  O1  UNL     1      15.356  25.350  14.933  1.00  0.00    -0.274 OA
ATOM     23  H1  UNL     1      17.582  25.653  12.642  1.00  0.00     0.162 HD
BRANCH  21  24
HETATM   24  C3  UNL     1      15.504  23.965  13.041  1.00  0.00     0.102 C 
BRANCH  24  25
HETATM   25  C2  UNL     1      15.008  22.804  13.879  1.00  0.00     0.005 C 
HETATM   26  C1  UNL     1      14.549  21.675  12.985  1.00  0.00     0.005 C 
ENDBRANCH  24  25
ENDBRANCH  21  24
ENDBRANCH  19  20
ENDBRANCH  11  19
ENDBRANCH   1  10
BRANCH   4  27
HETATM   27  N3  UNL     1      20.063  23.873  19.513  1.00  0.00    -0.223 N 
ATOM     28  H3  UNL     1      20.956  23.384  19.445  1.00  0.00     0.177 HD
BRANCH  27  29
HETATM   29  C17 UNL     1      19.744  24.597  20.724  1.00  0.00     0.170 C 
BRANCH  29  30
HETATM   30  C18 UNL     1      20.815  25.568  21.113  1.00  0.00     0.139 C 
HETATM   31  C19 UNL     1      20.527  26.984  20.745  1.00  0.00     0.035 C 
HETATM   32  C20 UNL     1      21.855  27.478  20.217  1.00  0.00     0.029 C 
HETATM   33  C21 UNL     1      22.817  26.367  20.551  1.00  0.00     0.168 C 
HETATM   34  O2  UNL     1      22.001  25.231  20.429  1.00  0.00    -0.384 OA
ENDBRANCH  29  30
ENDBRANCH  27  29
ENDBRANCH   4  27
BRANCH   7  35
HETATM   35  N5  UNL     1      16.064  22.371  17.574  1.00  0.00    -0.211 N 
HETATM   36  C23 UNL     1      14.805  23.083  17.675  1.00  0.00     0.185 C 
HETATM   37  C24 UNL     1      13.816  22.310  18.511  1.00  0.00     0.078 C 
HETATM   38  N6  UNL     1      13.650  21.006  18.020  1.00  0.00    -0.390 N 
HETATM   39  C30 UNL     1      14.575  20.617  17.037  1.00  0.00     0.142 C 
HETATM   40  C31 UNL     1      15.998  20.926  17.540  1.00  0.00     0.161 C 
BRANCH  38  41
HETATM   41  C25 UNL     1      13.076  20.020  18.850  1.00  0.00     0.123 C 
BRANCH  41  42
HETATM   42  C26 UNL     1      12.217  19.019  18.104  1.00  0.00     0.050 C 
BRANCH  42  43
HETATM   43  C27 UNL     1      12.441  17.624  18.666  1.00  0.00     0.273 C 
BRANCH  43  44
HETATM   44  N7  UNL     1      11.336  17.130  19.436  1.00  0.00     0.080 N 
HETATM   45  C28 UNL     1      11.660  17.400  20.841  1.00  0.00     0.309 C 
HETATM   46  C29 UNL     1      10.087  17.819  19.194  1.00  0.00     0.309 C 
ENDBRANCH  43  44
ENDBRANCH  42  43
ENDBRANCH  41  42
ENDBRANCH  38  41
ENDBRANCH   7  35
TORSDOF 13
ENDMDL
MODEL 3
REMARK VINA RESULT: -8.176475956      2.556      4.579
REMARK  13 active torsions:
REMARK  status: ('A' for Active; 'I' for Inactive)
REMARK    1  A    between atoms: C2_2  and  C3_3 
REMARK    2  A    between atoms: C3_3  and  C4_4 
REMARK       I    between atoms: C4_4  and  N1_6 
REMARK    3  A    between atoms: N1_6  and  C5_8 
REMARK    4  A    between atoms: C5_8  and  C6_9 
REMARK    5  A    between atoms: C14_17  and  C15_18 
REMARK    6  A    between atoms: C16_21  and  N3_22 
REMARK    7  A    between atoms: N3_22  and  C17_24 
REMARK    8  A    between atoms: C17_24  and  C18_25 
REMARK    9  A    between atoms: C22_32  and  N5_33 
REMARK   10  A    between atoms: N6_36  and  C25_37 
REMARK   11  A    between atoms: C25_37  and  C26_38 
REMARK   12  A    between atoms: C26_38  and  C27_39 
REMARK   13  A    between atoms: C27_39  and  N7_40 
ROOT
HETATM    1  C15 UNL     1      17.586  23.387  16.691  1.00  0.00     0.118 A 
HETATM    2  N2  UNL     1      18.376  23.596  17.780  1.00  0.00    -0.179 N 
ATOM      3  H2  UNL     1      19.185  24.207  17.667  1.00  0.00     0.185 HD
HETATM    4  C16 UNL     1      18.172  23.062  18.979  1.00  0.00     0.694 A 
HETATM    5  N4  UNL     1      17.120  22.264  19.136  1.00  0.00    -0.022 N 
ATOM      6  H4  UNL     1      16.933  21.837  20.043  1.00  0.00     0.203 HD
HETATM    7  C22 UNL     1      16.298  22.021  18.090  1.00  0.00     0.696 A 
HETATM    8  N8  UNL     1      16.540  22.584  16.879  1.00  0.00    -0.179 N 
ATOM      9  H8  UNL     1      15.911  22.388  16.101  1.00  0.00     0.185 HD
ENDROOT
BRANCH   1  10
HETATM   10  C14 UNL     1      17.954  24.030  15.454  1.00  0.00     0.065 C 
HETATM   11  C6  UNL     1      17.500  25.419  15.136  1.00  0.00    -0.014 C 
HETATM   12  C7  UNL     1      17.467  26.344  16.286  1.00  0.00     0.012 C 
HETATM   13  C12 UNL     1      18.423  25.913  13.992  1.00  0.00     0.012 C 
HETATM   14  C8  UNL     1      18.760  26.926  16.733  1.00  0.00     0.001 C 
HETATM   15  C9  UNL     1      19.905  25.940  16.824  1.00  0.00     0.005 C 
HETATM   16  C10 UNL     1      20.185  25.229  15.557  1.00  0.00    -0.014 C 
HETATM   17  C11 UNL     1      19.822  26.157  14.401  1.00  0.00     0.005 C 
HETATM   18  C13 UNL     1      19.467  23.954  15.292  1.00  0.00     0.017 C 
BRANCH  11  19
HETATM   19  C5  UNL     1      16.146  25.434  14.451  1.00  0.00     0.133 C 
BRANCH  19  20
HETATM   20  N1  UNL     1      15.876  24.222  13.689  1.00  0.00    -0.360 N 
HETATM   21  C4  UNL     1      14.838  23.341  14.068  1.00  0.00     0.217 C 
HETATM   22  O1  UNL     1      14.147  23.617  15.074  1.00  0.00    -0.274 OA
ATOM     23  H1  UNL     1      16.445  24.006  12.869  1.00  0.00     0.162 HD
BRANCH  21  24
HETATM   24  C3  UNL     1      14.556  22.119  13.311  1.00  0.00     0.102 C 
BRANCH  24  25
HETATM   25  C2  UNL     1      13.956  21.039  14.188  1.00  0.00     0.005 C 
HETATM   26  C1  UNL     1      13.221  20.026  13.339  1.00  0.00     0.005 C 
ENDBRANCH  24  25
ENDBRANCH  21  24
ENDBRANCH  19  20
ENDBRANCH  11  19
ENDBRANCH   1  10
BRANCH   4  27
HETATM   27  N3  UNL     1      18.980  23.317  19.960  1.00  0.00    -0.223 N 
ATOM     28  H3  UNL     1      19.655  22.609  20.246  1.00  0.00     0.177 HD
BRANCH  27  29
HETATM   29  C17 UNL     1      18.946  24.583  20.659  1.00  0.00     0.170 C 
BRANCH  29  30
HETATM   30  C18 UNL     1      20.310  25.171  20.850  1.00  0.00     0.139 C 
HETATM   31  C19 UNL     1      20.365  26.656  20.730  1.00  0.00     0.035 C 
HETATM   32  C20 UNL     1      21.621  26.889  19.923  1.00  0.00     0.029 C 
HETATM   33  C21 UNL     1      22.274  25.532  19.864  1.00  0.00     0.168 C 
HETATM   34  O2  UNL     1      21.161  24.676  19.842  1.00  0.00    -0.384 OA
ENDBRANCH  29  30
ENDBRANCH  27  29
ENDBRANCH   4  27
BRANCH   7  35
HETATM   35  N5  UNL     1      15.169  21.171  18.262  1.00  0.00    -0.211 N 
HETATM   36  C23 UNL     1      14.139  21.547  19.210  1.00  0.00     0.185 C 
HETATM   37  C24 UNL     1      13.535  20.328  19.861  1.00  0.00     0.078 C 
HETATM   38  N6  UNL     1      13.065  19.423  18.898  1.00  0.00    -0.390 N 
HETATM   39  C30 UNL     1      13.448  19.705  17.576  1.00  0.00     0.142 C 
HETATM   40  C31 UNL     1      14.971  19.935  17.537  1.00  0.00     0.161 C 
BRANCH  38  41
HETATM   41  C25 UNL     1      12.814  18.084  19.267  1.00  0.00     0.123 C 
BRANCH  41  42
HETATM   42  C26 UNL     1      11.606  17.915  20.167  1.00  0.00     0.050 C 
BRANCH  42  43
HETATM   43  C27 UNL     1      10.335  17.924  19.332  1.00  0.00     0.273 C 
BRANCH  43  44
HETATM   44  N7  UNL     1      10.475  17.273  18.062  1.00  0.00     0.080 N 
HETATM   45  C28 UNL     1       9.747  16.004  18.168  1.00  0.00     0.309 C 
HETATM   46  C29 UNL     1       9.857  17.978  16.960  1.00  0.00     0.309 C 
ENDBRANCH  43  44
ENDBRANCH  42  43
ENDBRANCH  41  42
ENDBRANCH  38  41
ENDBRANCH   7  35
TORSDOF 13
ENDMDL
MODEL 4
REMARK VINA RESULT: -8.140066379      5.601      9.892
REMARK  13 active torsions:
REMARK  status: ('A' for Active; 'I' for Inactive)
REMARK    1  A    between atoms: C2_2  and  C3_3 
REMARK    2  A    between atoms: C3_3  and  C4_4 
REMARK       I    between atoms: C4_4  and  N1_6 
REMARK    3  A    between atoms: N1_6  and  C5_8 
REMARK    4  A    between atoms: C5_8  and  C6_9 
REMARK    5  A    between atoms: C14_17  and  C15_18 
REMARK    6  A    between atoms: C16_21  and  N3_22 
REMARK    7  A    between atoms: N3_22  and  C17_24 
REMARK    8  A    between atoms: C17_24  and  C18_25 
REMARK    9  A    between atoms: C22_32  and  N5_33 
REMARK   10  A    between atoms: N6_36  and  C25_37 
REMARK   11  A    between atoms: C25_37  and  C26_38 
REMARK   12  A    between atoms: C26_38  and  C27_39 
REMARK   13  A    between atoms: C27_39  and  N7_40 
ROOT
HETATM    1  C15 UNL     1      20.067  26.935  17.680  1.00  0.00     0.118 A 
HETATM    2  N2  UNL     1      20.556  26.994  18.950  1.00  0.00    -0.179 N 
ATOM      3  H2  UNL     1      21.311  27.655  19.135  1.00  0.00     0.185 HD
HETATM    4  C16 UNL     1      20.122  26.255  19.965  1.00  0.00     0.694 A 
HETATM    5  N4  UNL     1      19.139  25.392  19.732  1.00  0.00    -0.022 N 
ATOM      6  H4  UNL     1      18.782  24.807  20.488  1.00  0.00     0.203 HD
HETATM    7  C22 UNL     1      18.612  25.290  18.491  1.00  0.00     0.696 A 
HETATM    8  N8  UNL     1      19.082  26.061  17.479  1.00  0.00    -0.179 N 
ATOM      9  H8  UNL     1      18.674  25.971  16.549  1.00  0.00     0.185 HD
ENDROOT
BRANCH   1  10
HETATM   10  C14 UNL     1      20.657  27.797  16.687  1.00  0.00     0.065 C 
HETATM   11  C6  UNL     1      21.758  27.316  15.796  1.00  0.00    -0.014 C 
HETATM   12  C7  UNL     1      21.632  25.914  15.351  1.00  0.00     0.012 C 
HETATM   13  C12 UNL     1      21.816  28.320  14.616  1.00  0.00     0.012 C 
HETATM   14  C8  UNL     1      20.683  25.631  14.242  1.00  0.00     0.001 C 
HETATM   15  C9  UNL     1      19.338  26.316  14.364  1.00  0.00     0.005 C 
HETATM   16  C10 UNL     1      19.424  27.789  14.472  1.00  0.00    -0.014 C 
HETATM   17  C11 UNL     1      20.658  28.251  13.701  1.00  0.00     0.005 C 
HETATM   18  C13 UNL     1      19.547  28.388  15.827  1.00  0.00     0.017 C 
BRANCH  11  19
HETATM   19  C5  UNL     1      23.126  27.515  16.421  1.00  0.00     0.133 C 
BRANCH  19  20
HETATM   20  N1  UNL     1      23.635  26.319  17.080  1.00  0.00    -0.360 N 
HETATM   21  C4  UNL     1      23.914  26.315  18.465  1.00  0.00     0.217 C 
HETATM   22  O1  UNL     1      23.718  27.360  19.125  1.00  0.00    -0.274 OA
ATOM     23  H1  UNL     1      23.791  25.471  16.533  1.00  0.00     0.162 HD
BRANCH  21  24
HETATM   24  C3  UNL     1      24.426  25.120  19.140  1.00  0.00     0.102 C 
BRANCH  24  25
HETATM   25  C2  UNL     1      25.457  24.395  18.299  1.00  0.00     0.005 C 
HETATM   26  C1  UNL     1      25.655  22.988  18.815  1.00  0.00     0.005 C 
ENDBRANCH  24  25
ENDBRANCH  21  24
ENDBRANCH  19  20
ENDBRANCH  11  19
ENDBRANCH   1  10
BRANCH   4  27
HETATM   27  N3  UNL     1      20.650  26.379  21.142  1.00  0.00    -0.223 N 
ATOM     28  H3  UNL     1      20.295  27.097  21.773  1.00  0.00     0.177 HD
BRANCH  27  29
HETATM   29  C17 UNL     1      21.730  25.523  21.582  1.00  0.00     0.170 C 
BRANCH  29  30
HETATM   30  C18 UNL     1      22.832  26.285  22.251  1.00  0.00     0.139 C 
HETATM   31  C19 UNL     1      23.868  25.432  22.899  1.00  0.00     0.035 C 
HETATM   32  C20 UNL     1      24.122  26.137  24.212  1.00  0.00     0.029 C 
HETATM   33  C21 UNL     1      23.377  27.440  24.076  1.00  0.00     0.168 C 
HETATM   34  O2  UNL     1      22.277  27.064  23.287  1.00  0.00    -0.384 OA
ENDBRANCH  29  30
ENDBRANCH  27  29
ENDBRANCH   4  27
BRANCH   7  35
HETATM   35  N5  UNL     1      17.555  24.368  18.247  1.00  0.00    -0.211 N 
HETATM   36  C23 UNL     1      17.729  22.977  18.617  1.00  0.00     0.185 C 
HETATM   37  C24 UNL     1      17.013  22.069  17.649  1.00  0.00     0.078 C 
HETATM   38  N6  UNL     1      15.660  22.421  17.534  1.00  0.00    -0.390 N 
HETATM   39  C30 UNL     1      15.309  23.644  18.129  1.00  0.00     0.142 C 
HETATM   40  C31 UNL     1      16.288  24.732  17.649  1.00  0.00     0.161 C 
BRANCH  38  41
HETATM   41  C25 UNL     1      14.914  21.958  16.429  1.00  0.00     0.123 C 
BRANCH  41  42
HETATM   42  C26 UNL     1      13.673  22.779  16.142  1.00  0.00     0.050 C 
BRANCH  42  43
HETATM   43  C27 UNL     1      13.773  23.402  14.759  1.00  0.00     0.273 C 
BRANCH  43  44
HETATM   44  N7  UNL     1      15.091  23.344  14.196  1.00  0.00     0.080 N 
HETATM   45  C28 UNL     1      14.938  22.784  12.849  1.00  0.00     0.309 C 
HETATM   46  C29 UNL     1      15.714  24.636  14.004  1.00  0.00     0.309 C 
ENDBRANCH  43  44
ENDBRANCH  42  43
ENDBRANCH  41  42
ENDBRANCH  38  41
ENDBRANCH   7  35
TORSDOF 13
ENDMDL
MODEL 5
REMARK VINA RESULT: -8.136446390      5.277      9.849
REMARK  13 active torsions:
REMARK  status: ('A' for Active; 'I' for Inactive)
REMARK    1  A    between atoms: C2_2  and  C3_3 
REMARK    2  A    between atoms: C3_3  and  C4_4 
REMARK       I    between atoms: C4_4  and  N1_6 
REMARK    3  A    between atoms: N1_6  and  C5_8 
REMARK    4  A    between atoms: C5_8  and  C6_9 
REMARK    5  A    between atoms: C14_17  and  C15_18 
REMARK    6  A    between atoms: C16_21  and  N3_22 
REMARK    7  A    between atoms: N3_22  and  C17_24 
REMARK    8  A    between atoms: C17_24  and  C18_25 
REMARK    9  A    between atoms: C22_32  and  N5_33 
REMARK   10  A    between atoms: N6_36  and  C25_37 
REMARK   11  A    between atoms: C25_37  and  C26_38 
REMARK   12  A    between atoms: C26_38  and  C27_39 
REMARK   13  A    between atoms: C27_39  and  N7_40 
ROOT
HETATM    1  C15 UNL     1      20.440  27.244  17.791  1.00  0.00     0.118 A 
HETATM    2  N2  UNL     1      20.714  27.750  19.025  1.00  0.00    -0.179 N 
ATOM      3  H2  UNL     1      21.250  28.617  19.072  1.00  0.00     0.185 HD
HETATM    4  C16 UNL     1      20.336  27.199  20.172  1.00  0.00     0.694 A 
HETATM    5  N4  UNL     1      19.638  26.068  20.121  1.00  0.00    -0.022 N 
ATOM      6  H4  UNL     1      19.332  25.617  20.983  1.00  0.00     0.203 HD
HETATM    7  C22 UNL     1      19.335  25.519  18.923  1.00  0.00     0.696 A 
HETATM    8  N8  UNL     1      19.739  26.111  17.772  1.00  0.00    -0.179 N 
ATOM      9  H8  UNL     1      19.503  25.682  16.878  1.00  0.00     0.185 HD
ENDROOT
BRANCH   1  10
HETATM   10  C14 UNL     1      20.936  27.957  16.641  1.00  0.00     0.065 C 
HETATM   11  C6  UNL     1      21.847  27.302  15.652  1.00  0.00    -0.014 C 
HETATM   12  C7  UNL     1      21.546  25.884  15.373  1.00  0.00     0.012 C 
HETATM   13  C12 UNL     1      21.800  28.189  14.381  1.00  0.00     0.012 C 
HETATM   14  C8  UNL     1      20.419  25.593  14.448  1.00  0.00     0.001 C 
HETATM   15  C9  UNL     1      19.166  26.405  14.695  1.00  0.00     0.005 C 
HETATM   16  C10 UNL     1      19.381  27.868  14.641  1.00  0.00    -0.014 C 
HETATM   17  C11 UNL     1      20.514  28.147  13.656  1.00  0.00     0.005 C 
HETATM   18  C13 UNL     1      19.756  28.570  15.897  1.00  0.00     0.017 C 
BRANCH  11  19
HETATM   19  C5  UNL     1      23.306  27.429  16.048  1.00  0.00     0.133 C 
BRANCH  19  20
HETATM   20  N1  UNL     1      23.790  26.295  16.826  1.00  0.00    -0.360 N 
HETATM   21  C4  UNL     1      24.062  26.424  18.206  1.00  0.00     0.217 C 
HETATM   22  O1  UNL     1      23.881  27.533  18.759  1.00  0.00    -0.274 OA
ATOM     23  H1  UNL     1      23.933  25.395  16.367  1.00  0.00     0.162 HD
BRANCH  21  24
HETATM   24  C3  UNL     1      24.549  25.293  19.000  1.00  0.00     0.102 C 
BRANCH  24  25
HETATM   25  C2  UNL     1      25.547  24.452  18.230  1.00  0.00     0.005 C 
HETATM   26  C1  UNL     1      25.495  23.017  18.703  1.00  0.00     0.005 C 
ENDBRANCH  24  25
ENDBRANCH  21  24
ENDBRANCH  19  20
ENDBRANCH  11  19
ENDBRANCH   1  10
BRANCH   4  27
HETATM   27  N3  UNL     1      20.644  27.753  21.302  1.00  0.00    -0.223 N 
ATOM     28  H3  UNL     1      20.386  28.726  21.466  1.00  0.00     0.177 HD
BRANCH  27  29
HETATM   29  C17 UNL     1      21.346  27.025  22.337  1.00  0.00     0.170 C 
BRANCH  29  30
HETATM   30  C18 UNL     1      22.754  26.692  21.951  1.00  0.00     0.139 C 
HETATM   31  C19 UNL     1      23.220  25.352  22.411  1.00  0.00     0.035 C 
HETATM   32  C20 UNL     1      24.624  25.626  22.900  1.00  0.00     0.029 C 
HETATM   33  C21 UNL     1      24.895  27.041  22.459  1.00  0.00     0.168 C 
HETATM   34  O2  UNL     1      23.621  27.625  22.556  1.00  0.00    -0.384 OA
ENDBRANCH  29  30
ENDBRANCH  27  29
ENDBRANCH   4  27
BRANCH   7  35
HETATM   35  N5  UNL     1      18.582  24.311  18.872  1.00  0.00    -0.211 N 
HETATM   36  C23 UNL     1      18.338  23.683  17.588  1.00  0.00     0.185 C 
HETATM   37  C24 UNL     1      16.990  23.009  17.566  1.00  0.00     0.078 C 
HETATM   38  N6  UNL     1      16.860  22.105  18.630  1.00  0.00    -0.390 N 
HETATM   39  C30 UNL     1      17.871  22.180  19.603  1.00  0.00     0.142 C 
HETATM   40  C31 UNL     1      18.038  23.649  20.037  1.00  0.00     0.161 C 
BRANCH  38  41
HETATM   41  C25 UNL     1      15.576  21.660  19.010  1.00  0.00     0.123 C 
BRANCH  41  42
HETATM   42  C26 UNL     1      14.445  22.418  18.345  1.00  0.00     0.050 C 
BRANCH  42  43
HETATM   43  C27 UNL     1      13.496  21.442  17.668  1.00  0.00     0.273 C 
BRANCH  43  44
HETATM   44  N7  UNL     1      13.248  21.743  16.288  1.00  0.00     0.080 N 
HETATM   45  C28 UNL     1      13.559  23.166  16.115  1.00  0.00     0.309 C 
HETATM   46  C29 UNL     1      14.116  21.047  15.362  1.00  0.00     0.309 C 
ENDBRANCH  43  44
ENDBRANCH  42  43
ENDBRANCH  41  42
ENDBRANCH  38  41
ENDBRANCH   7  35
TORSDOF 13
ENDMDL
