MODEL 1
REMARK VINA RESULT: -9.734613427      0.000      0.000
REMARK  12 active torsions:
REMARK  status: ('A' for Active; 'I' for Inactive)
REMARK    1  A    between atoms: C2_2  and  C3_3 
REMARK    2  A    between atoms: C3_3  and  C4_4 
REMARK    3  A    between atoms: C4_4  and  N1_5 
REMARK       I    between atoms: N1_5  and  C5_7 
REMARK       I    between atoms: C5_7  and  N2_9 
REMARK       I    between atoms: N3_12  and  C8_13 
REMARK    4  A    between atoms: C8_13  and  C9_15 
REMARK    5  A    between atoms: C9_15  and  C10_17 
REMARK    6  A    between atoms: C10_17  and  C11_18 
REMARK    7  A    between atoms: C10_17  and  N4_25 
REMARK    8  A    between atoms: C11_18  and  C12_19 
REMARK       I    between atoms: N4_25  and  C18_27 
REMARK    9  A    between atoms: C18_27  and  C19_29 
REMARK   10  A    between atoms: C19_29  and  C20_30 
REMARK   11  A    between atoms: C19_29  and  N5_37 
REMARK   12  A    between atoms: C20_30  and  C21_31 
ROOT
HETATM    1  C10 UNL     1      18.078  24.011  18.122  1.00  0.00     0.165 C 
ENDROOT
BRANCH   1   2
HETATM    2  C9  UNL     1      17.439  22.642  17.999  1.00  0.00     0.239 C 
HETATM    3  O3  UNL     1      17.891  21.942  17.044  1.00  0.00    -0.285 OA
BRANCH   2   4
HETATM    4  C8  UNL     1      16.429  22.142  18.845  1.00  0.00     0.291 C 
HETATM    5  N3  UNL     1      15.090  21.861  18.476  1.00  0.00    -0.342 N 
HETATM    6  C7  UNL     1      14.492  22.071  17.209  1.00  0.00     0.146 C 
HETATM    7  C28 UNL     1      14.195  21.261  19.491  1.00  0.00     0.146 C 
HETATM    8  C6  UNL     1      14.135  20.687  16.634  1.00  0.00     0.147 C 
HETATM    9  N2  UNL     1      13.099  20.189  17.546  1.00  0.00    -0.331 N 
HETATM   10  C5  UNL     1      11.870  19.744  16.991  1.00  0.00     0.318 C 
HETATM   11  C29 UNL     1      13.338  20.171  18.955  1.00  0.00     0.147 C 
HETATM   12  N1  UNL     1      10.783  19.220  17.748  1.00  0.00    -0.343 N 
HETATM   13  O1  UNL     1      11.728  19.818  15.724  1.00  0.00    -0.247 OA
ATOM     14  H1  UNL     1      10.856  19.141  18.763  1.00  0.00     0.164 HD
HETATM   15  O2  UNL     1      16.712  21.905  20.082  1.00  0.00    -0.264 OA
BRANCH  12  16
HETATM   16  C4  UNL     1       9.578  18.801  17.071  1.00  0.00     0.124 C 
BRANCH  16  17
HETATM   17  C3  UNL     1       9.571  17.313  16.906  1.00  0.00     0.019 C 
BRANCH  17  18
HETATM   18  C2  UNL     1       9.531  16.655  18.255  1.00  0.00    -0.003 C 
HETATM   19  C1  UNL     1       9.090  15.207  18.061  1.00  0.00     0.005 C 
ENDBRANCH  17  18
ENDBRANCH  16  17
ENDBRANCH  12  16
ENDBRANCH   2   4
ENDBRANCH   1   2
BRANCH   1  20
HETATM   20  C11 UNL     1      19.258  24.085  18.941  1.00  0.00     0.038 C 
BRANCH  20  21
HETATM   21  C12 UNL     1      19.789  25.348  19.502  1.00  0.00    -0.012 C 
HETATM   22  C13 UNL     1      20.733  26.115  18.688  1.00  0.00     0.005 C 
HETATM   23  C14 UNL     1      20.901  27.520  19.272  1.00  0.00     0.000 C 
HETATM   24  C15 UNL     1      20.677  27.485  20.738  1.00  0.00     0.000 C 
HETATM   25  C16 UNL     1      21.211  26.232  21.375  1.00  0.00     0.000 C 
HETATM   26  C17 UNL     1      20.496  25.036  20.839  1.00  0.00     0.005 C 
ENDBRANCH  20  21
ENDBRANCH   1  20
BRANCH   1  27
HETATM   27  N4  UNL     1      18.159  24.485  16.767  1.00  0.00    -0.347 N 
HETATM   28  C18 UNL     1      17.203  25.422  16.267  1.00  0.00     0.243 C 
HETATM   29  O4  UNL     1      16.303  25.836  17.039  1.00  0.00    -0.271 OA
ATOM     30  H4  UNL     1      18.905  24.150  16.157  1.00  0.00     0.163 HD
BRANCH  28  31
HETATM   31  C19 UNL     1      17.267  25.905  14.839  1.00  0.00     0.202 C 
BRANCH  31  32
HETATM   32  C20 UNL     1      18.686  25.870  14.454  1.00  0.00     0.041 C 
BRANCH  32  33
HETATM   33  C21 UNL     1      19.630  26.905  14.886  1.00  0.00    -0.012 C 
HETATM   34  C22 UNL     1      21.098  26.594  14.828  1.00  0.00     0.005 C 
HETATM   35  C23 UNL     1      21.843  27.715  15.564  1.00  0.00     0.000 C 
HETATM   36  C24 UNL     1      21.538  29.066  15.009  1.00  0.00     0.000 C 
HETATM   37  C25 UNL     1      20.616  28.927  13.832  1.00  0.00     0.000 C 
HETATM   38  C26 UNL     1      19.333  28.282  14.314  1.00  0.00     0.005 C 
ENDBRANCH  32  33
ENDBRANCH  31  32
BRANCH  31  39
HETATM   39  N5  UNL     1      16.365  25.073  14.088  1.00  0.00    -0.257 N 
HETATM   40  C27 UNL     1      16.212  25.003  12.756  1.00  0.00     0.220 A 
HETATM   41  N6  UNL     1      15.255  24.106  12.486  1.00  0.00    -0.279 N 
HETATM   42  N7  UNL     1      14.844  23.645  13.652  1.00  0.00    -0.227 N 
ATOM     43  H6  UNL     1      14.914  23.833  11.564  1.00  0.00     0.189 HD
HETATM   44  N8  UNL     1      15.512  24.228  14.616  1.00  0.00    -0.224 N 
ATOM     45  H7  UNL     1      14.116  22.942  13.782  1.00  0.00     0.210 HD
ATOM     46  H8  UNL     1      15.389  24.054  15.613  1.00  0.00     0.210 HD
ENDBRANCH  31  39
ENDBRANCH  28  31
ENDBRANCH   1  27
TORSDOF 12
ENDMDL
MODEL 2
REMARK VINA RESULT: -9.697916808      2.528     10.841
REMARK  12 active torsions:
REMARK  status: ('A' for Active; 'I' for Inactive)
REMARK    1  A    between atoms: C2_2  and  C3_3 
REMARK    2  A    between atoms: C3_3  and  C4_4 
REMARK    3  A    between atoms: C4_4  and  N1_5 
REMARK       I    between atoms: N1_5  and  C5_7 
REMARK       I    between atoms: C5_7  and  N2_9 
REMARK       I    between atoms: N3_12  and  C8_13 
REMARK    4  A    between atoms: C8_13  and  C9_15 
REMARK    5  A    between atoms: C9_15  and  C10_17 
REMARK    6  A    between atoms: C10_17  and  C11_18 
REMARK    7  A    between atoms: C10_17  and  N4_25 
REMARK    8  A    between atoms: C11_18  and  C12_19 
REMARK       I    between atoms: N4_25  and  C18_27 
REMARK    9  A    between atoms: C18_27  and  C19_29 
REMARK   10  A    between atoms: C19_29  and  C20_30 
REMARK   11  A    between atoms: C19_29  and  N5_37 
REMARK   12  A    between atoms: C20_30  and  C21_31 
ROOT
HETATM    1  C10 UNL     1      13.402  22.790  15.472  1.00  0.00     0.165 C 
ENDROOT
BRANCH   1   2
HETATM    2  C9  UNL     1      14.617  22.728  14.568  1.00  0.00     0.239 C 
HETATM    3  O3  UNL     1      15.050  21.556  14.359  1.00  0.00    -0.285 OA
BRANCH   2   4
HETATM    4  C8  UNL     1      15.249  23.845  13.987  1.00  0.00     0.291 C 
HETATM    5  N3  UNL     1      16.103  24.764  14.648  1.00  0.00    -0.342 N 
HETATM    6  C7  UNL     1      16.447  24.772  16.021  1.00  0.00     0.146 C 
HETATM    7  C28 UNL     1      16.740  25.831  13.844  1.00  0.00     0.146 C 
HETATM    8  C6  UNL     1      17.956  24.475  16.119  1.00  0.00     0.147 C 
HETATM    9  N2  UNL     1      18.580  25.645  15.490  1.00  0.00    -0.331 N 
HETATM   10  C5  UNL     1      19.582  26.345  16.213  1.00  0.00     0.318 C 
HETATM   11  C29 UNL     1      18.170  26.057  14.185  1.00  0.00     0.147 C 
HETATM   12  N1  UNL     1      20.286  27.482  15.725  1.00  0.00    -0.343 N 
HETATM   13  O1  UNL     1      19.872  25.925  17.384  1.00  0.00    -0.247 OA
ATOM     14  H1  UNL     1      20.088  27.848  14.794  1.00  0.00     0.164 HD
HETATM   15  O2  UNL     1      15.058  24.089  12.733  1.00  0.00    -0.264 OA
BRANCH  12  16
HETATM   16  C4  UNL     1      21.285  28.115  16.556  1.00  0.00     0.124 C 
BRANCH  16  17
HETATM   17  C3  UNL     1      22.587  28.198  15.823  1.00  0.00     0.019 C 
BRANCH  17  18
HETATM   18  C2  UNL     1      22.561  29.363  14.877  1.00  0.00    -0.003 C 
HETATM   19  C1  UNL     1      23.886  30.110  15.012  1.00  0.00     0.005 C 
ENDBRANCH  17  18
ENDBRANCH  16  17
ENDBRANCH  12  16
ENDBRANCH   2   4
ENDBRANCH   1   2
BRANCH   1  20
HETATM   20  C11 UNL     1      12.127  22.616  14.826  1.00  0.00     0.038 C 
BRANCH  20  21
HETATM   21  C12 UNL     1      11.455  21.305  14.679  1.00  0.00    -0.012 C 
HETATM   22  C13 UNL     1      11.979  20.377  13.677  1.00  0.00     0.005 C 
HETATM   23  C14 UNL     1      11.388  18.982  13.902  1.00  0.00     0.000 C 
HETATM   24  C15 UNL     1      10.045  19.099  14.520  1.00  0.00     0.000 C 
HETATM   25  C16 UNL     1       9.268  20.275  13.996  1.00  0.00     0.000 C 
HETATM   26  C17 UNL     1       9.969  21.548  14.335  1.00  0.00     0.005 C 
ENDBRANCH  20  21
ENDBRANCH   1  20
BRANCH   1  27
HETATM   27  N4  UNL     1      13.733  21.923  16.569  1.00  0.00    -0.347 N 
HETATM   28  C18 UNL     1      13.884  22.448  17.890  1.00  0.00     0.243 C 
HETATM   29  O4  UNL     1      13.705  23.677  18.074  1.00  0.00    -0.271 OA
ATOM     30  H4  UNL     1      13.861  20.924  16.404  1.00  0.00     0.163 HD
BRANCH  28  31
HETATM   31  C19 UNL     1      14.256  21.547  19.042  1.00  0.00     0.202 C 
BRANCH  31  32
HETATM   32  C20 UNL     1      13.865  20.187  18.646  1.00  0.00     0.041 C 
BRANCH  32  33
HETATM   33  C21 UNL     1      12.525  19.658  18.915  1.00  0.00    -0.012 C 
HETATM   34  C22 UNL     1      11.722  19.137  17.757  1.00  0.00     0.005 C 
HETATM   35  C23 UNL     1      10.291  18.892  18.252  1.00  0.00     0.000 C 
HETATM   36  C24 UNL     1      10.241  17.971  19.424  1.00  0.00     0.000 C 
HETATM   37  C25 UNL     1      11.628  17.497  19.748  1.00  0.00     0.000 C 
HETATM   38  C26 UNL     1      12.468  18.707  20.099  1.00  0.00     0.005 C 
ENDBRANCH  32  33
ENDBRANCH  31  32
BRANCH  31  39
HETATM   39  N5  UNL     1      15.652  21.777  19.302  1.00  0.00    -0.257 N 
HETATM   40  C27 UNL     1      16.693  21.607  18.471  1.00  0.00     0.220 A 
HETATM   41  N6  UNL     1      17.816  21.927  19.127  1.00  0.00    -0.279 N 
HETATM   42  N7  UNL     1      17.443  22.287  20.341  1.00  0.00    -0.227 N 
ATOM     43  H6  UNL     1      18.768  21.900  18.761  1.00  0.00     0.189 HD
HETATM   44  N8  UNL     1      16.141  22.196  20.446  1.00  0.00    -0.224 N 
ATOM     45  H7  UNL     1      18.074  22.590  21.083  1.00  0.00     0.210 HD
ATOM     46  H8  UNL     1      15.596  22.414  21.280  1.00  0.00     0.210 HD
ENDBRANCH  31  39
ENDBRANCH  28  31
ENDBRANCH   1  27
TORSDOF 12
ENDMDL
MODEL 3
REMARK VINA RESULT: -9.686390093      1.826      4.876
REMARK  12 active torsions:
REMARK  status: ('A' for Active; 'I' for Inactive)
REMARK    1  A    between atoms: C2_2  and  C3_3 
REMARK    2  A    between atoms: C3_3  and  C4_4 
REMARK    3  A    between atoms: C4_4  and  N1_5 
REMARK       I    between atoms: N1_5  and  C5_7 
REMARK       I    between atoms: C5_7  and  N2_9 
REMARK       I    between atoms: N3_12  and  C8_13 
REMARK    4  A    between atoms: C8_13  and  C9_15 
REMARK    5  A    between atoms: C9_15  and  C10_17 
REMARK    6  A    between atoms: C10_17  and  C11_18 
REMARK    7  A    between atoms: C10_17  and  N4_25 
REMARK    8  A    between atoms: C11_18  and  C12_19 
REMARK       I    between atoms: N4_25  and  C18_27 
REMARK    9  A    between atoms: C18_27  and  C19_29 
REMARK   10  A    between atoms: C19_29  and  C20_30 
REMARK   11  A    between atoms: C19_29  and  N5_37 
REMARK   12  A    between atoms: C20_30  and  C21_31 
ROOT
HETATM    1  C10 UNL     1      18.034  25.363  14.913  1.00  0.00     0.165 C 
ENDROOT
BRANCH   1   2
HETATM    2  C9  UNL     1      16.530  25.209  14.802  1.00  0.00     0.239 C 
HETATM    3  O3  UNL     1      15.873  26.206  15.226  1.00  0.00    -0.285 OA
BRANCH   2   4
HETATM    4  C8  UNL     1      15.870  24.078  14.282  1.00  0.00     0.291 C 
HETATM    5  N3  UNL     1      15.409  22.961  15.024  1.00  0.00    -0.342 N 
HETATM    6  C7  UNL     1      15.561  22.739  16.414  1.00  0.00     0.146 C 
HETATM    7  C28 UNL     1      14.661  21.904  14.306  1.00  0.00     0.146 C 
HETATM    8  C6  UNL     1      14.155  22.771  17.043  1.00  0.00     0.147 C 
HETATM    9  N2  UNL     1      13.492  21.595  16.468  1.00  0.00    -0.331 N 
HETATM   10  C5  UNL     1      12.888  20.662  17.351  1.00  0.00     0.318 C 
HETATM   11  C29 UNL     1      13.473  21.409  15.050  1.00  0.00     0.147 C 
HETATM   12  N1  UNL     1      12.195  19.488  16.938  1.00  0.00    -0.343 N 
HETATM   13  O1  UNL     1      12.972  20.890  18.605  1.00  0.00    -0.247 OA
ATOM     14  H1  UNL     1      12.102  19.270  15.946  1.00  0.00     0.164 HD
HETATM   15  O2  UNL     1      15.645  24.015  13.012  1.00  0.00    -0.264 OA
BRANCH  12  16
HETATM   16  C4  UNL     1      11.624  18.609  17.932  1.00  0.00     0.124 C 
BRANCH  16  17
HETATM   17  C3  UNL     1      12.682  17.713  18.496  1.00  0.00     0.019 C 
BRANCH  17  18
HETATM   18  C2  UNL     1      12.571  17.677  19.992  1.00  0.00    -0.003 C 
HETATM   19  C1  UNL     1      11.269  18.371  20.386  1.00  0.00     0.005 C 
ENDBRANCH  17  18
ENDBRANCH  16  17
ENDBRANCH  12  16
ENDBRANCH   2   4
ENDBRANCH   1   2
BRANCH   1  20
HETATM   20  C11 UNL     1      18.616  26.435  14.150  1.00  0.00     0.038 C 
BRANCH  20  21
HETATM   21  C12 UNL     1      19.739  27.270  14.632  1.00  0.00    -0.012 C 
HETATM   22  C13 UNL     1      20.266  28.295  13.731  1.00  0.00     0.005 C 
HETATM   23  C14 UNL     1      21.169  29.256  14.508  1.00  0.00     0.000 C 
HETATM   24  C15 UNL     1      21.791  28.547  15.653  1.00  0.00     0.000 C 
HETATM   25  C16 UNL     1      22.150  27.124  15.326  1.00  0.00     0.000 C 
HETATM   26  C17 UNL     1      20.919  26.344  15.001  1.00  0.00     0.005 C 
ENDBRANCH  20  21
ENDBRANCH   1  20
BRANCH   1  27
HETATM   27  N4  UNL     1      18.290  25.318  16.327  1.00  0.00    -0.347 N 
HETATM   28  C18 UNL     1      18.935  24.185  16.912  1.00  0.00     0.243 C 
HETATM   29  O4  UNL     1      19.289  23.240  16.165  1.00  0.00    -0.271 OA
ATOM     30  H4  UNL     1      18.009  26.100  16.918  1.00  0.00     0.163 HD
BRANCH  28  31
HETATM   31  C19 UNL     1      19.184  24.120  18.399  1.00  0.00     0.202 C 
BRANCH  31  32
HETATM   32  C20 UNL     1      19.393  25.505  18.844  1.00  0.00     0.041 C 
BRANCH  32  33
HETATM   33  C21 UNL     1      20.611  25.916  19.548  1.00  0.00    -0.012 C 
HETATM   34  C22 UNL     1      21.304  27.170  19.095  1.00  0.00     0.005 C 
HETATM   35  C23 UNL     1      22.663  27.235  19.801  1.00  0.00     0.000 C 
HETATM   36  C24 UNL     1      22.541  27.173  21.287  1.00  0.00     0.000 C 
HETATM   37  C25 UNL     1      21.089  27.120  21.667  1.00  0.00     0.000 C 
HETATM   38  C26 UNL     1      20.490  25.868  21.062  1.00  0.00     0.005 C 
ENDBRANCH  32  33
ENDBRANCH  31  32
BRANCH  31  39
HETATM   39  N5  UNL     1      18.069  23.411  18.968  1.00  0.00    -0.257 N 
HETATM   40  C27 UNL     1      17.901  22.085  19.090  1.00  0.00     0.220 A 
HETATM   41  N6  UNL     1      16.713  21.859  19.667  1.00  0.00    -0.279 N 
HETATM   42  N7  UNL     1      16.180  23.046  19.887  1.00  0.00    -0.227 N 
ATOM     43  H6  UNL     1      16.303  20.952  19.891  1.00  0.00     0.189 HD
HETATM   44  N8  UNL     1      16.996  23.980  19.465  1.00  0.00    -0.224 N 
ATOM     45  H7  UNL     1      15.270  23.211  20.319  1.00  0.00     0.210 HD
ATOM     46  H8  UNL     1      16.825  24.984  19.515  1.00  0.00     0.210 HD
ENDBRANCH  31  39
ENDBRANCH  28  31
ENDBRANCH   1  27
TORSDOF 12
ENDMDL
MODEL 4
REMARK VINA RESULT: -9.678434623      1.659      2.014
REMARK  12 active torsions:
REMARK  status: ('A' for Active; 'I' for Inactive)
REMARK    1  A    between atoms: C2_2  and  C3_3 
REMARK    2  A    between atoms: C3_3  and  C4_4 
REMARK    3  A    between atoms: C4_4  and  N1_5 
REMARK       I    between atoms: N1_5  and  C5_7 
REMARK       I    between atoms: C5_7  and  N2_9 
REMARK       I    between atoms: N3_12  and  C8_13 
REMARK    4  A    between atoms: C8_13  and  C9_15 
REMARK    5  A    between atoms: C9_15  and  C10_17 
REMARK    6  A    between atoms: C10_17  and  C11_18 
REMARK    7  A    between atoms: C10_17  and  N4_25 
REMARK    8  A    between atoms: C11_18  and  C12_19 
REMARK       I    between atoms: N4_25  and  C18_27 
REMARK    9  A    between atoms: C18_27  and  C19_29 
REMARK   10  A    between atoms: C19_29  and  C20_30 
REMARK   11  A    between atoms: C19_29  and  N5_37 
REMARK   12  A    between atoms: C20_30  and  C21_31 
ROOT
HETATM    1  C10 UNL     1      17.676  24.085  19.437  1.00  0.00     0.165 C 
ENDROOT
BRANCH   1   2
HETATM    2  C9  UNL     1      17.377  22.599  19.419  1.00  0.00     0.239 C 
HETATM    3  O3  UNL     1      18.371  21.873  19.116  1.00  0.00    -0.285 OA
BRANCH   2   4
HETATM    4  C8  UNL     1      16.124  22.023  19.708  1.00  0.00     0.291 C 
HETATM    5  N3  UNL     1      15.051  21.853  18.797  1.00  0.00    -0.342 N 
HETATM    6  C7  UNL     1      15.005  22.269  17.445  1.00  0.00     0.146 C 
HETATM    7  C28 UNL     1      13.837  21.148  19.269  1.00  0.00     0.146 C 
HETATM    8  C6  UNL     1      14.938  20.999  16.575  1.00  0.00     0.147 C 
HETATM    9  N2  UNL     1      13.634  20.417  16.912  1.00  0.00    -0.331 N 
HETATM   10  C5  UNL     1      12.740  20.106  15.854  1.00  0.00     0.318 C 
HETATM   11  C29 UNL     1      13.289  20.183  18.280  1.00  0.00     0.147 C 
HETATM   12  N1  UNL     1      11.453  19.523  16.027  1.00  0.00    -0.343 N 
HETATM   13  O1  UNL     1      13.116  20.370  14.662  1.00  0.00    -0.247 OA
ATOM     14  H1  UNL     1      11.114  19.294  16.962  1.00  0.00     0.164 HD
HETATM   15  O2  UNL     1      15.893  21.597  20.904  1.00  0.00    -0.264 OA
BRANCH  12  16
HETATM   16  C4  UNL     1      10.628  19.256  14.871  1.00  0.00     0.124 C 
BRANCH  16  17
HETATM   17  C3  UNL     1       9.656  20.374  14.663  1.00  0.00     0.019 C 
BRANCH  17  18
HETATM   18  C2  UNL     1       9.265  20.442  13.215  1.00  0.00    -0.003 C 
HETATM   19  C1  UNL     1      10.100  19.418  12.452  1.00  0.00     0.005 C 
ENDBRANCH  17  18
ENDBRANCH  16  17
ENDBRANCH  12  16
ENDBRANCH   2   4
ENDBRANCH   1   2
BRANCH   1  20
HETATM   20  C11 UNL     1      18.638  24.523  20.413  1.00  0.00     0.038 C 
BRANCH  20  21
HETATM   21  C12 UNL     1      19.743  25.461  20.112  1.00  0.00    -0.012 C 
HETATM   22  C13 UNL     1      20.991  24.903  19.592  1.00  0.00     0.005 C 
HETATM   23  C14 UNL     1      21.869  26.025  19.032  1.00  0.00     0.000 C 
HETATM   24  C15 UNL     1      21.590  27.290  19.756  1.00  0.00     0.000 C 
HETATM   25  C16 UNL     1      21.322  27.072  21.219  1.00  0.00     0.000 C 
HETATM   26  C17 UNL     1      20.098  26.236  21.399  1.00  0.00     0.005 C 
ENDBRANCH  20  21
ENDBRANCH   1  20
BRANCH   1  27
HETATM   27  N4  UNL     1      17.909  24.414  18.057  1.00  0.00    -0.347 N 
HETATM   28  C18 UNL     1      16.956  25.189  17.325  1.00  0.00     0.243 C 
HETATM   29  O4  UNL     1      15.924  25.589  17.916  1.00  0.00    -0.271 OA
ATOM     30  H4  UNL     1      18.760  24.093  17.596  1.00  0.00     0.163 HD
BRANCH  28  31
HETATM   31  C19 UNL     1      17.182  25.517  15.869  1.00  0.00     0.202 C 
BRANCH  31  32
HETATM   32  C20 UNL     1      18.609  25.280  15.609  1.00  0.00     0.041 C 
BRANCH  32  33
HETATM   33  C21 UNL     1      19.581  26.376  15.570  1.00  0.00    -0.012 C 
HETATM   34  C22 UNL     1      20.996  26.057  15.179  1.00  0.00     0.005 C 
HETATM   35  C23 UNL     1      21.852  27.296  15.465  1.00  0.00     0.000 C 
HETATM   36  C24 UNL     1      21.344  28.516  14.772  1.00  0.00     0.000 C 
HETATM   37  C25 UNL     1      20.152  28.155  13.934  1.00  0.00     0.000 C 
HETATM   38  C26 UNL     1      19.076  27.617  14.853  1.00  0.00     0.005 C 
ENDBRANCH  32  33
ENDBRANCH  31  32
BRANCH  31  39
HETATM   39  N5  UNL     1      16.241  24.725  15.123  1.00  0.00    -0.257 N 
HETATM   40  C27 UNL     1      16.484  23.665  14.336  1.00  0.00     0.220 A 
HETATM   41  N6  UNL     1      15.321  23.239  13.827  1.00  0.00    -0.279 N 
HETATM   42  N7  UNL     1      14.391  24.040  14.312  1.00  0.00    -0.227 N 
ATOM     43  H6  UNL     1      15.181  22.452  13.193  1.00  0.00     0.189 HD
HETATM   44  N8  UNL     1      14.946  24.935  15.092  1.00  0.00    -0.224 N 
ATOM     45  H7  UNL     1      13.394  23.973  14.110  1.00  0.00     0.210 HD
ATOM     46  H8  UNL     1      14.452  25.674  15.592  1.00  0.00     0.210 HD
ENDBRANCH  31  39
ENDBRANCH  28  31
ENDBRANCH   1  27
TORSDOF 12
ENDMDL
MODEL 5
REMARK VINA RESULT: -9.619150166      2.188      9.813
REMARK  12 active torsions:
REMARK  status: ('A' for Active; 'I' for Inactive)
REMARK    1  A    between atoms: C2_2  and  C3_3 
REMARK    2  A    between atoms: C3_3  and  C4_4 
REMARK    3  A    between atoms: C4_4  and  N1_5 
REMARK       I    between atoms: N1_5  and  C5_7 
REMARK       I    between atoms: C5_7  and  N2_9 
REMARK       I    between atoms: N3_12  and  C8_13 
REMARK    4  A    between atoms: C8_13  and  C9_15 
REMARK    5  A    between atoms: C9_15  and  C10_17 
REMARK    6  A    between atoms: C10_17  and  C11_18 
REMARK    7  A    between atoms: C10_17  and  N4_25 
REMARK    8  A    between atoms: C11_18  and  C12_19 
REMARK       I    between atoms: N4_25  and  C18_27 
REMARK    9  A    between atoms: C18_27  and  C19_29 
REMARK   10  A    between atoms: C19_29  and  C20_30 
REMARK   11  A    between atoms: C19_29  and  N5_37 
REMARK   12  A    between atoms: C20_30  and  C21_31 
ROOT
HETATM    1  C10 UNL     1      14.861  21.666  18.224  1.00  0.00     0.165 C 
ENDROOT
BRANCH   1   2
HETATM    2  C9  UNL     1      15.472  23.032  18.460  1.00  0.00     0.239 C 
HETATM    3  O3  UNL     1      14.703  24.000  18.182  1.00  0.00    -0.285 OA
BRANCH   2   4
HETATM    4  C8  UNL     1      16.776  23.262  18.944  1.00  0.00     0.291 C 
HETATM    5  N3  UNL     1      17.894  23.672  18.175  1.00  0.00    -0.342 N 
HETATM    6  C7  UNL     1      17.938  23.882  16.776  1.00  0.00     0.146 C 
HETATM    7  C28 UNL     1      19.168  23.942  18.882  1.00  0.00     0.146 C 
HETATM    8  C6  UNL     1      18.193  25.383  16.543  1.00  0.00     0.147 C 
HETATM    9  N2  UNL     1      19.545  25.591  17.073  1.00  0.00    -0.331 N 
HETATM   10  C5  UNL     1      20.510  26.213  16.236  1.00  0.00     0.318 C 
HETATM   11  C29 UNL     1      19.866  25.162  18.398  1.00  0.00     0.147 C 
HETATM   12  N1  UNL     1      21.851  26.495  16.619  1.00  0.00    -0.343 N 
HETATM   13  O1  UNL     1      20.148  26.542  15.056  1.00  0.00    -0.247 OA
ATOM     14  H1  UNL     1      22.181  26.251  17.553  1.00  0.00     0.164 HD
HETATM   15  O2  UNL     1      17.014  23.094  20.201  1.00  0.00    -0.264 OA
BRANCH  12  16
HETATM   16  C4  UNL     1      22.745  27.129  15.677  1.00  0.00     0.124 C 
BRANCH  16  17
HETATM   17  C3  UNL     1      22.952  28.563  16.051  1.00  0.00     0.019 C 
BRANCH  17  18
HETATM   18  C2  UNL     1      23.041  29.402  14.809  1.00  0.00    -0.003 C 
HETATM   19  C1  UNL     1      21.660  29.436  14.161  1.00  0.00     0.005 C 
ENDBRANCH  17  18
ENDBRANCH  16  17
ENDBRANCH  12  16
ENDBRANCH   2   4
ENDBRANCH   1   2
BRANCH   1  20
HETATM   20  C11 UNL     1      14.088  21.124  19.311  1.00  0.00     0.038 C 
BRANCH  20  21
HETATM   21  C12 UNL     1      13.328  19.857  19.224  1.00  0.00    -0.012 C 
HETATM   22  C13 UNL     1      12.108  19.845  18.416  1.00  0.00     0.005 C 
HETATM   23  C14 UNL     1      11.659  18.402  18.174  1.00  0.00     0.000 C 
HETATM   24  C15 UNL     1      12.091  17.545  19.305  1.00  0.00     0.000 C 
HETATM   25  C16 UNL     1      12.004  18.250  20.631  1.00  0.00     0.000 C 
HETATM   26  C17 UNL     1      12.927  19.423  20.651  1.00  0.00     0.005 C 
ENDBRANCH  20  21
ENDBRANCH   1  20
BRANCH   1  27
HETATM   27  N4  UNL     1      14.236  21.777  16.934  1.00  0.00    -0.347 N 
HETATM   28  C18 UNL     1      14.976  21.504  15.742  1.00  0.00     0.243 C 
HETATM   29  O4  UNL     1      16.176  21.149  15.846  1.00  0.00    -0.271 OA
ATOM     30  H4  UNL     1      13.256  22.052  16.868  1.00  0.00     0.163 HD
BRANCH  28  31
HETATM   31  C19 UNL     1      14.333  21.643  14.384  1.00  0.00     0.202 C 
BRANCH  31  32
HETATM   32  C20 UNL     1      12.882  21.582  14.606  1.00  0.00     0.041 C 
BRANCH  32  33
HETATM   33  C21 UNL     1      12.123  20.341  14.424  1.00  0.00    -0.012 C 
HETATM   34  C22 UNL     1      10.627  20.400  14.546  1.00  0.00     0.005 C 
HETATM   35  C23 UNL     1      10.102  18.959  14.576  1.00  0.00     0.000 C 
HETATM   36  C24 UNL     1      10.534  18.168  13.387  1.00  0.00     0.000 C 
HETATM   37  C25 UNL     1      11.324  19.047  12.461  1.00  0.00     0.000 C 
HETATM   38  C26 UNL     1      12.547  19.536  13.207  1.00  0.00     0.005 C 
ENDBRANCH  32  33
ENDBRANCH  31  32
BRANCH  31  39
HETATM   39  N5  UNL     1      14.857  22.853  13.809  1.00  0.00    -0.257 N 
HETATM   40  C27 UNL     1      15.028  23.151  12.511  1.00  0.00     0.220 A 
HETATM   41  N6  UNL     1      15.554  24.380  12.423  1.00  0.00    -0.279 N 
HETATM   42  N7  UNL     1      15.692  24.810  13.664  1.00  0.00    -0.227 N 
ATOM     43  H6  UNL     1      15.798  24.883  11.570  1.00  0.00     0.189 HD
HETATM   44  N8  UNL     1      15.273  23.890  14.497  1.00  0.00    -0.224 N 
ATOM     45  H7  UNL     1      16.068  25.719  13.932  1.00  0.00     0.210 HD
ATOM     46  H8  UNL     1      15.271  23.967  15.514  1.00  0.00     0.210 HD
ENDBRANCH  31  39
ENDBRANCH  28  31
ENDBRANCH   1  27
TORSDOF 12
ENDMDL
