MODEL 1
REMARK VINA RESULT: -8.784585706      0.000      0.000
REMARK  16 active torsions:
REMARK  status: ('A' for Active; 'I' for Inactive)
REMARK    1  A    between atoms: C2_2  and  C3_3 
REMARK    2  A    between atoms: C3_3  and  C4_4 
REMARK    3  A    between atoms: C4_4  and  C5_5 
REMARK    4  A    between atoms: C6_6  and  C7_7 
REMARK    5  A    between atoms: C7_7  and  C8_8 
REMARK    6  A    between atoms: C9_9  and  C10_10 
REMARK    7  A    between atoms: C10_10  and  C11_11 
REMARK    8  A    between atoms: C12_12  and  C13_13 
REMARK    9  A    between atoms: C13_13  and  C14_14 
REMARK   10  A    between atoms: C15_15  and  C16_16 
REMARK   11  A    between atoms: C16_16  and  C17_17 
REMARK   12  A    between atoms: C18_18  and  C19_19 
REMARK   13  A    between atoms: C20_20  and  C21_21 
REMARK   14  A    between atoms: C24_25  and  O2_26 
REMARK   15  A    between atoms: C26_30  and  O4_31 
REMARK   16  A    between atoms: O4_31  and  C27_32 
ROOT
HETATM    1  C17 UNL     1      16.261  17.407  12.389  1.00  0.00    -0.023 C 
HETATM    2  C18 UNL     1      15.888  18.471  11.755  1.00  0.00    -0.004 C 
ENDROOT
BRANCH   1   3
HETATM    3  C16 UNL     1      16.941  16.287  11.715  1.00  0.00     0.054 C 
BRANCH   3   4
HETATM    4  C15 UNL     1      17.387  15.287  12.735  1.00  0.00    -0.027 C 
HETATM    5  C14 UNL     1      18.078  15.710  13.774  1.00  0.00    -0.027 C 
BRANCH   5   6
HETATM    6  C13 UNL     1      18.537  14.739  14.809  1.00  0.00     0.053 C 
BRANCH   6   7
HETATM    7  C12 UNL     1      19.309  15.484  15.854  1.00  0.00    -0.027 C 
HETATM    8  C11 UNL     1      18.911  16.663  16.261  1.00  0.00    -0.027 C 
BRANCH   8   9
HETATM    9  C10 UNL     1      19.717  17.373  17.312  1.00  0.00     0.053 C 
BRANCH   9  10
HETATM   10  C9  UNL     1      20.100  18.693  16.805  1.00  0.00    -0.027 C 
HETATM   11  C8  UNL     1      21.217  19.044  16.252  1.00  0.00    -0.027 C 
BRANCH  11  12
HETATM   12  C7  UNL     1      22.341  18.112  16.034  1.00  0.00     0.053 C 
BRANCH  12  13
HETATM   13  C6  UNL     1      22.211  17.422  14.732  1.00  0.00    -0.027 C 
HETATM   14  C5  UNL     1      22.507  17.935  13.586  1.00  0.00    -0.030 C 
BRANCH  14  15
HETATM   15  C4  UNL     1      23.032  19.290  13.278  1.00  0.00     0.027 C 
BRANCH  15  16
HETATM   16  C3  UNL     1      24.542  19.271  13.206  1.00  0.00     0.003 C 
BRANCH  16  17
HETATM   17  C2  UNL     1      25.074  19.442  11.832  1.00  0.00    -0.004 C 
HETATM   18  C1  UNL     1      24.892  20.837  11.343  1.00  0.00     0.005 C 
ENDBRANCH  16  17
ENDBRANCH  15  16
ENDBRANCH  14  15
ENDBRANCH  12  13
ENDBRANCH  11  12
ENDBRANCH   9  10
ENDBRANCH   8   9
ENDBRANCH   6   7
ENDBRANCH   5   6
ENDBRANCH   3   4
ENDBRANCH   1   3
BRANCH   2  19
HETATM   19  C19 UNL     1      16.053  18.763  10.338  1.00  0.00    -0.002 C 
HETATM   20  C20 UNL     1      15.467  19.797   9.775  1.00  0.00     0.008 C 
BRANCH  20  21
HETATM   21  C21 UNL     1      14.615  20.707  10.556  1.00  0.00     0.182 C 
HETATM   22  O1  UNL     1      14.937  22.036  10.434  1.00  0.00    -0.371 OA
HETATM   23  C22 UNL     1      14.718  22.608   9.215  1.00  0.00     0.154 C 
HETATM   24  C23 UNL     1      15.800  22.345   8.195  1.00  0.00     0.042 C 
HETATM   25  C24 UNL     1      13.361  22.305   8.618  1.00  0.00     0.218 C 
HETATM   26  C25 UNL     1      12.561  21.653   9.684  1.00  0.00     0.190 C 
HETATM   27  O3  UNL     1      11.491  22.091  10.016  1.00  0.00    -0.292 OA
HETATM   28  C26 UNL     1      13.135  20.441  10.320  1.00  0.00     0.236 C 
BRANCH  25  29
HETATM   29  O2  UNL     1      12.751  23.406   8.064  1.00  0.00    -0.385 OA
ATOM     30  H2  UNL     1      13.184  23.724   7.281  1.00  0.00     0.210 HD
ENDBRANCH  25  29
BRANCH  28  31
HETATM   31  O4  UNL     1      12.982  19.383   9.360  1.00  0.00    -0.305 OA
BRANCH  31  32
HETATM   32  C27 UNL     1      12.153  18.305   9.596  1.00  0.00     0.255 C 
HETATM   33  C28 UNL     1      12.650  17.060  10.280  1.00  0.00     0.126 C 
HETATM   34  O5  UNL     1      10.959  18.404   9.216  1.00  0.00    -0.266 OA
ENDBRANCH  31  32
ENDBRANCH  28  31
ENDBRANCH  20  21
ENDBRANCH   2  19
TORSDOF 16
ENDMDL
MODEL 2
REMARK VINA RESULT: -8.629965092      1.699      2.950
REMARK  16 active torsions:
REMARK  status: ('A' for Active; 'I' for Inactive)
REMARK    1  A    between atoms: C2_2  and  C3_3 
REMARK    2  A    between atoms: C3_3  and  C4_4 
REMARK    3  A    between atoms: C4_4  and  C5_5 
REMARK    4  A    between atoms: C6_6  and  C7_7 
REMARK    5  A    between atoms: C7_7  and  C8_8 
REMARK    6  A    between atoms: C9_9  and  C10_10 
REMARK    7  A    between atoms: C10_10  and  C11_11 
REMARK    8  A    between atoms: C12_12  and  C13_13 
REMARK    9  A    between atoms: C13_13  and  C14_14 
REMARK   10  A    between atoms: C15_15  and  C16_16 
REMARK   11  A    between atoms: C16_16  and  C17_17 
REMARK   12  A    between atoms: C18_18  and  C19_19 
REMARK   13  A    between atoms: C20_20  and  C21_21 
REMARK   14  A    between atoms: C24_25  and  O2_26 
REMARK   15  A    between atoms: C26_30  and  O4_31 
REMARK   16  A    between atoms: O4_31  and  C27_32 
ROOT
HETATM    1  C17 UNL     1      15.768  17.952  11.908  1.00  0.00    -0.023 C 
HETATM    2  C18 UNL     1      15.989  18.934  11.095  1.00  0.00    -0.004 C 
ENDROOT
BRANCH   1   3
HETATM    3  C16 UNL     1      14.789  16.891  11.613  1.00  0.00     0.054 C 
BRANCH   3   4
HETATM    4  C15 UNL     1      14.803  15.879  12.715  1.00  0.00    -0.027 C 
HETATM    5  C14 UNL     1      15.785  15.914  13.593  1.00  0.00    -0.027 C 
BRANCH   5   6
HETATM    6  C13 UNL     1      15.827  14.919  14.703  1.00  0.00     0.053 C 
BRANCH   6   7
HETATM    7  C12 UNL     1      17.134  15.061  15.422  1.00  0.00    -0.027 C 
HETATM    8  C11 UNL     1      18.260  14.765  14.823  1.00  0.00    -0.027 C 
BRANCH   8   9
HETATM    9  C10 UNL     1      19.545  14.924  15.583  1.00  0.00     0.053 C 
BRANCH   9  10
HETATM   10  C9  UNL     1      19.612  16.285  16.124  1.00  0.00    -0.027 C 
HETATM   11  C8  UNL     1      20.548  17.165  15.961  1.00  0.00    -0.027 C 
BRANCH  11  12
HETATM   12  C7  UNL     1      21.763  16.917  15.159  1.00  0.00     0.053 C 
BRANCH  12  13
HETATM   13  C6  UNL     1      22.604  18.132  15.086  1.00  0.00    -0.027 C 
HETATM   14  C5  UNL     1      23.128  18.609  14.008  1.00  0.00    -0.030 C 
BRANCH  14  15
HETATM   15  C4  UNL     1      23.037  18.093  12.618  1.00  0.00     0.027 C 
BRANCH  15  16
HETATM   16  C3  UNL     1      24.254  18.497  11.819  1.00  0.00     0.003 C 
BRANCH  16  17
HETATM   17  C2  UNL     1      25.060  19.563  12.463  1.00  0.00    -0.004 C 
HETATM   18  C1  UNL     1      25.058  20.815  11.655  1.00  0.00     0.005 C 
ENDBRANCH  16  17
ENDBRANCH  15  16
ENDBRANCH  14  15
ENDBRANCH  12  13
ENDBRANCH  11  12
ENDBRANCH   9  10
ENDBRANCH   8   9
ENDBRANCH   6   7
ENDBRANCH   5   6
ENDBRANCH   3   4
ENDBRANCH   1   3
BRANCH   2  19
HETATM   19  C19 UNL     1      15.357  19.178   9.807  1.00  0.00    -0.002 C 
HETATM   20  C20 UNL     1      15.234  20.393   9.319  1.00  0.00     0.008 C 
BRANCH  20  21
HETATM   21  C21 UNL     1      15.731  21.564  10.058  1.00  0.00     0.182 C 
HETATM   22  O1  UNL     1      17.095  21.715  10.039  1.00  0.00    -0.371 OA
HETATM   23  C22 UNL     1      17.658  22.027   8.837  1.00  0.00     0.154 C 
HETATM   24  C23 UNL     1      17.866  20.847   7.916  1.00  0.00     0.042 C 
HETATM   25  C24 UNL     1      16.962  23.145   8.094  1.00  0.00     0.218 C 
HETATM   26  C25 UNL     1      15.989  23.747   9.039  1.00  0.00     0.190 C 
HETATM   27  O3  UNL     1      16.008  24.925   9.285  1.00  0.00    -0.292 OA
HETATM   28  C26 UNL     1      14.997  22.837   9.663  1.00  0.00     0.236 C 
BRANCH  25  29
HETATM   29  O2  UNL     1      17.831  24.057   7.541  1.00  0.00    -0.385 OA
ATOM     30  H2  UNL     1      18.134  23.812   6.674  1.00  0.00     0.210 HD
ENDBRANCH  25  29
BRANCH  28  31
HETATM   31  O4  UNL     1      14.035  22.542   8.638  1.00  0.00    -0.305 OA
BRANCH  31  32
HETATM   32  C27 UNL     1      12.694  22.831   8.799  1.00  0.00     0.255 C 
HETATM   33  C28 UNL     1      12.115  24.153   8.376  1.00  0.00     0.126 C 
HETATM   34  O5  UNL     1      11.972  21.941   9.315  1.00  0.00    -0.266 OA
ENDBRANCH  31  32
ENDBRANCH  28  31
ENDBRANCH  20  21
ENDBRANCH   2  19
TORSDOF 16
ENDMDL
MODEL 3
REMARK VINA RESULT: -8.594308632      1.547      2.454
REMARK  16 active torsions:
REMARK  status: ('A' for Active; 'I' for Inactive)
REMARK    1  A    between atoms: C2_2  and  C3_3 
REMARK    2  A    between atoms: C3_3  and  C4_4 
REMARK    3  A    between atoms: C4_4  and  C5_5 
REMARK    4  A    between atoms: C6_6  and  C7_7 
REMARK    5  A    between atoms: C7_7  and  C8_8 
REMARK    6  A    between atoms: C9_9  and  C10_10 
REMARK    7  A    between atoms: C10_10  and  C11_11 
REMARK    8  A    between atoms: C12_12  and  C13_13 
REMARK    9  A    between atoms: C13_13  and  C14_14 
REMARK   10  A    between atoms: C15_15  and  C16_16 
REMARK   11  A    between atoms: C16_16  and  C17_17 
REMARK   12  A    between atoms: C18_18  and  C19_19 
REMARK   13  A    between atoms: C20_20  and  C21_21 
REMARK   14  A    between atoms: C24_25  and  O2_26 
REMARK   15  A    between atoms: C26_30  and  O4_31 
REMARK   16  A    between atoms: O4_31  and  C27_32 
ROOT
HETATM    1  C17 UNL     1      16.280  17.830  12.027  1.00  0.00    -0.023 C 
HETATM    2  C18 UNL     1      15.591  18.779  11.483  1.00  0.00    -0.004 C 
ENDROOT
BRANCH   1   3
HETATM    3  C16 UNL     1      16.836  16.713  11.244  1.00  0.00     0.054 C 
BRANCH   3   4
HETATM    4  C15 UNL     1      17.290  15.630  12.171  1.00  0.00    -0.027 C 
HETATM    5  C14 UNL     1      17.737  15.966  13.364  1.00  0.00    -0.027 C 
BRANCH   5   6
HETATM    6  C13 UNL     1      18.197  14.910  14.312  1.00  0.00     0.053 C 
BRANCH   6   7
HETATM    7  C12 UNL     1      19.159  15.524  15.281  1.00  0.00    -0.027 C 
HETATM    8  C11 UNL     1      18.773  16.482  16.087  1.00  0.00    -0.027 C 
BRANCH   8   9
HETATM    9  C10 UNL     1      19.774  17.068  17.042  1.00  0.00     0.053 C 
BRANCH   9  10
HETATM   10  C9  UNL     1      20.083  18.438  16.624  1.00  0.00    -0.027 C 
HETATM   11  C8  UNL     1      21.189  18.891  16.125  1.00  0.00    -0.027 C 
BRANCH  11  12
HETATM   12  C7  UNL     1      22.377  18.047  15.886  1.00  0.00     0.053 C 
BRANCH  12  13
HETATM   13  C6  UNL     1      22.326  17.433  14.542  1.00  0.00    -0.027 C 
HETATM   14  C5  UNL     1      22.686  18.011  13.446  1.00  0.00    -0.030 C 
BRANCH  14  15
HETATM   15  C4  UNL     1      23.220  19.383  13.247  1.00  0.00     0.027 C 
BRANCH  15  16
HETATM   16  C3  UNL     1      24.730  19.365  13.206  1.00  0.00     0.003 C 
BRANCH  16  17
HETATM   17  C2  UNL     1      25.295  19.796  11.904  1.00  0.00    -0.004 C 
HETATM   18  C1  UNL     1      24.312  20.590  11.116  1.00  0.00     0.005 C 
ENDBRANCH  16  17
ENDBRANCH  15  16
ENDBRANCH  14  15
ENDBRANCH  12  13
ENDBRANCH  11  12
ENDBRANCH   9  10
ENDBRANCH   8   9
ENDBRANCH   6   7
ENDBRANCH   5   6
ENDBRANCH   3   4
ENDBRANCH   1   3
BRANCH   2  19
HETATM   19  C19 UNL     1      15.245  18.931  10.077  1.00  0.00    -0.002 C 
HETATM   20  C20 UNL     1      15.324  20.095   9.470  1.00  0.00     0.008 C 
BRANCH  20  21
HETATM   21  C21 UNL     1      15.767  21.300  10.188  1.00  0.00     0.182 C 
HETATM   22  O1  UNL     1      17.118  21.534  10.131  1.00  0.00    -0.371 OA
HETATM   23  C22 UNL     1      17.628  21.872   8.911  1.00  0.00     0.154 C 
HETATM   24  C23 UNL     1      17.884  20.701   7.992  1.00  0.00     0.042 C 
HETATM   25  C24 UNL     1      16.844  22.939   8.181  1.00  0.00     0.218 C 
HETATM   26  C25 UNL     1      15.861  23.486   9.149  1.00  0.00     0.190 C 
HETATM   27  O3  UNL     1      15.813  24.665   9.388  1.00  0.00    -0.292 OA
HETATM   28  C26 UNL     1      14.945  22.522   9.806  1.00  0.00     0.236 C 
BRANCH  25  29
HETATM   29  O2  UNL     1      17.639  23.899   7.599  1.00  0.00    -0.385 OA
ATOM     30  H2  UNL     1      17.155  24.518   7.066  1.00  0.00     0.210 HD
ENDBRANCH  25  29
BRANCH  28  31
HETATM   31  O4  UNL     1      13.975  22.159   8.810  1.00  0.00    -0.305 OA
BRANCH  31  32
HETATM   32  C27 UNL     1      12.686  22.654   8.840  1.00  0.00     0.255 C 
HETATM   33  C28 UNL     1      11.675  22.163   9.841  1.00  0.00     0.126 C 
HETATM   34  O5  UNL     1      12.388  23.534   7.994  1.00  0.00    -0.266 OA
ENDBRANCH  31  32
ENDBRANCH  28  31
ENDBRANCH  20  21
ENDBRANCH   2  19
TORSDOF 16
ENDMDL
MODEL 4
REMARK VINA RESULT: -8.511897562      2.818      4.426
REMARK  16 active torsions:
REMARK  status: ('A' for Active; 'I' for Inactive)
REMARK    1  A    between atoms: C2_2  and  C3_3 
REMARK    2  A    between atoms: C3_3  and  C4_4 
REMARK    3  A    between atoms: C4_4  and  C5_5 
REMARK    4  A    between atoms: C6_6  and  C7_7 
REMARK    5  A    between atoms: C7_7  and  C8_8 
REMARK    6  A    between atoms: C9_9  and  C10_10 
REMARK    7  A    between atoms: C10_10  and  C11_11 
REMARK    8  A    between atoms: C12_12  and  C13_13 
REMARK    9  A    between atoms: C13_13  and  C14_14 
REMARK   10  A    between atoms: C15_15  and  C16_16 
REMARK   11  A    between atoms: C16_16  and  C17_17 
REMARK   12  A    between atoms: C18_18  and  C19_19 
REMARK   13  A    between atoms: C20_20  and  C21_21 
REMARK   14  A    between atoms: C24_25  and  O2_26 
REMARK   15  A    between atoms: C26_30  and  O4_31 
REMARK   16  A    between atoms: O4_31  and  C27_32 
ROOT
HETATM    1  C17 UNL     1      15.754  17.994  11.982  1.00  0.00    -0.023 C 
HETATM    2  C18 UNL     1      15.924  19.007  11.196  1.00  0.00    -0.004 C 
ENDROOT
BRANCH   1   3
HETATM    3  C16 UNL     1      14.884  16.859  11.625  1.00  0.00     0.054 C 
BRANCH   3   4
HETATM    4  C15 UNL     1      14.814  15.903  12.775  1.00  0.00    -0.027 C 
HETATM    5  C14 UNL     1      15.862  15.788  13.566  1.00  0.00    -0.027 C 
BRANCH   5   6
HETATM    6  C13 UNL     1      15.823  14.844  14.720  1.00  0.00     0.053 C 
BRANCH   6   7
HETATM    7  C12 UNL     1      17.159  14.864  15.397  1.00  0.00    -0.027 C 
HETATM    8  C11 UNL     1      18.259  14.972  14.696  1.00  0.00    -0.027 C 
BRANCH   8   9
HETATM    9  C10 UNL     1      19.576  14.987  15.419  1.00  0.00     0.053 C 
BRANCH   9  10
HETATM   10  C9  UNL     1      19.348  15.377  16.813  1.00  0.00    -0.027 C 
HETATM   11  C8  UNL     1      19.310  16.571  17.314  1.00  0.00    -0.027 C 
BRANCH  11  12
HETATM   12  C7  UNL     1      19.502  17.793  16.509  1.00  0.00     0.053 C 
BRANCH  12  13
HETATM   13  C6  UNL     1      20.807  18.423  16.809  1.00  0.00    -0.027 C 
HETATM   14  C5  UNL     1      20.998  19.362  17.674  1.00  0.00    -0.030 C 
BRANCH  14  15
HETATM   15  C4  UNL     1      20.009  20.032  18.557  1.00  0.00     0.027 C 
BRANCH  15  16
HETATM   16  C3  UNL     1      20.620  20.332  19.907  1.00  0.00     0.003 C 
BRANCH  16  17
HETATM   17  C2  UNL     1      20.429  19.246  20.899  1.00  0.00    -0.004 C 
HETATM   18  C1  UNL     1      19.214  18.437  20.600  1.00  0.00     0.005 C 
ENDBRANCH  16  17
ENDBRANCH  15  16
ENDBRANCH  14  15
ENDBRANCH  12  13
ENDBRANCH  11  12
ENDBRANCH   9  10
ENDBRANCH   8   9
ENDBRANCH   6   7
ENDBRANCH   5   6
ENDBRANCH   3   4
ENDBRANCH   1   3
BRANCH   2  19
HETATM   19  C19 UNL     1      15.332  19.221   9.884  1.00  0.00    -0.002 C 
HETATM   20  C20 UNL     1      15.248  20.422   9.354  1.00  0.00     0.008 C 
BRANCH  20  21
HETATM   21  C21 UNL     1      15.749  21.606  10.069  1.00  0.00     0.182 C 
HETATM   22  O1  UNL     1      17.113  21.760  10.033  1.00  0.00    -0.371 OA
HETATM   23  C22 UNL     1      17.662  22.054   8.820  1.00  0.00     0.154 C 
HETATM   24  C23 UNL     1      17.864  20.860   7.917  1.00  0.00     0.042 C 
HETATM   25  C24 UNL     1      16.956  23.158   8.065  1.00  0.00     0.218 C 
HETATM   26  C25 UNL     1      15.991  23.772   9.011  1.00  0.00     0.190 C 
HETATM   27  O3  UNL     1      16.008  24.954   9.237  1.00  0.00    -0.292 OA
HETATM   28  C26 UNL     1      15.008  22.871   9.660  1.00  0.00     0.236 C 
BRANCH  25  29
HETATM   29  O2  UNL     1      17.816  24.062   7.488  1.00  0.00    -0.385 OA
ATOM     30  H2  UNL     1      17.872  23.980   6.544  1.00  0.00     0.210 HD
ENDBRANCH  25  29
BRANCH  28  31
HETATM   31  O4  UNL     1      14.035  22.556   8.650  1.00  0.00    -0.305 OA
BRANCH  31  32
HETATM   32  C27 UNL     1      12.710  22.921   8.781  1.00  0.00     0.255 C 
HETATM   33  C28 UNL     1      11.858  22.411   9.911  1.00  0.00     0.126 C 
HETATM   34  O5  UNL     1      12.240  23.701   7.915  1.00  0.00    -0.266 OA
ENDBRANCH  31  32
ENDBRANCH  28  31
ENDBRANCH  20  21
ENDBRANCH   2  19
TORSDOF 16
ENDMDL
MODEL 5
REMARK VINA RESULT: -8.471151159      2.465      4.214
REMARK  16 active torsions:
REMARK  status: ('A' for Active; 'I' for Inactive)
REMARK    1  A    between atoms: C2_2  and  C3_3 
REMARK    2  A    between atoms: C3_3  and  C4_4 
REMARK    3  A    between atoms: C4_4  and  C5_5 
REMARK    4  A    between atoms: C6_6  and  C7_7 
REMARK    5  A    between atoms: C7_7  and  C8_8 
REMARK    6  A    between atoms: C9_9  and  C10_10 
REMARK    7  A    between atoms: C10_10  and  C11_11 
REMARK    8  A    between atoms: C12_12  and  C13_13 
REMARK    9  A    between atoms: C13_13  and  C14_14 
REMARK   10  A    between atoms: C15_15  and  C16_16 
REMARK   11  A    between atoms: C16_16  and  C17_17 
REMARK   12  A    between atoms: C18_18  and  C19_19 
REMARK   13  A    between atoms: C20_20  and  C21_21 
REMARK   14  A    between atoms: C24_25  and  O2_26 
REMARK   15  A    between atoms: C26_30  and  O4_31 
REMARK   16  A    between atoms: O4_31  and  C27_32 
ROOT
HETATM    1  C17 UNL     1      15.961  18.124  12.149  1.00  0.00    -0.023 C 
HETATM    2  C18 UNL     1      15.550  19.149  11.477  1.00  0.00    -0.004 C 
ENDROOT
BRANCH   1   3
HETATM    3  C16 UNL     1      16.258  16.831  11.509  1.00  0.00     0.054 C 
BRANCH   3   4
HETATM    4  C15 UNL     1      16.790  15.878  12.532  1.00  0.00    -0.027 C 
HETATM    5  C14 UNL     1      16.113  15.707  13.649  1.00  0.00    -0.027 C 
BRANCH   5   6
HETATM    6  C13 UNL     1      16.617  14.764  14.689  1.00  0.00     0.053 C 
BRANCH   6   7
HETATM    7  C12 UNL     1      17.992  15.196  15.099  1.00  0.00    -0.027 C 
HETATM    8  C11 UNL     1      18.221  15.626  16.314  1.00  0.00    -0.027 C 
BRANCH   8   9
HETATM    9  C10 UNL     1      19.616  16.048  16.678  1.00  0.00     0.053 C 
BRANCH   9  10
HETATM   10  C9  UNL     1      20.372  16.301  15.449  1.00  0.00    -0.027 C 
HETATM   11  C8  UNL     1      21.322  17.160  15.256  1.00  0.00    -0.027 C 
BRANCH  11  12
HETATM   12  C7  UNL     1      21.817  18.070  16.308  1.00  0.00     0.053 C 
BRANCH  12  13
HETATM   13  C6  UNL     1      21.234  19.421  16.154  1.00  0.00    -0.027 C 
HETATM   14  C5  UNL     1      20.470  20.004  17.015  1.00  0.00    -0.030 C 
BRANCH  14  15
HETATM   15  C4  UNL     1      19.990  19.500  18.328  1.00  0.00     0.027 C 
BRANCH  15  16
HETATM   16  C3  UNL     1      20.633  20.268  19.459  1.00  0.00     0.003 C 
BRANCH  16  17
HETATM   17  C2  UNL     1      20.503  19.603  20.779  1.00  0.00    -0.004 C 
HETATM   18  C1  UNL     1      19.511  18.492  20.737  1.00  0.00     0.005 C 
ENDBRANCH  16  17
ENDBRANCH  15  16
ENDBRANCH  14  15
ENDBRANCH  12  13
ENDBRANCH  11  12
ENDBRANCH   9  10
ENDBRANCH   8   9
ENDBRANCH   6   7
ENDBRANCH   5   6
ENDBRANCH   3   4
ENDBRANCH   1   3
BRANCH   2  19
HETATM   19  C19 UNL     1      15.311  19.233  10.043  1.00  0.00    -0.002 C 
HETATM   20  C20 UNL     1      15.506  20.349   9.375  1.00  0.00     0.008 C 
BRANCH  20  21
HETATM   21  C21 UNL     1      15.976  21.568  10.052  1.00  0.00     0.182 C 
HETATM   22  O1  UNL     1      17.336  21.755  10.011  1.00  0.00    -0.371 OA
HETATM   23  C22 UNL     1      17.878  22.024   8.789  1.00  0.00     0.154 C 
HETATM   24  C23 UNL     1      18.111  20.807   7.924  1.00  0.00     0.042 C 
HETATM   25  C24 UNL     1      17.144  23.085   7.999  1.00  0.00     0.218 C 
HETATM   26  C25 UNL     1      16.163  23.704   8.925  1.00  0.00     0.190 C 
HETATM   27  O3  UNL     1      16.151  24.893   9.113  1.00  0.00    -0.292 OA
HETATM   28  C26 UNL     1      15.204  22.799   9.603  1.00  0.00     0.236 C 
BRANCH  25  29
HETATM   29  O2  UNL     1      17.982  23.992   7.393  1.00  0.00    -0.385 OA
ATOM     30  H2  UNL     1      17.917  24.867   7.757  1.00  0.00     0.210 HD
ENDBRANCH  25  29
BRANCH  28  31
HETATM   31  O4  UNL     1      14.240  22.427   8.604  1.00  0.00    -0.305 OA
BRANCH  31  32
HETATM   32  C27 UNL     1      12.891  22.665   8.774  1.00  0.00     0.255 C 
HETATM   33  C28 UNL     1      12.097  21.976   9.850  1.00  0.00     0.126 C 
HETATM   34  O5  UNL     1      12.348  23.485   7.991  1.00  0.00    -0.266 OA
ENDBRANCH  31  32
ENDBRANCH  28  31
ENDBRANCH  20  21
ENDBRANCH   2  19
TORSDOF 16
ENDMDL
