MODEL 1
REMARK VINA RESULT: -6.806050327      0.000      0.000
REMARK  1 active torsions:
REMARK  status: ('A' for Active; 'I' for Inactive)
REMARK    1  A    between atoms: C7_13  and  N3_14 
ROOT
HETATM    1  O1  UNL     1       9.990  -9.441  16.649  1.00  0.00    -0.264 OA
HETATM    2  C1  UNL     1      10.349  -9.884  17.779  1.00  0.00     0.297 C 
HETATM    3  N1  UNL     1      11.661  -9.892  18.348  1.00  0.00    -0.288 N 
ATOM      4  H1  UNL     1      12.503  -9.528  17.901  1.00  0.00     0.172 HD
HETATM    5  C2  UNL     1      11.601 -10.495  19.651  1.00  0.00     0.266 C 
HETATM    6  O2  UNL     1      12.596 -10.957  20.239  1.00  0.00    -0.269 OA
HETATM    7  C3  UNL     1      10.186 -10.421  20.052  1.00  0.00     0.213 A 
HETATM    8  N2  UNL     1       9.827  -9.377  20.953  1.00  0.00    -0.361 N 
ATOM      9  H2  UNL     1       9.827  -8.358  20.911  1.00  0.00     0.161 HD
HETATM   10  C4  UNL     1       9.468 -10.341  21.936  1.00  0.00     0.039 A 
HETATM   11  C5  UNL     1       8.994 -10.647  23.196  1.00  0.00     0.032 A 
HETATM   12  C6  UNL     1       8.873 -11.979  23.572  1.00  0.00     0.031 A 
HETATM   13  C7  UNL     1       9.209 -13.032  22.733  1.00  0.00     0.030 A 
HETATM   14  C15 UNL     1       9.680 -12.710  21.479  1.00  0.00     0.042 A 
HETATM   15  C16 UNL     1       9.801 -11.389  21.104  1.00  0.00     0.016 A 
HETATM   16  C17 UNL     1       9.464 -10.511  18.784  1.00  0.00     0.259 C 
HETATM   17  O4  UNL     1       8.333 -10.994  18.497  1.00  0.00    -0.283 OA
ENDROOT
BRANCH  13  18
HETATM   18  N3  UNL     1       9.097 -14.387  23.103  1.00  0.00    -0.380 N 
HETATM   19  C8  UNL     1      10.329 -15.053  23.403  1.00  0.00     0.128 C 
HETATM   20  C9  UNL     1      10.156 -16.519  23.683  1.00  0.00     0.068 C 
HETATM   21  C10 UNL     1       9.434 -17.269  22.624  1.00  0.00     0.013 A 
HETATM   22  S1  UNL     1       9.863 -18.857  22.139  1.00  0.00    -0.016 SA
HETATM   23  C12 UNL     1       8.363 -17.013  21.808  1.00  0.00     0.026 A 
HETATM   24  N4  UNL     1       8.694 -19.112  20.956  1.00  0.00    -0.293 N 
HETATM   25  C11 UNL     1       7.998 -17.979  20.954  1.00  0.00     0.259 A 
ATOM     26  H4  UNL     1       8.553 -19.940  20.377  1.00  0.00     0.177 HD
HETATM   27  O3  UNL     1       7.009 -17.864  20.135  1.00  0.00    -0.267 OA
HETATM   28  C13 UNL     1       7.601 -15.695  21.846  1.00  0.00     0.065 C 
HETATM   29  C14 UNL     1       7.796 -15.022  23.166  1.00  0.00     0.128 C 
ENDBRANCH  13  18
TORSDOF 1
ENDMDL
MODEL 2
REMARK VINA RESULT: -6.548345292      1.671      1.893
REMARK  1 active torsions:
REMARK  status: ('A' for Active; 'I' for Inactive)
REMARK    1  A    between atoms: C7_13  and  N3_14 
ROOT
HETATM    1  O1  UNL     1       9.866  -8.866  16.232  1.00  0.00    -0.264 OA
HETATM    2  C1  UNL     1      10.299  -9.329  17.326  1.00  0.00     0.297 C 
HETATM    3  N1  UNL     1      11.657  -9.432  17.764  1.00  0.00    -0.288 N 
ATOM      4  H1  UNL     1      12.476  -9.133  17.233  1.00  0.00     0.172 HD
HETATM    5  C2  UNL     1      11.681 -10.024  19.073  1.00  0.00     0.266 C 
HETATM    6  O2  UNL     1      12.693 -10.556  19.568  1.00  0.00    -0.269 OA
HETATM    7  C3  UNL     1      10.322  -9.844  19.610  1.00  0.00     0.213 A 
HETATM    8  N2  UNL     1      10.130  -8.773  20.530  1.00  0.00    -0.361 N 
ATOM      9  H2  UNL     1      10.200  -7.757  20.476  1.00  0.00     0.161 HD
HETATM   10  C4  UNL     1       9.799  -9.704  21.554  1.00  0.00     0.039 A 
HETATM   11  C5  UNL     1       9.430  -9.969  22.858  1.00  0.00     0.032 A 
HETATM   12  C6  UNL     1       9.249 -11.287  23.259  1.00  0.00     0.031 A 
HETATM   13  C7  UNL     1       9.423 -12.366  22.402  1.00  0.00     0.030 A 
HETATM   14  C15 UNL     1       9.792 -12.084  21.105  1.00  0.00     0.042 A 
HETATM   15  C16 UNL     1       9.971 -10.777  20.705  1.00  0.00     0.016 A 
HETATM   16  C17 UNL     1       9.474  -9.885  18.419  1.00  0.00     0.259 C 
HETATM   17  O4  UNL     1       8.288 -10.285  18.249  1.00  0.00    -0.283 OA
ENDROOT
BRANCH  13  18
HETATM   18  N3  UNL     1       9.250 -13.707  22.797  1.00  0.00    -0.380 N 
HETATM   19  C8  UNL     1       9.721 -14.693  21.872  1.00  0.00     0.128 C 
HETATM   20  C9  UNL     1       9.409 -16.100  22.298  1.00  0.00     0.068 C 
HETATM   21  C10 UNL     1       7.977 -16.351  22.600  1.00  0.00     0.013 A 
HETATM   22  S1  UNL     1       7.168 -17.804  22.180  1.00  0.00    -0.016 SA
HETATM   23  C12 UNL     1       6.973 -15.645  23.211  1.00  0.00     0.026 A 
HETATM   24  N4  UNL     1       5.638 -17.456  22.784  1.00  0.00    -0.293 N 
HETATM   25  C11 UNL     1       5.773 -16.235  23.296  1.00  0.00     0.259 A 
ATOM     26  H4  UNL     1       4.803 -18.042  22.763  1.00  0.00     0.177 HD
HETATM   27  O3  UNL     1       4.748 -15.680  23.847  1.00  0.00    -0.267 OA
HETATM   28  C13 UNL     1       7.183 -14.249  23.780  1.00  0.00     0.065 C 
HETATM   29  C14 UNL     1       8.630 -14.018  24.070  1.00  0.00     0.128 C 
ENDBRANCH  13  18
TORSDOF 1
ENDMDL
MODEL 3
REMARK VINA RESULT: -5.669146293      3.500      5.752
REMARK  1 active torsions:
REMARK  status: ('A' for Active; 'I' for Inactive)
REMARK    1  A    between atoms: C7_13  and  N3_14 
ROOT
HETATM    1  O1  UNL     1       9.110 -11.339  21.476  1.00  0.00    -0.264 OA
HETATM    2  C1  UNL     1       9.012 -12.442  22.087  1.00  0.00     0.297 C 
HETATM    3  N1  UNL     1       9.441 -12.756  23.415  1.00  0.00    -0.288 N 
ATOM      4  H1  UNL     1       9.895 -12.109  24.060  1.00  0.00     0.172 HD
HETATM    5  C2  UNL     1       9.130 -14.131  23.694  1.00  0.00     0.266 C 
HETATM    6  O2  UNL     1       9.673 -14.788  24.601  1.00  0.00    -0.269 OA
HETATM    7  C3  UNL     1       8.098 -14.506  22.711  1.00  0.00     0.213 A 
HETATM    8  N2  UNL     1       6.749 -14.519  23.169  1.00  0.00    -0.361 N 
ATOM      9  H2  UNL     1       6.102 -13.814  23.521  1.00  0.00     0.161 HD
HETATM   10  C4  UNL     1       6.676 -15.920  22.934  1.00  0.00     0.039 A 
HETATM   11  C5  UNL     1       5.965 -17.103  22.957  1.00  0.00     0.032 A 
HETATM   12  C6  UNL     1       6.579 -18.275  22.530  1.00  0.00     0.031 A 
HETATM   13  C7  UNL     1       7.890 -18.315  22.076  1.00  0.00     0.030 A 
HETATM   14  C15 UNL     1       8.586 -17.126  22.059  1.00  0.00     0.042 A 
HETATM   15  C16 UNL     1       7.978 -15.963  22.481  1.00  0.00     0.016 A 
HETATM   16  C17 UNL     1       8.418 -13.683  21.545  1.00  0.00     0.259 C 
HETATM   17  O4  UNL     1       8.266 -13.888  20.309  1.00  0.00    -0.283 OA
ENDROOT
BRANCH  13  18
HETATM   18  N3  UNL     1       8.527 -19.497  21.647  1.00  0.00    -0.380 N 
HETATM   19  C8  UNL     1       8.352 -19.831  20.266  1.00  0.00     0.128 C 
HETATM   20  C9  UNL     1       8.960 -21.154  19.896  1.00  0.00     0.068 C 
HETATM   21  C10 UNL     1       8.519 -22.294  20.740  1.00  0.00     0.013 A 
HETATM   22  S1  UNL     1       8.212 -23.862  20.115  1.00  0.00    -0.016 SA
HETATM   23  C12 UNL     1       8.252 -22.473  22.072  1.00  0.00     0.026 A 
HETATM   24  N4  UNL     1       7.771 -24.646  21.536  1.00  0.00    -0.293 N 
HETATM   25  C11 UNL     1       7.867 -23.696  22.462  1.00  0.00     0.259 A 
ATOM     26  H4  UNL     1       7.495 -25.621  21.659  1.00  0.00     0.177 HD
HETATM   27  O3  UNL     1       7.588 -23.995  23.685  1.00  0.00    -0.267 OA
HETATM   28  C13 UNL     1       8.378 -21.348  23.091  1.00  0.00     0.065 C 
HETATM   29  C14 UNL     1       9.301 -20.289  22.582  1.00  0.00     0.128 C 
ENDBRANCH  13  18
TORSDOF 1
ENDMDL
MODEL 4
REMARK VINA RESULT: -5.153035220      4.058      6.549
REMARK  1 active torsions:
REMARK  status: ('A' for Active; 'I' for Inactive)
REMARK    1  A    between atoms: C7_13  and  N3_14 
ROOT
HETATM    1  O1  UNL     1       7.097 -12.572  24.085  1.00  0.00    -0.264 OA
HETATM    2  C1  UNL     1       7.580 -13.538  23.426  1.00  0.00     0.297 C 
HETATM    3  N1  UNL     1       7.956 -13.563  22.046  1.00  0.00    -0.288 N 
ATOM      4  H1  UNL     1       7.881 -12.780  21.397  1.00  0.00     0.172 HD
HETATM    5  C2  UNL     1       8.457 -14.871  21.723  1.00  0.00     0.266 C 
HETATM    6  O2  UNL     1       8.532 -15.310  20.561  1.00  0.00    -0.269 OA
HETATM    7  C3  UNL     1       8.817 -15.483  23.014  1.00  0.00     0.213 A 
HETATM    8  N2  UNL     1      10.198 -15.474  23.367  1.00  0.00    -0.361 N 
ATOM      9  H2  UNL     1      10.885 -14.747  23.564  1.00  0.00     0.161 HD
HETATM   10  C4  UNL     1      10.222 -16.896  23.330  1.00  0.00     0.039 A 
HETATM   11  C5  UNL     1      10.908 -18.086  23.469  1.00  0.00     0.032 A 
HETATM   12  C6  UNL     1      10.239 -19.286  23.262  1.00  0.00     0.031 A 
HETATM   13  C7  UNL     1       8.895 -19.348  22.917  1.00  0.00     0.030 A 
HETATM   14  C15 UNL     1       8.225 -18.152  22.782  1.00  0.00     0.042 A 
HETATM   15  C16 UNL     1       8.888 -16.961  22.988  1.00  0.00     0.016 A 
HETATM   16  C17 UNL     1       7.866 -14.889  23.953  1.00  0.00     0.259 C 
HETATM   17  O4  UNL     1       7.340 -15.339  25.009  1.00  0.00    -0.283 OA
ENDROOT
BRANCH  13  18
HETATM   18  N3  UNL     1       8.206 -20.557  22.697  1.00  0.00    -0.380 N 
HETATM   19  C8  UNL     1       8.452 -21.596  23.652  1.00  0.00     0.128 C 
HETATM   20  C9  UNL     1       7.777 -22.892  23.303  1.00  0.00     0.068 C 
HETATM   21  C10 UNL     1       8.074 -23.395  21.938  1.00  0.00     0.013 A 
HETATM   22  S1  UNL     1       8.310 -25.056  21.579  1.00  0.00    -0.016 SA
HETATM   23  C12 UNL     1       8.233 -22.823  20.702  1.00  0.00     0.026 A 
HETATM   24  N4  UNL     1       8.591 -24.947  19.925  1.00  0.00    -0.293 N 
HETATM   25  C11 UNL     1       8.500 -23.643  19.677  1.00  0.00     0.259 A 
ATOM     26  H4  UNL     1       8.787 -25.701  19.267  1.00  0.00     0.177 HD
HETATM   27  O3  UNL     1       8.671 -23.231  18.467  1.00  0.00    -0.267 OA
HETATM   28  C13 UNL     1       8.119 -21.322  20.475  1.00  0.00     0.065 C 
HETATM   29  C14 UNL     1       7.313 -20.692  21.563  1.00  0.00     0.128 C 
ENDBRANCH  13  18
TORSDOF 1
ENDMDL
MODEL 5
REMARK VINA RESULT: -4.959271114      3.867      6.275
REMARK  1 active torsions:
REMARK  status: ('A' for Active; 'I' for Inactive)
REMARK    1  A    between atoms: C7_13  and  N3_14 
ROOT
HETATM    1  O1  UNL     1       6.590 -12.298  24.747  1.00  0.00    -0.264 OA
HETATM    2  C1  UNL     1       7.193 -13.130  24.010  1.00  0.00     0.297 C 
HETATM    3  N1  UNL     1       7.792 -12.904  22.731  1.00  0.00    -0.288 N 
ATOM      4  H1  UNL     1       7.812 -12.013  22.234  1.00  0.00     0.172 HD
HETATM    5  C2  UNL     1       8.362 -14.136  22.258  1.00  0.00     0.266 C 
HETATM    6  O2  UNL     1       8.636 -14.352  21.063  1.00  0.00    -0.269 OA
HETATM    7  C3  UNL     1       8.515 -14.982  23.454  1.00  0.00     0.213 A 
HETATM    8  N2  UNL     1       9.818 -15.057  24.026  1.00  0.00    -0.361 N 
ATOM      9  H2  UNL     1      10.451 -14.389  24.466  1.00  0.00     0.161 HD
HETATM   10  C4  UNL     1       9.874 -16.448  23.731  1.00  0.00     0.039 A 
HETATM   11  C5  UNL     1      10.549 -17.652  23.759  1.00  0.00     0.032 A 
HETATM   12  C6  UNL     1       9.944 -18.783  23.224  1.00  0.00     0.031 A 
HETATM   13  C7  UNL     1       8.677 -18.763  22.656  1.00  0.00     0.030 A 
HETATM   14  C15 UNL     1       8.017 -17.553  22.637  1.00  0.00     0.042 A 
HETATM   15  C16 UNL     1       8.616 -16.430  23.167  1.00  0.00     0.016 A 
HETATM   16  C17 UNL     1       7.412 -14.560  24.317  1.00  0.00     0.259 C 
HETATM   17  O4  UNL     1       6.728 -15.192  25.169  1.00  0.00    -0.283 OA
ENDROOT
BRANCH  13  18
HETATM   18  N3  UNL     1       8.055 -19.900  22.105  1.00  0.00    -0.380 N 
HETATM   19  C8  UNL     1       7.987 -21.047  22.960  1.00  0.00     0.128 C 
HETATM   20  C9  UNL     1       7.414 -22.258  22.280  1.00  0.00     0.068 C 
HETATM   21  C10 UNL     1       8.087 -22.629  21.009  1.00  0.00     0.013 A 
HETATM   22  S1  UNL     1       8.379 -24.252  20.539  1.00  0.00    -0.016 SA
HETATM   23  C12 UNL     1       8.615 -21.938  19.949  1.00  0.00     0.026 A 
HETATM   24  N4  UNL     1       9.136 -23.983  19.061  1.00  0.00    -0.293 N 
HETATM   25  C11 UNL     1       9.151 -22.657  18.954  1.00  0.00     0.259 A 
ATOM     26  H4  UNL     1       9.499 -24.673  18.403  1.00  0.00     0.177 HD
HETATM   27  O3  UNL     1       9.678 -22.129  17.902  1.00  0.00    -0.267 OA
HETATM   28  C13 UNL     1       8.606 -20.417  19.878  1.00  0.00     0.065 C 
HETATM   29  C14 UNL     1       7.531 -19.862  20.754  1.00  0.00     0.128 C 
ENDBRANCH  13  18
TORSDOF 1
ENDMDL
