MODEL 1
REMARK VINA RESULT: -9.101475704      0.000      0.000
REMARK  3 active torsions:
REMARK  status: ('A' for Active; 'I' for Inactive)
REMARK    1  A    between atoms: C3_4  and  N1_5 
REMARK    2  A    between atoms: N1_5  and  C4_7 
REMARK    3  A    between atoms: C4_7  and  C5_8 
ROOT
HETATM    1  N1  UNL     1      34.171   4.221  25.421  1.00  0.00    -0.387 N 
ATOM      2  H1  UNL     1      33.354   4.030  26.000  1.00  0.00     0.159 HD
ENDROOT
BRANCH   1   3
HETATM    3  C3  UNL     1      34.724   5.491  25.510  1.00  0.00     0.073 A 
HETATM    4  C2  UNL     1      35.311   5.975  26.646  1.00  0.00     0.078 A 
HETATM    5  C1  UNL     1      35.811   7.288  26.675  1.00  0.00     0.160 A 
HETATM    6  F1  UNL     1      36.387   7.746  27.805  1.00  0.00    -0.203 F 
HETATM    7  C15 UNL     1      35.721   8.109  25.572  1.00  0.00     0.196 A 
HETATM    8  C14 UNL     1      35.130   7.612  24.444  1.00  0.00     0.198 A 
HETATM    9  F4  UNL     1      36.205   9.374  25.605  1.00  0.00    -0.199 F 
HETATM   10  C13 UNL     1      34.653   6.346  24.428  1.00  0.00     0.184 A 
HETATM   11  F3  UNL     1      35.038   8.418  23.353  1.00  0.00    -0.199 F 
HETATM   12  F2  UNL     1      34.073   5.902  23.271  1.00  0.00    -0.200 F 
ENDBRANCH   1   3
BRANCH   1  13
HETATM   13  C4  UNL     1      34.637   3.166  24.600  1.00  0.00     0.130 C 
BRANCH  13  14
HETATM   14  C5  UNL     1      34.728   1.858  25.312  1.00  0.00    -0.020 C 
HETATM   15  C6  UNL     1      35.782   1.828  26.425  1.00  0.00     0.016 C 
HETATM   16  C7  UNL     1      36.292   0.429  26.346  1.00  0.00    -0.013 C 
HETATM   17  C8  UNL     1      35.130  -0.504  26.539  1.00  0.00     0.010 C 
HETATM   18  C12 UNL     1      36.486   0.306  24.825  1.00  0.00     0.010 C 
HETATM   19  C9  UNL     1      34.266  -0.176  25.345  1.00  0.00    -0.009 C 
HETATM   20  C10 UNL     1      33.476   1.110  25.633  1.00  0.00     0.016 C 
HETATM   21  C11 UNL     1      35.097   0.680  24.422  1.00  0.00     0.000 C 
ENDBRANCH  13  14
ENDBRANCH   1  13
TORSDOF 3
ENDMDL
MODEL 2
REMARK VINA RESULT: -8.861914833      0.638      1.448
REMARK  3 active torsions:
REMARK  status: ('A' for Active; 'I' for Inactive)
REMARK    1  A    between atoms: C3_4  and  N1_5 
REMARK    2  A    between atoms: N1_5  and  C4_7 
REMARK    3  A    between atoms: C4_7  and  C5_8 
ROOT
HETATM    1  N1  UNL     1      34.100   4.137  25.325  1.00  0.00    -0.387 N 
ATOM      2  H1  UNL     1      33.536   3.948  24.497  1.00  0.00     0.159 HD
ENDROOT
BRANCH   1   3
HETATM    3  C3  UNL     1      34.655   5.404  25.433  1.00  0.00     0.073 A 
HETATM    4  C2  UNL     1      35.252   5.868  26.573  1.00  0.00     0.078 A 
HETATM    5  C1  UNL     1      35.753   7.179  26.620  1.00  0.00     0.160 A 
HETATM    6  F1  UNL     1      36.340   7.617  27.754  1.00  0.00    -0.203 F 
HETATM    7  C15 UNL     1      35.656   8.019  25.533  1.00  0.00     0.196 A 
HETATM    8  C14 UNL     1      35.055   7.544  24.401  1.00  0.00     0.198 A 
HETATM    9  F4  UNL     1      36.142   9.284  25.585  1.00  0.00    -0.199 F 
HETATM   10  C13 UNL     1      34.577   6.278  24.366  1.00  0.00     0.184 A 
HETATM   11  F3  UNL     1      34.956   8.369  23.326  1.00  0.00    -0.199 F 
HETATM   12  F2  UNL     1      33.987   5.855  23.207  1.00  0.00    -0.200 F 
ENDBRANCH   1   3
BRANCH   1  13
HETATM   13  C4  UNL     1      34.245   3.082  26.258  1.00  0.00     0.130 C 
BRANCH  13  14
HETATM   14  C5  UNL     1      34.989   1.909  25.714  1.00  0.00    -0.020 C 
HETATM   15  C6  UNL     1      35.194   1.951  24.196  1.00  0.00     0.016 C 
HETATM   16  C7  UNL     1      35.095   0.512  23.819  1.00  0.00    -0.013 C 
HETATM   17  C8  UNL     1      36.143  -0.245  24.585  1.00  0.00     0.010 C 
HETATM   18  C12 UNL     1      33.841   0.116  24.617  1.00  0.00     0.010 C 
HETATM   19  C9  UNL     1      35.701  -0.029  26.013  1.00  0.00    -0.009 C 
HETATM   20  C10 UNL     1      36.154   1.364  26.475  1.00  0.00     0.016 C 
HETATM   21  C11 UNL     1      34.316   0.566  25.960  1.00  0.00     0.000 C 
ENDBRANCH  13  14
ENDBRANCH   1  13
TORSDOF 3
ENDMDL
MODEL 3
REMARK VINA RESULT: -8.752180037      1.252      2.288
REMARK  3 active torsions:
REMARK  status: ('A' for Active; 'I' for Inactive)
REMARK    1  A    between atoms: C3_4  and  N1_5 
REMARK    2  A    between atoms: N1_5  and  C4_7 
REMARK    3  A    between atoms: C4_7  and  C5_8 
ROOT
HETATM    1  N1  UNL     1      34.693   3.516  24.356  1.00  0.00    -0.387 N 
ATOM      2  H1  UNL     1      35.379   3.129  23.708  1.00  0.00     0.159 HD
ENDROOT
BRANCH   1   3
HETATM    3  C3  UNL     1      34.811   4.864  24.666  1.00  0.00     0.073 A 
HETATM    4  C2  UNL     1      34.365   5.864  23.847  1.00  0.00     0.078 A 
HETATM    5  C1  UNL     1      34.558   7.207  24.208  1.00  0.00     0.160 A 
HETATM    6  F1  UNL     1      34.110   8.179  23.387  1.00  0.00    -0.203 F 
HETATM    7  C15 UNL     1      35.196   7.545  25.381  1.00  0.00     0.196 A 
HETATM    8  C14 UNL     1      35.639   6.536  26.190  1.00  0.00     0.198 A 
HETATM    9  F4  UNL     1      35.380   8.843  25.725  1.00  0.00    -0.199 F 
HETATM   10  C13 UNL     1      35.446   5.245  25.832  1.00  0.00     0.184 A 
HETATM   11  F3  UNL     1      36.269   6.863  27.348  1.00  0.00    -0.199 F 
HETATM   12  F2  UNL     1      35.909   4.276  26.680  1.00  0.00    -0.200 F 
ENDBRANCH   1   3
BRANCH   1  13
HETATM   13  C4  UNL     1      33.710   2.629  24.856  1.00  0.00     0.130 C 
BRANCH  13  14
HETATM   14  C5  UNL     1      34.266   1.320  25.304  1.00  0.00    -0.020 C 
HETATM   15  C6  UNL     1      34.298   1.145  26.827  1.00  0.00     0.016 C 
HETATM   16  C7  UNL     1      35.546   0.356  27.034  1.00  0.00    -0.013 C 
HETATM   17  C8  UNL     1      35.430  -0.918  26.245  1.00  0.00     0.010 C 
HETATM   18  C12 UNL     1      36.508   1.146  26.128  1.00  0.00     0.010 C 
HETATM   19  C9  UNL     1      35.346  -0.401  24.829  1.00  0.00    -0.009 C 
HETATM   20  C10 UNL     1      33.913   0.078  24.552  1.00  0.00     0.016 C 
HETATM   21  C11 UNL     1      35.703   1.064  24.873  1.00  0.00     0.000 C 
ENDBRANCH  13  14
ENDBRANCH   1  13
TORSDOF 3
ENDMDL
MODEL 4
REMARK VINA RESULT: -8.534705862      1.071      1.536
REMARK  3 active torsions:
REMARK  status: ('A' for Active; 'I' for Inactive)
REMARK    1  A    between atoms: C3_4  and  N1_5 
REMARK    2  A    between atoms: N1_5  and  C4_7 
REMARK    3  A    between atoms: C4_7  and  C5_8 
ROOT
HETATM    1  N1  UNL     1      35.123   4.222  24.231  1.00  0.00    -0.387 N 
ATOM      2  H1  UNL     1      35.873   4.133  23.546  1.00  0.00     0.159 HD
ENDROOT
BRANCH   1   3
HETATM    3  C3  UNL     1      35.008   5.441  24.884  1.00  0.00     0.073 A 
HETATM    4  C2  UNL     1      35.711   5.757  26.014  1.00  0.00     0.078 A 
HETATM    5  C1  UNL     1      35.508   6.996  26.643  1.00  0.00     0.160 A 
HETATM    6  F1  UNL     1      36.212   7.290  27.756  1.00  0.00    -0.203 F 
HETATM    7  C15 UNL     1      34.607   7.911  26.144  1.00  0.00     0.196 A 
HETATM    8  C14 UNL     1      33.911   7.581  25.015  1.00  0.00     0.198 A 
HETATM    9  F4  UNL     1      34.416   9.105  26.756  1.00  0.00    -0.199 F 
HETATM   10  C13 UNL     1      34.114   6.385  24.417  1.00  0.00     0.184 A 
HETATM   11  F3  UNL     1      33.020   8.480  24.519  1.00  0.00    -0.199 F 
HETATM   12  F2  UNL     1      33.390   6.109  23.289  1.00  0.00    -0.200 F 
ENDBRANCH   1   3
BRANCH   1  13
HETATM   13  C4  UNL     1      34.298   3.089  24.429  1.00  0.00     0.130 C 
BRANCH  13  14
HETATM   14  C5  UNL     1      34.992   1.963  25.119  1.00  0.00    -0.020 C 
HETATM   15  C6  UNL     1      35.861   1.106  24.191  1.00  0.00     0.016 C 
HETATM   16  C7  UNL     1      35.695  -0.259  24.768  1.00  0.00    -0.013 C 
HETATM   17  C8  UNL     1      36.139  -0.218  26.203  1.00  0.00     0.010 C 
HETATM   18  C12 UNL     1      34.169  -0.280  24.959  1.00  0.00     0.010 C 
HETATM   19  C9  UNL     1      35.148   0.748  26.807  1.00  0.00    -0.009 C 
HETATM   20  C10 UNL     1      35.577   2.185  26.476  1.00  0.00     0.016 C 
HETATM   21  C11 UNL     1      34.060   0.961  25.784  1.00  0.00     0.000 C 
ENDBRANCH  13  14
ENDBRANCH   1  13
TORSDOF 3
ENDMDL
MODEL 5
REMARK VINA RESULT: -8.514879981      1.369      2.461
REMARK  3 active torsions:
REMARK  status: ('A' for Active; 'I' for Inactive)
REMARK    1  A    between atoms: C3_4  and  N1_5 
REMARK    2  A    between atoms: N1_5  and  C4_7 
REMARK    3  A    between atoms: C4_7  and  C5_8 
ROOT
HETATM    1  N1  UNL     1      35.027   4.269  24.283  1.00  0.00    -0.387 N 
ATOM      2  H1  UNL     1      35.845   4.221  23.676  1.00  0.00     0.159 HD
ENDROOT
BRANCH   1   3
HETATM    3  C3  UNL     1      34.784   5.480  24.918  1.00  0.00     0.073 A 
HETATM    4  C2  UNL     1      33.779   6.332  24.550  1.00  0.00     0.078 A 
HETATM    5  C1  UNL     1      33.622   7.560  25.213  1.00  0.00     0.160 A 
HETATM    6  F1  UNL     1      32.625   8.386  24.836  1.00  0.00    -0.203 F 
HETATM    7  C15 UNL     1      34.467   7.932  26.235  1.00  0.00     0.196 A 
HETATM    8  C14 UNL     1      35.468   7.071  26.591  1.00  0.00     0.198 A 
HETATM    9  F4  UNL     1      34.311   9.119  26.871  1.00  0.00    -0.199 F 
HETATM   10  C13 UNL     1      35.609   5.890  25.946  1.00  0.00     0.184 A 
HETATM   11  F3  UNL     1      36.305   7.433  27.599  1.00  0.00    -0.199 F 
HETATM   12  F2  UNL     1      36.628   5.068  26.345  1.00  0.00    -0.200 F 
ENDBRANCH   1   3
BRANCH   1  13
HETATM   13  C4  UNL     1      34.244   3.096  24.400  1.00  0.00     0.130 C 
BRANCH  13  14
HETATM   14  C5  UNL     1      34.950   1.980  25.093  1.00  0.00    -0.020 C 
HETATM   15  C6  UNL     1      35.865   1.158  24.178  1.00  0.00     0.016 C 
HETATM   16  C7  UNL     1      35.721  -0.218  24.733  1.00  0.00    -0.013 C 
HETATM   17  C8  UNL     1      36.127  -0.184  26.180  1.00  0.00     0.010 C 
HETATM   18  C12 UNL     1      34.192  -0.282  24.885  1.00  0.00     0.010 C 
HETATM   19  C9  UNL     1      35.096   0.747  26.770  1.00  0.00    -0.009 C 
HETATM   20  C10 UNL     1      35.495   2.200  26.467  1.00  0.00     0.016 C 
HETATM   21  C11 UNL     1      34.029   0.945  25.722  1.00  0.00     0.000 C 
ENDBRANCH  13  14
ENDBRANCH   1  13
TORSDOF 3
ENDMDL
