MODEL 1
REMARK VINA RESULT: -9.095704285      0.000      0.000
REMARK  15 active torsions:
REMARK  status: ('A' for Active; 'I' for Inactive)
REMARK    1  A    between atoms: C4_6  and  C5_7 
REMARK    2  A    between atoms: C6_8  and  C7_9 
REMARK    3  A    between atoms: C9_11  and  O1_12 
REMARK    4  A    between atoms: C11_15  and  N2_16 
REMARK    5  A    between atoms: C20_26  and  O2_27 
REMARK    6  A    between atoms: C23_31  and  O3_32 
REMARK    7  A    between atoms: O3_32  and  C24_33 
REMARK    8  A    between atoms: C24_33  and  C25_34 
REMARK    9  A    between atoms: C25_34  and  O4_35 
REMARK   10  A    between atoms: O4_35  and  C26_36 
REMARK   11  A    between atoms: C26_36  and  C27_37 
REMARK   12  A    between atoms: C27_37  and  O5_38 
REMARK   13  A    between atoms: O5_38  and  C28_39 
REMARK   14  A    between atoms: C28_39  and  C29_40 
REMARK   15  A    between atoms: C29_40  and  N4_41 
ROOT
HETATM    1  C1  UNL     1      22.214  30.090  13.912  1.00  0.00     0.046 C 
HETATM    2  C2  UNL     1      21.158  29.598  13.284  1.00  0.00     0.057 A 
HETATM    3  N1  UNL     1      19.835  29.982  13.605  1.00  0.00    -0.353 N 
ATOM      4  H1  UNL     1      19.663  30.663  14.345  1.00  0.00     0.166 HD
HETATM    5  C3  UNL     1      18.738  29.408  12.884  1.00  0.00     0.065 A 
HETATM    6  C4  UNL     1      17.457  29.845  13.263  1.00  0.00     0.045 A 
HETATM    7  C18 UNL     1      16.411  29.289  12.565  1.00  0.00     0.026 A 
HETATM    8  C19 UNL     1      16.587  28.374  11.571  1.00  0.00     0.039 A 
HETATM    9  C20 UNL     1      17.870  27.954  11.209  1.00  0.00     0.078 A 
HETATM   10  C21 UNL     1      18.947  28.488  11.884  1.00  0.00     0.028 A 
HETATM   11  C22 UNL     1      20.313  28.104  11.567  1.00  0.00     0.055 A 
HETATM   12  C23 UNL     1      21.340  28.612  12.210  1.00  0.00     0.095 A 
ENDROOT
BRANCH   6  13
HETATM   13  C5  UNL     1      17.289  30.816  14.307  1.00  0.00    -0.059 C 
HETATM   14  C6  UNL     1      17.174  31.642  15.196  1.00  0.00    -0.061 C 
BRANCH  14  15
HETATM   15  C7  UNL     1      17.069  32.620  16.248  1.00  0.00     0.022 A 
HETATM   16  C8  UNL     1      15.848  32.999  16.768  1.00  0.00     0.057 A 
HETATM   17  C9  UNL     1      15.737  33.938  17.768  1.00  0.00     0.069 A 
HETATM   18  C10 UNL     1      16.917  34.513  18.256  1.00  0.00     0.065 A 
HETATM   19  C11 UNL     1      18.158  34.172  17.776  1.00  0.00     0.034 A 
HETATM   20  C17 UNL     1      18.199  33.211  16.760  1.00  0.00     0.050 A 
BRANCH  17  21
HETATM   21  O1  UNL     1      14.515  34.300  18.269  1.00  0.00    -0.361 OA
ATOM     22  H1  UNL     1      14.356  34.328  19.206  1.00  0.00     0.217 HD
ENDBRANCH  17  21
BRANCH  19  23
HETATM   23  N2  UNL     1      19.332  34.752  18.292  1.00  0.00    -0.371 N 
HETATM   24  C12 UNL     1      19.361  35.573  19.466  1.00  0.00     0.168 C 
HETATM   25  C13 UNL     1      20.321  36.730  19.353  1.00  0.00     0.082 C 
HETATM   26  N3  UNL     1      20.836  36.968  18.076  1.00  0.00    -0.375 N 
HETATM   27  C14 UNL     1      20.707  38.252  17.502  1.00  0.00     0.154 C 
HETATM   28  C15 UNL     1      21.119  35.898  17.227  1.00  0.00     0.082 C 
HETATM   29  C16 UNL     1      20.593  34.540  17.624  1.00  0.00     0.168 C 
ENDBRANCH  19  23
ENDBRANCH  14  15
ENDBRANCH   6  13
BRANCH   9  30
HETATM   30  O2  UNL     1      18.022  27.022  10.193  1.00  0.00    -0.360 OA
ATOM     31  H2  UNL     1      18.887  26.855   9.837  1.00  0.00     0.217 HD
ENDBRANCH   9  30
BRANCH  12  32
HETATM   32  O3  UNL     1      22.661  28.240  11.901  1.00  0.00    -0.347 OA
BRANCH  32  33
HETATM   33  C24 UNL     1      23.429  27.342  12.613  1.00  0.00     0.201 C 
BRANCH  33  34
HETATM   34  C25 UNL     1      24.392  26.513  11.773  1.00  0.00     0.194 C 
BRANCH  34  35
HETATM   35  O4  UNL     1      24.009  25.203  11.900  1.00  0.00    -0.387 OA
BRANCH  35  36
HETATM   36  C26 UNL     1      23.599  24.676  10.699  1.00  0.00     0.193 C 
BRANCH  36  37
HETATM   37  C27 UNL     1      22.108  24.594  10.631  1.00  0.00     0.193 C 
BRANCH  37  38
HETATM   38  O5  UNL     1      21.499  24.462  11.876  1.00  0.00    -0.387 OA
BRANCH  38  39
HETATM   39  C28 UNL     1      20.127  24.454  11.837  1.00  0.00     0.198 C 
BRANCH  39  40
HETATM   40  C29 UNL     1      19.538  23.683  10.693  1.00  0.00     0.297 C 
BRANCH  40  41
HETATM   41  N4  UNL     1      18.372  22.918  11.021  1.00  0.00     0.082 N 
HETATM   42  C30 UNL     1      17.151  23.435  10.479  1.00  0.00     0.309 C 
HETATM   43  C31 UNL     1      18.326  22.833  12.485  1.00  0.00     0.309 C 
ENDBRANCH  40  41
ENDBRANCH  39  40
ENDBRANCH  38  39
ENDBRANCH  37  38
ENDBRANCH  36  37
ENDBRANCH  35  36
ENDBRANCH  34  35
ENDBRANCH  33  34
ENDBRANCH  32  33
ENDBRANCH  12  32
TORSDOF 15
ENDMDL
MODEL 2
REMARK VINA RESULT: -8.911589597      2.311     11.443
REMARK  15 active torsions:
REMARK  status: ('A' for Active; 'I' for Inactive)
REMARK    1  A    between atoms: C4_6  and  C5_7 
REMARK    2  A    between atoms: C6_8  and  C7_9 
REMARK    3  A    between atoms: C9_11  and  O1_12 
REMARK    4  A    between atoms: C11_15  and  N2_16 
REMARK    5  A    between atoms: C20_26  and  O2_27 
REMARK    6  A    between atoms: C23_31  and  O3_32 
REMARK    7  A    between atoms: O3_32  and  C24_33 
REMARK    8  A    between atoms: C24_33  and  C25_34 
REMARK    9  A    between atoms: C25_34  and  O4_35 
REMARK   10  A    between atoms: O4_35  and  C26_36 
REMARK   11  A    between atoms: C26_36  and  C27_37 
REMARK   12  A    between atoms: C27_37  and  O5_38 
REMARK   13  A    between atoms: O5_38  and  C28_39 
REMARK   14  A    between atoms: C28_39  and  C29_40 
REMARK   15  A    between atoms: C29_40  and  N4_41 
ROOT
HETATM    1  C1  UNL     1      16.794  30.644  14.957  1.00  0.00     0.046 C 
HETATM    2  C2  UNL     1      17.812  31.472  15.126  1.00  0.00     0.057 A 
HETATM    3  N1  UNL     1      19.119  31.173  14.677  1.00  0.00    -0.353 N 
ATOM      4  H1  UNL     1      19.309  30.291  14.201  1.00  0.00     0.166 HD
HETATM    5  C3  UNL     1      20.175  32.117  14.895  1.00  0.00     0.065 A 
HETATM    6  C4  UNL     1      21.442  31.743  14.416  1.00  0.00     0.045 A 
HETATM    7  C18 UNL     1      22.448  32.657  14.629  1.00  0.00     0.026 A 
HETATM    8  C19 UNL     1      22.247  33.846  15.261  1.00  0.00     0.039 A 
HETATM    9  C20 UNL     1      20.978  34.199  15.730  1.00  0.00     0.078 A 
HETATM   10  C21 UNL     1      19.940  33.311  15.535  1.00  0.00     0.028 A 
HETATM   11  C22 UNL     1      18.591  33.603  15.991  1.00  0.00     0.055 A 
HETATM   12  C23 UNL     1      17.602  32.758  15.806  1.00  0.00     0.095 A 
ENDROOT
BRANCH   6  13
HETATM   13  C5  UNL     1      21.636  30.490  13.745  1.00  0.00    -0.059 C 
HETATM   14  C6  UNL     1      21.801  29.412  13.199  1.00  0.00    -0.061 C 
BRANCH  14  15
HETATM   15  C7  UNL     1      22.000  28.126  12.583  1.00  0.00     0.022 A 
HETATM   16  C8  UNL     1      23.196  27.445  12.694  1.00  0.00     0.057 A 
HETATM   17  C9  UNL     1      23.398  26.219  12.103  1.00  0.00     0.069 A 
HETATM   18  C10 UNL     1      22.342  25.667  11.369  1.00  0.00     0.065 A 
HETATM   19  C11 UNL     1      21.131  26.300  11.226  1.00  0.00     0.034 A 
HETATM   20  C17 UNL     1      20.992  27.543  11.853  1.00  0.00     0.050 A 
BRANCH  17  21
HETATM   21  O1  UNL     1      24.593  25.561  12.226  1.00  0.00    -0.361 OA
ATOM     22  H1  UNL     1      25.051  25.227  11.463  1.00  0.00     0.217 HD
ENDBRANCH  17  21
BRANCH  19  23
HETATM   23  N2  UNL     1      20.078  25.720  10.495  1.00  0.00    -0.371 N 
HETATM   24  C12 UNL     1      20.276  24.845   9.377  1.00  0.00     0.168 C 
HETATM   25  C13 UNL     1      19.271  25.060   8.275  1.00  0.00     0.082 C 
HETATM   26  N3  UNL     1      18.479  26.206   8.391  1.00  0.00    -0.375 N 
HETATM   27  C14 UNL     1      18.429  27.128   7.323  1.00  0.00     0.154 C 
HETATM   28  C15 UNL     1      18.058  26.639   9.648  1.00  0.00     0.082 C 
HETATM   29  C16 UNL     1      18.710  26.006  10.853  1.00  0.00     0.168 C 
ENDBRANCH  19  23
ENDBRANCH  14  15
ENDBRANCH   6  13
BRANCH   9  30
HETATM   30  O2  UNL     1      20.800  35.416  16.369  1.00  0.00    -0.360 OA
ATOM     31  H2  UNL     1      20.357  35.442  17.209  1.00  0.00     0.217 HD
ENDBRANCH   9  30
BRANCH  12  32
HETATM   32  O3  UNL     1      16.297  33.043  16.247  1.00  0.00    -0.347 OA
BRANCH  32  33
HETATM   33  C24 UNL     1      15.869  34.251  16.760  1.00  0.00     0.201 C 
BRANCH  33  34
HETATM   34  C25 UNL     1      15.178  34.165  18.113  1.00  0.00     0.194 C 
BRANCH  34  35
HETATM   35  O4  UNL     1      16.030  34.715  19.035  1.00  0.00    -0.387 OA
BRANCH  35  36
HETATM   36  C26 UNL     1      16.487  35.947  18.631  1.00  0.00     0.193 C 
BRANCH  36  37
HETATM   37  C27 UNL     1      17.912  36.148  19.035  1.00  0.00     0.193 C 
BRANCH  37  38
HETATM   38  O5  UNL     1      18.543  34.981  19.456  1.00  0.00    -0.387 OA
BRANCH  38  39
HETATM   39  C28 UNL     1      19.859  35.145  19.811  1.00  0.00     0.198 C 
BRANCH  39  40
HETATM   40  C29 UNL     1      20.366  36.552  19.698  1.00  0.00     0.297 C 
BRANCH  40  41
HETATM   41  N4  UNL     1      21.792  36.682  19.735  1.00  0.00     0.082 N 
HETATM   42  C30 UNL     1      22.328  37.622  18.797  1.00  0.00     0.309 C 
HETATM   43  C31 UNL     1      22.340  35.336  19.531  1.00  0.00     0.309 C 
ENDBRANCH  40  41
ENDBRANCH  39  40
ENDBRANCH  38  39
ENDBRANCH  37  38
ENDBRANCH  36  37
ENDBRANCH  35  36
ENDBRANCH  34  35
ENDBRANCH  33  34
ENDBRANCH  32  33
ENDBRANCH  12  32
TORSDOF 15
ENDMDL
MODEL 3
REMARK VINA RESULT: -8.884821706      2.129     11.524
REMARK  15 active torsions:
REMARK  status: ('A' for Active; 'I' for Inactive)
REMARK    1  A    between atoms: C4_6  and  C5_7 
REMARK    2  A    between atoms: C6_8  and  C7_9 
REMARK    3  A    between atoms: C9_11  and  O1_12 
REMARK    4  A    between atoms: C11_15  and  N2_16 
REMARK    5  A    between atoms: C20_26  and  O2_27 
REMARK    6  A    between atoms: C23_31  and  O3_32 
REMARK    7  A    between atoms: O3_32  and  C24_33 
REMARK    8  A    between atoms: C24_33  and  C25_34 
REMARK    9  A    between atoms: C25_34  and  O4_35 
REMARK   10  A    between atoms: O4_35  and  C26_36 
REMARK   11  A    between atoms: C26_36  and  C27_37 
REMARK   12  A    between atoms: C27_37  and  O5_38 
REMARK   13  A    between atoms: O5_38  and  C28_39 
REMARK   14  A    between atoms: C28_39  and  C29_40 
REMARK   15  A    between atoms: C29_40  and  N4_41 
ROOT
HETATM    1  C1  UNL     1      16.953  30.595  15.067  1.00  0.00     0.046 C 
HETATM    2  C2  UNL     1      17.953  31.449  15.218  1.00  0.00     0.057 A 
HETATM    3  N1  UNL     1      19.267  31.169  14.776  1.00  0.00    -0.353 N 
ATOM      4  H1  UNL     1      19.477  30.281  14.320  1.00  0.00     0.166 HD
HETATM    5  C3  UNL     1      20.302  32.140  14.974  1.00  0.00     0.065 A 
HETATM    6  C4  UNL     1      21.577  31.784  14.504  1.00  0.00     0.045 A 
HETATM    7  C18 UNL     1      22.563  32.723  14.698  1.00  0.00     0.026 A 
HETATM    8  C19 UNL     1      22.336  33.922  15.302  1.00  0.00     0.039 A 
HETATM    9  C20 UNL     1      21.059  34.257  15.762  1.00  0.00     0.078 A 
HETATM   10  C21 UNL     1      20.041  33.343  15.587  1.00  0.00     0.028 A 
HETATM   11  C22 UNL     1      18.685  33.616  16.035  1.00  0.00     0.055 A 
HETATM   12  C23 UNL     1      17.714  32.745  15.869  1.00  0.00     0.095 A 
ENDROOT
BRANCH   6  13
HETATM   13  C5  UNL     1      21.799  30.520  13.861  1.00  0.00    -0.059 C 
HETATM   14  C6  UNL     1      21.963  29.449  13.302  1.00  0.00    -0.061 C 
BRANCH  14  15
HETATM   15  C7  UNL     1      22.128  28.187  12.628  1.00  0.00     0.022 A 
HETATM   16  C8  UNL     1      23.285  27.444  12.751  1.00  0.00     0.057 A 
HETATM   17  C9  UNL     1      23.454  26.240  12.105  1.00  0.00     0.069 A 
HETATM   18  C10 UNL     1      22.406  25.778  11.302  1.00  0.00     0.065 A 
HETATM   19  C11 UNL     1      21.233  26.477  11.144  1.00  0.00     0.034 A 
HETATM   20  C17 UNL     1      21.126  27.691  11.829  1.00  0.00     0.050 A 
BRANCH  17  21
HETATM   21  O1  UNL     1      24.611  25.519  12.242  1.00  0.00    -0.361 OA
ATOM     22  H1  UNL     1      24.636  24.725  12.763  1.00  0.00     0.217 HD
ENDBRANCH  17  21
BRANCH  19  23
HETATM   23  N2  UNL     1      20.186  25.986  10.342  1.00  0.00    -0.371 N 
HETATM   24  C12 UNL     1      18.902  26.615  10.242  1.00  0.00     0.168 C 
HETATM   25  C13 UNL     1      17.766  25.627  10.161  1.00  0.00     0.082 C 
HETATM   26  N3  UNL     1      18.097  24.298  10.436  1.00  0.00    -0.375 N 
HETATM   27  C14 UNL     1      17.382  23.594  11.430  1.00  0.00     0.154 C 
HETATM   28  C15 UNL     1      19.334  23.790  10.038  1.00  0.00     0.082 C 
HETATM   29  C16 UNL     1      20.373  24.780   9.572  1.00  0.00     0.168 C 
ENDBRANCH  19  23
ENDBRANCH  14  15
ENDBRANCH   6  13
BRANCH   9  30
HETATM   30  O2  UNL     1      20.853  35.484  16.374  1.00  0.00    -0.360 OA
ATOM     31  H2  UNL     1      20.646  36.243  15.842  1.00  0.00     0.217 HD
ENDBRANCH   9  30
BRANCH  12  32
HETATM   32  O3  UNL     1      16.403  33.012  16.302  1.00  0.00    -0.347 OA
BRANCH  32  33
HETATM   33  C24 UNL     1      15.944  34.226  16.770  1.00  0.00     0.201 C 
BRANCH  33  34
HETATM   34  C25 UNL     1      15.226  34.167  18.111  1.00  0.00     0.194 C 
BRANCH  34  35
HETATM   35  O4  UNL     1      16.071  34.710  19.044  1.00  0.00    -0.387 OA
BRANCH  35  36
HETATM   36  C26 UNL     1      16.542  35.938  18.646  1.00  0.00     0.193 C 
BRANCH  36  37
HETATM   37  C27 UNL     1      17.973  36.116  19.040  1.00  0.00     0.193 C 
BRANCH  37  38
HETATM   38  O5  UNL     1      18.602  34.930  19.408  1.00  0.00    -0.387 OA
BRANCH  38  39
HETATM   39  C28 UNL     1      19.882  35.090  19.876  1.00  0.00     0.198 C 
BRANCH  39  40
HETATM   40  C29 UNL     1      20.444  36.470  19.702  1.00  0.00     0.297 C 
BRANCH  40  41
HETATM   41  N4  UNL     1      21.852  36.518  19.443  1.00  0.00     0.082 N 
HETATM   42  C30 UNL     1      22.660  35.863  20.428  1.00  0.00     0.309 C 
HETATM   43  C31 UNL     1      22.203  37.935  19.304  1.00  0.00     0.309 C 
ENDBRANCH  40  41
ENDBRANCH  39  40
ENDBRANCH  38  39
ENDBRANCH  37  38
ENDBRANCH  36  37
ENDBRANCH  35  36
ENDBRANCH  34  35
ENDBRANCH  33  34
ENDBRANCH  32  33
ENDBRANCH  12  32
TORSDOF 15
ENDMDL
MODEL 4
REMARK VINA RESULT: -8.782610184      2.451     11.684
REMARK  15 active torsions:
REMARK  status: ('A' for Active; 'I' for Inactive)
REMARK    1  A    between atoms: C4_6  and  C5_7 
REMARK    2  A    between atoms: C6_8  and  C7_9 
REMARK    3  A    between atoms: C9_11  and  O1_12 
REMARK    4  A    between atoms: C11_15  and  N2_16 
REMARK    5  A    between atoms: C20_26  and  O2_27 
REMARK    6  A    between atoms: C23_31  and  O3_32 
REMARK    7  A    between atoms: O3_32  and  C24_33 
REMARK    8  A    between atoms: C24_33  and  C25_34 
REMARK    9  A    between atoms: C25_34  and  O4_35 
REMARK   10  A    between atoms: O4_35  and  C26_36 
REMARK   11  A    between atoms: C26_36  and  C27_37 
REMARK   12  A    between atoms: C27_37  and  O5_38 
REMARK   13  A    between atoms: O5_38  and  C28_39 
REMARK   14  A    between atoms: C28_39  and  C29_40 
REMARK   15  A    between atoms: C29_40  and  N4_41 
ROOT
HETATM    1  C1  UNL     1      16.902  30.460  15.206  1.00  0.00     0.046 C 
HETATM    2  C2  UNL     1      17.882  31.339  15.344  1.00  0.00     0.057 A 
HETATM    3  N1  UNL     1      19.186  31.107  14.848  1.00  0.00    -0.353 N 
ATOM      4  H1  UNL     1      19.404  30.237  14.360  1.00  0.00     0.166 HD
HETATM    5  C3  UNL     1      20.200  32.102  15.034  1.00  0.00     0.065 A 
HETATM    6  C4  UNL     1      21.467  31.794  14.509  1.00  0.00     0.045 A 
HETATM    7  C18 UNL     1      22.433  32.756  14.692  1.00  0.00     0.026 A 
HETATM    8  C19 UNL     1      22.195  33.932  15.336  1.00  0.00     0.039 A 
HETATM    9  C20 UNL     1      20.927  34.219  15.851  1.00  0.00     0.078 A 
HETATM   10  C21 UNL     1      19.929  33.281  15.688  1.00  0.00     0.028 A 
HETATM   11  C22 UNL     1      18.584  33.503  16.192  1.00  0.00     0.055 A 
HETATM   12  C23 UNL     1      17.632  32.610  16.037  1.00  0.00     0.095 A 
ENDROOT
BRANCH   6  13
HETATM   13  C5  UNL     1      21.700  30.555  13.825  1.00  0.00    -0.059 C 
HETATM   14  C6  UNL     1      21.907  29.491  13.267  1.00  0.00    -0.061 C 
BRANCH  14  15
HETATM   15  C7  UNL     1      22.165  28.223  12.635  1.00  0.00     0.022 A 
HETATM   16  C8  UNL     1      23.407  27.623  12.691  1.00  0.00     0.057 A 
HETATM   17  C9  UNL     1      23.665  26.415  12.084  1.00  0.00     0.069 A 
HETATM   18  C10 UNL     1      22.618  25.796  11.392  1.00  0.00     0.065 A 
HETATM   19  C11 UNL     1      21.362  26.347  11.304  1.00  0.00     0.034 A 
HETATM   20  C17 UNL     1      21.168  27.576  11.944  1.00  0.00     0.050 A 
BRANCH  17  21
HETATM   21  O1  UNL     1      24.905  25.837  12.153  1.00  0.00    -0.361 OA
ATOM     22  H1  UNL     1      25.017  24.899  12.051  1.00  0.00     0.217 HD
ENDBRANCH  17  21
BRANCH  19  23
HETATM   23  N2  UNL     1      20.320  25.701  10.615  1.00  0.00    -0.371 N 
HETATM   24  C12 UNL     1      20.525  24.866   9.468  1.00  0.00     0.168 C 
HETATM   25  C13 UNL     1      19.450  25.023   8.424  1.00  0.00     0.082 C 
HETATM   26  N3  UNL     1      18.579  26.100   8.608  1.00  0.00    -0.375 N 
HETATM   27  C14 UNL     1      18.401  27.037   7.566  1.00  0.00     0.154 C 
HETATM   28  C15 UNL     1      18.193  26.474   9.895  1.00  0.00     0.082 C 
HETATM   29  C16 UNL     1      18.955  25.871  11.050  1.00  0.00     0.168 C 
ENDBRANCH  19  23
ENDBRANCH  14  15
ENDBRANCH   6  13
BRANCH   9  30
HETATM   30  O2  UNL     1      20.711  35.423  16.503  1.00  0.00    -0.360 OA
ATOM     31  H2  UNL     1      21.349  35.735  17.133  1.00  0.00     0.217 HD
ENDBRANCH   9  30
BRANCH  12  32
HETATM   32  O3  UNL     1      16.331  32.828  16.525  1.00  0.00    -0.347 OA
BRANCH  32  33
HETATM   33  C24 UNL     1      15.724  34.058  16.670  1.00  0.00     0.201 C 
BRANCH  33  34
HETATM   34  C25 UNL     1      15.099  34.309  18.035  1.00  0.00     0.194 C 
BRANCH  34  35
HETATM   35  O4  UNL     1      16.128  34.532  18.913  1.00  0.00    -0.387 OA
BRANCH  35  36
HETATM   36  C26 UNL     1      16.455  35.865  18.982  1.00  0.00     0.193 C 
BRANCH  36  37
HETATM   37  C27 UNL     1      17.930  36.063  18.835  1.00  0.00     0.193 C 
BRANCH  37  38
HETATM   38  O5  UNL     1      18.297  36.658  17.632  1.00  0.00    -0.387 OA
BRANCH  38  39
HETATM   39  C28 UNL     1      17.310  37.414  17.051  1.00  0.00     0.198 C 
BRANCH  39  40
HETATM   40  C29 UNL     1      17.583  38.889  17.030  1.00  0.00     0.297 C 
BRANCH  40  41
HETATM   41  N4  UNL     1      18.949  39.251  17.261  1.00  0.00     0.082 N 
HETATM   42  C30 UNL     1      19.186  39.913  18.509  1.00  0.00     0.309 C 
HETATM   43  C31 UNL     1      19.361  40.076  16.120  1.00  0.00     0.309 C 
ENDBRANCH  40  41
ENDBRANCH  39  40
ENDBRANCH  38  39
ENDBRANCH  37  38
ENDBRANCH  36  37
ENDBRANCH  35  36
ENDBRANCH  34  35
ENDBRANCH  33  34
ENDBRANCH  32  33
ENDBRANCH  12  32
TORSDOF 15
ENDMDL
MODEL 5
REMARK VINA RESULT: -8.729258197      2.274     11.696
REMARK  15 active torsions:
REMARK  status: ('A' for Active; 'I' for Inactive)
REMARK    1  A    between atoms: C4_6  and  C5_7 
REMARK    2  A    between atoms: C6_8  and  C7_9 
REMARK    3  A    between atoms: C9_11  and  O1_12 
REMARK    4  A    between atoms: C11_15  and  N2_16 
REMARK    5  A    between atoms: C20_26  and  O2_27 
REMARK    6  A    between atoms: C23_31  and  O3_32 
REMARK    7  A    between atoms: O3_32  and  C24_33 
REMARK    8  A    between atoms: C24_33  and  C25_34 
REMARK    9  A    between atoms: C25_34  and  O4_35 
REMARK   10  A    between atoms: O4_35  and  C26_36 
REMARK   11  A    between atoms: C26_36  and  C27_37 
REMARK   12  A    between atoms: C27_37  and  O5_38 
REMARK   13  A    between atoms: O5_38  and  C28_39 
REMARK   14  A    between atoms: C28_39  and  C29_40 
REMARK   15  A    between atoms: C29_40  and  N4_41 
ROOT
HETATM    1  C1  UNL     1      16.759  30.767  14.874  1.00  0.00     0.046 C 
HETATM    2  C2  UNL     1      17.793  31.570  15.067  1.00  0.00     0.057 A 
HETATM    3  N1  UNL     1      19.102  31.240  14.646  1.00  0.00    -0.353 N 
ATOM      4  H1  UNL     1      19.281  30.354  14.172  1.00  0.00     0.166 HD
HETATM    5  C3  UNL     1      20.176  32.157  14.888  1.00  0.00     0.065 A 
HETATM    6  C4  UNL     1      21.443  31.754  14.436  1.00  0.00     0.045 A 
HETATM    7  C18 UNL     1      22.467  32.642  14.673  1.00  0.00     0.026 A 
HETATM    8  C19 UNL     1      22.281  33.835  15.303  1.00  0.00     0.039 A 
HETATM    9  C20 UNL     1      21.011  34.218  15.744  1.00  0.00     0.078 A 
HETATM   10  C21 UNL     1      19.957  33.356  15.525  1.00  0.00     0.028 A 
HETATM   11  C22 UNL     1      18.605  33.681  15.953  1.00  0.00     0.055 A 
HETATM   12  C23 UNL     1      17.600  32.860  15.745  1.00  0.00     0.095 A 
ENDROOT
BRANCH   6  13
HETATM   13  C5  UNL     1      21.621  30.497  13.767  1.00  0.00    -0.059 C 
HETATM   14  C6  UNL     1      21.796  29.425  13.212  1.00  0.00    -0.061 C 
BRANCH  14  15
HETATM   15  C7  UNL     1      22.030  28.157  12.571  1.00  0.00     0.022 A 
HETATM   16  C8  UNL     1      23.216  27.469  12.734  1.00  0.00     0.057 A 
HETATM   17  C9  UNL     1      23.452  26.261  12.120  1.00  0.00     0.069 A 
HETATM   18  C10 UNL     1      22.442  25.733  11.307  1.00  0.00     0.065 A 
HETATM   19  C11 UNL     1      21.243  26.375  11.110  1.00  0.00     0.034 A 
HETATM   20  C17 UNL     1      21.068  27.599  11.764  1.00  0.00     0.050 A 
BRANCH  17  21
HETATM   21  O1  UNL     1      24.636  25.595  12.296  1.00  0.00    -0.361 OA
ATOM     22  H1  UNL     1      24.654  24.663  12.481  1.00  0.00     0.217 HD
ENDBRANCH  17  21
BRANCH  19  23
HETATM   23  N2  UNL     1      20.235  25.820  10.300  1.00  0.00    -0.371 N 
HETATM   24  C12 UNL     1      19.026  26.508   9.955  1.00  0.00     0.168 C 
HETATM   25  C13 UNL     1      17.820  25.604   9.928  1.00  0.00     0.082 C 
HETATM   26  N3  UNL     1      18.007  24.327  10.465  1.00  0.00    -0.375 N 
HETATM   27  C14 UNL     1      17.144  23.870  11.486  1.00  0.00     0.154 C 
HETATM   28  C15 UNL     1      19.225  23.670  10.297  1.00  0.00     0.082 C 
HETATM   29  C16 UNL     1      20.386  24.483   9.778  1.00  0.00     0.168 C 
ENDBRANCH  19  23
ENDBRANCH  14  15
ENDBRANCH   6  13
BRANCH   9  30
HETATM   30  O2  UNL     1      20.849  35.438  16.382  1.00  0.00    -0.360 OA
ATOM     31  H2  UNL     1      20.051  35.609  16.868  1.00  0.00     0.217 HD
ENDBRANCH   9  30
BRANCH  12  32
HETATM   32  O3  UNL     1      16.293  33.177  16.158  1.00  0.00    -0.347 OA
BRANCH  32  33
HETATM   33  C24 UNL     1      15.897  34.372  16.721  1.00  0.00     0.201 C 
BRANCH  33  34
HETATM   34  C25 UNL     1      15.195  34.247  18.066  1.00  0.00     0.194 C 
BRANCH  34  35
HETATM   35  O4  UNL     1      16.092  34.636  19.026  1.00  0.00    -0.387 OA
BRANCH  35  36
HETATM   36  C26 UNL     1      16.776  35.767  18.650  1.00  0.00     0.193 C 
BRANCH  36  37
HETATM   37  C27 UNL     1      18.213  35.684  19.057  1.00  0.00     0.193 C 
BRANCH  37  38
HETATM   38  O5  UNL     1      19.047  36.532  18.334  1.00  0.00    -0.387 OA
BRANCH  38  39
HETATM   39  C28 UNL     1      19.451  37.649  19.022  1.00  0.00     0.198 C 
BRANCH  39  40
HETATM   40  C29 UNL     1      18.846  38.934  18.540  1.00  0.00     0.297 C 
BRANCH  40  41
HETATM   41  N4  UNL     1      18.494  38.949  17.151  1.00  0.00     0.082 N 
HETATM   42  C30 UNL     1      19.232  39.888  16.361  1.00  0.00     0.309 C 
HETATM   43  C31 UNL     1      17.050  39.201  17.089  1.00  0.00     0.309 C 
ENDBRANCH  40  41
ENDBRANCH  39  40
ENDBRANCH  38  39
ENDBRANCH  37  38
ENDBRANCH  36  37
ENDBRANCH  35  36
ENDBRANCH  34  35
ENDBRANCH  33  34
ENDBRANCH  32  33
ENDBRANCH  12  32
TORSDOF 15
ENDMDL
