MODEL 1
REMARK VINA RESULT: -7.939684064      0.000      0.000
REMARK  12 active torsions:
REMARK  status: ('A' for Active; 'I' for Inactive)
REMARK    1  A    between atoms: C2_2  and  O1_3 
REMARK    2  A    between atoms: O1_3  and  C3_4 
REMARK    3  A    between atoms: C3_4  and  C4_6 
REMARK    4  A    between atoms: C4_6  and  C5_7 
REMARK    5  A    between atoms: C6_9  and  N1_10 
REMARK       I    between atoms: N1_10  and  C7_12 
REMARK       I    between atoms: C7_12  and  N2_14 
REMARK    6  A    between atoms: N2_14  and  S2_16 
REMARK    7  A    between atoms: S2_16  and  C8_19 
REMARK    8  A    between atoms: N3_21  and  C10_22 
REMARK    9  A    between atoms: C10_22  and  C11_23 
REMARK   10  A    between atoms: C11_23  and  N4_24 
REMARK   11  A    between atoms: C14_31  and  N7_32 
REMARK   12  A    between atoms: C15_37  and  N9_38 
ROOT
HETATM    1  C8  UNL     1       0.004  23.689  12.471  1.00  0.00     0.182 A 
HETATM    2  C9  UNL     1       0.608  22.560  11.913  1.00  0.00     0.156 A 
HETATM    3  N3  UNL     1       1.061  22.873  10.687  1.00  0.00    -0.285 N 
HETATM    4  N10 UNL     1       0.740  24.166  10.508  1.00  0.00    -0.240 N 
ATOM      5  H10 UNL     1       0.950  24.706   9.669  1.00  0.00     0.208 HD
HETATM    6  N11 UNL     1       0.126  24.630  11.548  1.00  0.00    -0.273 N 
ATOM      7  H11 UNL     1      -0.215  25.587  11.644  1.00  0.00     0.189 HD
ENDROOT
BRANCH   1   8
HETATM    8  S2  UNL     1      -0.790  23.802  14.020  1.00  0.00     0.284 S 
HETATM    9  O4  UNL     1       0.244  24.344  15.016  1.00  0.00    -0.199 OA
HETATM   10  O5  UNL     1      -1.788  24.968  13.919  1.00  0.00    -0.199 OA
BRANCH   8  11
HETATM   11  N2  UNL     1      -1.543  22.419  14.594  1.00  0.00    -0.230 N 
HETATM   12  C7  UNL     1      -2.683  21.825  14.050  1.00  0.00     0.335 C 
HETATM   13  N1  UNL     1      -3.265  20.625  14.588  1.00  0.00    -0.288 N 
HETATM   14  O3  UNL     1      -3.246  22.334  13.049  1.00  0.00    -0.246 OA
ATOM     15  H1  UNL     1      -4.242  20.612  14.882  1.00  0.00     0.172 HD
ATOM     16  H2  UNL     1      -1.132  21.972  15.413  1.00  0.00     0.183 HD
BRANCH  13  17
HETATM   17  C6  UNL     1      -2.522  19.544  14.697  1.00  0.00     0.154 A 
HETATM   18  S1  UNL     1      -1.760  18.706  13.375  1.00  0.00    -0.054 SA
HETATM   19  C5  UNL     1      -0.968  17.489  14.315  1.00  0.00     0.036 A 
HETATM   20  C17 UNL     1      -1.347  17.822  15.577  1.00  0.00     0.132 A 
HETATM   21  N12 UNL     1      -2.127  18.854  15.744  1.00  0.00    -0.324 N 
HETATM   22  N13 UNL     1      -0.846  17.024  16.704  1.00  0.00    -0.082 NA
ATOM     23  H12 UNL     1      -2.429  19.124  16.681  1.00  0.00     0.169 HD
BRANCH  19  24
HETATM   24  C4  UNL     1      -0.095  16.362  13.832  1.00  0.00     0.161 C 
BRANCH  24  25
HETATM   25  C3  UNL     1       1.311  16.675  14.073  1.00  0.00     0.263 C 
HETATM   26  O2  UNL     1       2.048  15.892  14.706  1.00  0.00    -0.265 OA
BRANCH  25  27
HETATM   27  O1  UNL     1       1.866  17.880  13.588  1.00  0.00    -0.322 OA
BRANCH  27  28
HETATM   28  C2  UNL     1       3.230  17.856  13.180  1.00  0.00     0.174 C 
HETATM   29  C1  UNL     1       4.042  18.658  14.143  1.00  0.00     0.034 C 
ENDBRANCH  27  28
ENDBRANCH  25  27
ENDBRANCH  24  25
ENDBRANCH  19  24
ENDBRANCH  13  17
ENDBRANCH   8  11
ENDBRANCH   1   8
BRANCH   3  30
HETATM   30  C10 UNL     1       1.710  21.996   9.752  1.00  0.00     0.170 C 
BRANCH  30  31
HETATM   31  C11 UNL     1       0.832  21.138   8.920  1.00  0.00     0.152 C 
BRANCH  31  32
HETATM   32  N4  UNL     1       0.446  19.906   9.510  1.00  0.00    -0.335 N 
HETATM   33  C12 UNL     1       1.196  19.129  10.337  1.00  0.00     0.185 A 
HETATM   34  N5  UNL     1       0.534  18.044  10.693  1.00  0.00    -0.336 N 
HETATM   35  C13 UNL     1      -0.666  18.075  10.114  1.00  0.00     0.152 A 
ATOM     36  H5  UNL     1       0.882  17.307  11.306  1.00  0.00     0.168 HD
HETATM   37  N6  UNL     1      -1.688  17.196  10.185  1.00  0.00    -0.174 N 
HETATM   38  C16 UNL     1      -0.715  19.245   9.372  1.00  0.00     0.125 A 
HETATM   39  C14 UNL     1      -2.819  17.472   9.496  1.00  0.00     0.679 A 
ATOM     40  H6  UNL     1      -1.610  16.347  10.743  1.00  0.00     0.186 HD
HETATM   41  N8  UNL     1      -2.892  18.576   8.783  1.00  0.00    -0.175 N 
HETATM   42  C15 UNL     1      -1.885  19.496   8.681  1.00  0.00     0.145 A 
ATOM     43  H8  UNL     1      -3.757  18.758   8.274  1.00  0.00     0.186 HD
BRANCH  39  44
HETATM   44  N7  UNL     1      -3.786  16.617   9.584  1.00  0.00    -0.234 N 
ATOM     45  H72 UNL     1      -4.170  16.120   8.780  1.00  0.00     0.174 HD
ATOM     46  H71 UNL     1      -4.175  16.448  10.512  1.00  0.00     0.174 HD
ENDBRANCH  39  44
BRANCH  42  47
HETATM   47  N9  UNL     1      -2.073  20.483   7.990  1.00  0.00    -0.383 N 
ATOM     48  H92 UNL     1      -2.816  21.163   8.155  1.00  0.00     0.157 HD
ATOM     49  H91 UNL     1      -1.453  20.643   7.197  1.00  0.00     0.157 HD
ENDBRANCH  42  47
ENDBRANCH  31  32
ENDBRANCH  30  31
ENDBRANCH   3  30
TORSDOF 12
ENDMDL
MODEL 2
REMARK VINA RESULT: -7.634197270      2.282      3.956
REMARK  12 active torsions:
REMARK  status: ('A' for Active; 'I' for Inactive)
REMARK    1  A    between atoms: C2_2  and  O1_3 
REMARK    2  A    between atoms: O1_3  and  C3_4 
REMARK    3  A    between atoms: C3_4  and  C4_6 
REMARK    4  A    between atoms: C4_6  and  C5_7 
REMARK    5  A    between atoms: C6_9  and  N1_10 
REMARK       I    between atoms: N1_10  and  C7_12 
REMARK       I    between atoms: C7_12  and  N2_14 
REMARK    6  A    between atoms: N2_14  and  S2_16 
REMARK    7  A    between atoms: S2_16  and  C8_19 
REMARK    8  A    between atoms: N3_21  and  C10_22 
REMARK    9  A    between atoms: C10_22  and  C11_23 
REMARK   10  A    between atoms: C11_23  and  N4_24 
REMARK   11  A    between atoms: C14_31  and  N7_32 
REMARK   12  A    between atoms: C15_37  and  N9_38 
ROOT
HETATM    1  C8  UNL     1       0.031  23.789  12.701  1.00  0.00     0.182 A 
HETATM    2  C9  UNL     1       1.201  23.075  12.430  1.00  0.00     0.156 A 
HETATM    3  N3  UNL     1       1.603  23.359  11.180  1.00  0.00    -0.285 N 
HETATM    4  N10 UNL     1       0.696  24.229  10.704  1.00  0.00    -0.240 N 
ATOM      5  H10 UNL     1       0.719  24.641   9.771  1.00  0.00     0.208 HD
HETATM    6  N11 UNL     1      -0.212  24.472  11.593  1.00  0.00    -0.273 N 
ATOM      7  H11 UNL     1      -1.004  25.101  11.460  1.00  0.00     0.189 HD
ENDROOT
BRANCH   1   8
HETATM    8  S2  UNL     1      -0.923  23.734  14.159  1.00  0.00     0.284 S 
HETATM    9  O4  UNL     1       0.005  24.121  15.318  1.00  0.00    -0.199 OA
HETATM   10  O5  UNL     1      -1.888  24.931  14.099  1.00  0.00    -0.199 OA
BRANCH   8  11
HETATM   11  N2  UNL     1      -1.754  22.313  14.474  1.00  0.00    -0.230 N 
HETATM   12  C7  UNL     1      -3.112  22.092  14.238  1.00  0.00     0.335 C 
HETATM   13  N1  UNL     1      -3.755  20.836  14.518  1.00  0.00    -0.288 N 
HETATM   14  O3  UNL     1      -3.829  23.006  13.761  1.00  0.00    -0.246 OA
ATOM     15  H1  UNL     1      -4.564  20.797  15.138  1.00  0.00     0.172 HD
ATOM     16  H2  UNL     1      -1.221  21.542  14.873  1.00  0.00     0.183 HD
BRANCH  13  17
HETATM   17  C6  UNL     1      -3.285  19.737  13.965  1.00  0.00     0.154 A 
HETATM   18  S1  UNL     1      -3.729  19.129  12.396  1.00  0.00    -0.054 SA
HETATM   19  C5  UNL     1      -2.685  17.749  12.394  1.00  0.00     0.036 A 
HETATM   20  C17 UNL     1      -2.071  17.863  13.601  1.00  0.00     0.132 A 
HETATM   21  N12 UNL     1      -2.389  18.866  14.372  1.00  0.00    -0.324 N 
HETATM   22  N13 UNL     1      -1.058  16.870  13.980  1.00  0.00    -0.082 NA
ATOM     23  H12 UNL     1      -1.944  18.974  15.284  1.00  0.00     0.169 HD
BRANCH  19  24
HETATM   24  C4  UNL     1      -2.524  16.707  11.320  1.00  0.00     0.161 C 
BRANCH  24  25
HETATM   25  C3  UNL     1      -1.409  17.053  10.444  1.00  0.00     0.263 C 
HETATM   26  O2  UNL     1      -1.458  18.053   9.700  1.00  0.00    -0.265 OA
BRANCH  25  27
HETATM   27  O1  UNL     1      -0.244  16.255  10.426  1.00  0.00    -0.322 OA
BRANCH  27  28
HETATM   28  C2  UNL     1       0.407  16.075   9.172  1.00  0.00     0.174 C 
HETATM   29  C1  UNL     1       0.300  14.642   8.767  1.00  0.00     0.034 C 
ENDBRANCH  27  28
ENDBRANCH  25  27
ENDBRANCH  24  25
ENDBRANCH  19  24
ENDBRANCH  13  17
ENDBRANCH   8  11
ENDBRANCH   1   8
BRANCH   3  30
HETATM   30  C10 UNL     1       2.737  22.811  10.487  1.00  0.00     0.170 C 
BRANCH  30  31
HETATM   31  C11 UNL     1       3.408  21.650  11.118  1.00  0.00     0.152 C 
BRANCH  31  32
HETATM   32  N4  UNL     1       2.600  20.494  11.285  1.00  0.00    -0.335 N 
HETATM   33  C12 UNL     1       1.553  20.114  10.505  1.00  0.00     0.185 A 
HETATM   34  N5  UNL     1       1.016  18.994  10.951  1.00  0.00    -0.336 N 
HETATM   35  C13 UNL     1       1.691  18.605  12.032  1.00  0.00     0.152 A 
ATOM     36  H5  UNL     1       0.220  18.508  10.538  1.00  0.00     0.168 HD
HETATM   37  N6  UNL     1       1.520  17.524  12.822  1.00  0.00    -0.174 N 
HETATM   38  C16 UNL     1       2.684  19.551  12.237  1.00  0.00     0.125 A 
HETATM   39  C14 UNL     1       2.360  17.355  13.868  1.00  0.00     0.679 A 
ATOM     40  H6  UNL     1       0.776  16.852  12.634  1.00  0.00     0.186 HD
HETATM   41  N8  UNL     1       3.311  18.239  14.086  1.00  0.00    -0.175 N 
HETATM   42  C15 UNL     1       3.524  19.348  13.315  1.00  0.00     0.145 A 
ATOM     43  H8  UNL     1       3.930  18.086  14.883  1.00  0.00     0.186 HD
BRANCH  39  44
HETATM   44  N7  UNL     1       2.178  16.309  14.607  1.00  0.00    -0.234 N 
ATOM     45  H72 UNL     1       1.429  16.231  15.294  1.00  0.00     0.174 HD
ATOM     46  H71 UNL     1       2.831  15.535  14.485  1.00  0.00     0.174 HD
ENDBRANCH  39  44
BRANCH  42  47
HETATM   47  N9  UNL     1       4.441  20.093  13.617  1.00  0.00    -0.383 N 
ATOM     48  H92 UNL     1       4.659  20.372  14.574  1.00  0.00     0.157 HD
ATOM     49  H91 UNL     1       5.027  20.465  12.870  1.00  0.00     0.157 HD
ENDBRANCH  42  47
ENDBRANCH  31  32
ENDBRANCH  30  31
ENDBRANCH   3  30
TORSDOF 12
ENDMDL
MODEL 3
REMARK VINA RESULT: -7.617824211      2.202      4.099
REMARK  12 active torsions:
REMARK  status: ('A' for Active; 'I' for Inactive)
REMARK    1  A    between atoms: C2_2  and  O1_3 
REMARK    2  A    between atoms: O1_3  and  C3_4 
REMARK    3  A    between atoms: C3_4  and  C4_6 
REMARK    4  A    between atoms: C4_6  and  C5_7 
REMARK    5  A    between atoms: C6_9  and  N1_10 
REMARK       I    between atoms: N1_10  and  C7_12 
REMARK       I    between atoms: C7_12  and  N2_14 
REMARK    6  A    between atoms: N2_14  and  S2_16 
REMARK    7  A    between atoms: S2_16  and  C8_19 
REMARK    8  A    between atoms: N3_21  and  C10_22 
REMARK    9  A    between atoms: C10_22  and  C11_23 
REMARK   10  A    between atoms: C11_23  and  N4_24 
REMARK   11  A    between atoms: C14_31  and  N7_32 
REMARK   12  A    between atoms: C15_37  and  N9_38 
ROOT
HETATM    1  C8  UNL     1       0.024  23.753  12.678  1.00  0.00     0.182 A 
HETATM    2  C9  UNL     1       1.217  23.067  12.439  1.00  0.00     0.156 A 
HETATM    3  N3  UNL     1       1.644  23.359  11.199  1.00  0.00    -0.285 N 
HETATM    4  N10 UNL     1       0.729  24.206  10.698  1.00  0.00    -0.240 N 
ATOM      5  H10 UNL     1       0.767  24.618   9.765  1.00  0.00     0.208 HD
HETATM    6  N11 UNL     1      -0.207  24.429  11.564  1.00  0.00    -0.273 N 
ATOM      7  H11 UNL     1      -1.009  25.039  11.409  1.00  0.00     0.189 HD
ENDROOT
BRANCH   1   8
HETATM    8  S2  UNL     1      -0.965  23.678  14.112  1.00  0.00     0.284 S 
HETATM    9  O4  UNL     1      -0.080  24.101  15.292  1.00  0.00    -0.199 OA
HETATM   10  O5  UNL     1      -1.964  24.844  14.019  1.00  0.00    -0.199 OA
BRANCH   8  11
HETATM   11  N2  UNL     1      -1.761  22.234  14.415  1.00  0.00    -0.230 N 
HETATM   12  C7  UNL     1      -3.132  22.013  14.278  1.00  0.00     0.335 C 
HETATM   13  N1  UNL     1      -3.743  20.737  14.541  1.00  0.00    -0.288 N 
HETATM   14  O3  UNL     1      -3.890  22.944  13.912  1.00  0.00    -0.246 OA
ATOM     15  H1  UNL     1      -4.499  20.657  15.221  1.00  0.00     0.172 HD
ATOM     16  H2  UNL     1      -1.192  21.447  14.726  1.00  0.00     0.183 HD
BRANCH  13  17
HETATM   17  C6  UNL     1      -3.314  19.674  13.892  1.00  0.00     0.154 A 
HETATM   18  S1  UNL     1      -3.764  19.233  12.270  1.00  0.00    -0.054 SA
HETATM   19  C5  UNL     1      -2.780  17.815  12.149  1.00  0.00     0.036 A 
HETATM   20  C17 UNL     1      -2.176  17.791  13.366  1.00  0.00     0.132 A 
HETATM   21  N12 UNL     1      -2.461  18.731  14.224  1.00  0.00    -0.324 N 
HETATM   22  N13 UNL     1      -1.211  16.723  13.659  1.00  0.00    -0.082 NA
ATOM     23  H12 UNL     1      -2.023  18.735  15.146  1.00  0.00     0.169 HD
BRANCH  19  24
HETATM   24  C4  UNL     1      -2.651  16.870  10.984  1.00  0.00     0.161 C 
BRANCH  24  25
HETATM   25  C3  UNL     1      -1.414  17.135  10.255  1.00  0.00     0.263 C 
HETATM   26  O2  UNL     1      -0.419  16.391  10.379  1.00  0.00    -0.265 OA
BRANCH  25  27
HETATM   27  O1  UNL     1      -1.321  18.247   9.390  1.00  0.00    -0.322 OA
BRANCH  27  28
HETATM   28  C2  UNL     1      -2.440  18.519   8.552  1.00  0.00     0.174 C 
HETATM   29  C1  UNL     1      -2.588  19.998   8.402  1.00  0.00     0.034 C 
ENDBRANCH  27  28
ENDBRANCH  25  27
ENDBRANCH  24  25
ENDBRANCH  19  24
ENDBRANCH  13  17
ENDBRANCH   8  11
ENDBRANCH   1   8
BRANCH   3  30
HETATM   30  C10 UNL     1       2.808  22.837  10.536  1.00  0.00     0.170 C 
BRANCH  30  31
HETATM   31  C11 UNL     1       3.443  21.643  11.143  1.00  0.00     0.152 C 
BRANCH  31  32
HETATM   32  N4  UNL     1       2.601  20.507  11.282  1.00  0.00    -0.335 N 
HETATM   33  C12 UNL     1       1.550  20.172  10.487  1.00  0.00     0.185 A 
HETATM   34  N5  UNL     1       0.978  19.060  10.907  1.00  0.00    -0.336 N 
HETATM   35  C13 UNL     1       1.632  18.631  11.986  1.00  0.00     0.152 A 
ATOM     36  H5  UNL     1       0.172  18.604  10.479  1.00  0.00     0.168 HD
HETATM   37  N6  UNL     1       1.424  17.541  12.754  1.00  0.00    -0.174 N 
HETATM   38  C16 UNL     1       2.649  19.545  12.217  1.00  0.00     0.125 A 
HETATM   39  C14 UNL     1       2.249  17.330  13.804  1.00  0.00     0.679 A 
ATOM     40  H6  UNL     1       0.663  16.894  12.548  1.00  0.00     0.186 HD
HETATM   41  N8  UNL     1       3.223  18.182  14.046  1.00  0.00    -0.175 N 
HETATM   42  C15 UNL     1       3.475  19.298  13.298  1.00  0.00     0.145 A 
ATOM     43  H8  UNL     1       3.831  17.997  14.844  1.00  0.00     0.186 HD
BRANCH  39  44
HETATM   44  N7  UNL     1       2.032  16.276  14.522  1.00  0.00    -0.234 N 
ATOM     45  H72 UNL     1       1.145  15.772  14.525  1.00  0.00     0.174 HD
ATOM     46  H71 UNL     1       2.798  15.949  15.111  1.00  0.00     0.174 HD
ENDBRANCH  39  44
BRANCH  42  47
HETATM   47  N9  UNL     1       4.409  20.011  13.621  1.00  0.00    -0.383 N 
ATOM     48  H92 UNL     1       5.312  20.020  13.146  1.00  0.00     0.157 HD
ATOM     49  H91 UNL     1       4.287  20.638  14.416  1.00  0.00     0.157 HD
ENDBRANCH  42  47
ENDBRANCH  31  32
ENDBRANCH  30  31
ENDBRANCH   3  30
TORSDOF 12
ENDMDL
MODEL 4
REMARK VINA RESULT: -7.593516335      1.951      5.119
REMARK  12 active torsions:
REMARK  status: ('A' for Active; 'I' for Inactive)
REMARK    1  A    between atoms: C2_2  and  O1_3 
REMARK    2  A    between atoms: O1_3  and  C3_4 
REMARK    3  A    between atoms: C3_4  and  C4_6 
REMARK    4  A    between atoms: C4_6  and  C5_7 
REMARK    5  A    between atoms: C6_9  and  N1_10 
REMARK       I    between atoms: N1_10  and  C7_12 
REMARK       I    between atoms: C7_12  and  N2_14 
REMARK    6  A    between atoms: N2_14  and  S2_16 
REMARK    7  A    between atoms: S2_16  and  C8_19 
REMARK    8  A    between atoms: N3_21  and  C10_22 
REMARK    9  A    between atoms: C10_22  and  C11_23 
REMARK   10  A    between atoms: C11_23  and  N4_24 
REMARK   11  A    between atoms: C14_31  and  N7_32 
REMARK   12  A    between atoms: C15_37  and  N9_38 
ROOT
HETATM    1  C8  UNL     1      -3.624  20.579  14.515  1.00  0.00     0.182 A 
HETATM    2  C9  UNL     1      -2.610  19.619  14.515  1.00  0.00     0.156 A 
HETATM    3  N3  UNL     1      -2.797  18.792  15.558  1.00  0.00    -0.285 N 
HETATM    4  N10 UNL     1      -3.903  19.241  16.175  1.00  0.00    -0.240 N 
ATOM      5  H10 UNL     1      -4.313  18.823  17.010  1.00  0.00     0.208 HD
HETATM    6  N11 UNL     1      -4.375  20.278  15.562  1.00  0.00    -0.273 N 
ATOM      7  H11 UNL     1      -5.209  20.792  15.847  1.00  0.00     0.189 HD
ENDROOT
BRANCH   1   8
HETATM    8  S2  UNL     1      -3.811  21.913  13.407  1.00  0.00     0.284 S 
HETATM    9  O4  UNL     1      -4.785  21.456  12.313  1.00  0.00    -0.199 OA
HETATM   10  O5  UNL     1      -4.631  22.986  14.146  1.00  0.00    -0.199 OA
BRANCH   8  11
HETATM   11  N2  UNL     1      -2.412  22.571  12.762  1.00  0.00    -0.230 N 
HETATM   12  C7  UNL     1      -1.502  23.383  13.441  1.00  0.00     0.335 C 
HETATM   13  N1  UNL     1      -0.309  23.898  12.824  1.00  0.00    -0.288 N 
HETATM   14  O3  UNL     1      -1.704  23.693  14.641  1.00  0.00    -0.246 OA
ATOM     15  H1  UNL     1      -0.132  24.902  12.801  1.00  0.00     0.172 HD
ATOM     16  H2  UNL     1      -2.207  22.359  11.786  1.00  0.00     0.183 HD
BRANCH  13  17
HETATM   17  C6  UNL     1       0.551  23.057  12.287  1.00  0.00     0.154 A 
HETATM   18  S1  UNL     1       2.093  22.623  12.966  1.00  0.00    -0.054 SA
HETATM   19  C5  UNL     1       2.558  21.491  11.744  1.00  0.00     0.036 A 
HETATM   20  C17 UNL     1       1.489  21.530  10.907  1.00  0.00     0.132 A 
HETATM   21  N12 UNL     1       0.495  22.324  11.198  1.00  0.00    -0.324 N 
HETATM   22  N13 UNL     1       1.481  20.663   9.722  1.00  0.00    -0.082 NA
ATOM     23  H12 UNL     1      -0.319  22.375  10.586  1.00  0.00     0.169 HD
BRANCH  19  24
HETATM   24  C4  UNL     1       3.828  20.688  11.656  1.00  0.00     0.161 C 
BRANCH  24  25
HETATM   25  C3  UNL     1       3.625  19.359  12.225  1.00  0.00     0.263 C 
HETATM   26  O2  UNL     1       3.790  18.329  11.539  1.00  0.00    -0.265 OA
BRANCH  25  27
HETATM   27  O1  UNL     1       3.236  19.214  13.575  1.00  0.00    -0.322 OA
BRANCH  27  28
HETATM   28  C2  UNL     1       4.250  18.875  14.516  1.00  0.00     0.174 C 
HETATM   29  C1  UNL     1       4.789  20.127  15.125  1.00  0.00     0.034 C 
ENDBRANCH  27  28
ENDBRANCH  25  27
ENDBRANCH  24  25
ENDBRANCH  19  24
ENDBRANCH  13  17
ENDBRANCH   8  11
ENDBRANCH   1   8
BRANCH   3  30
HETATM   30  C10 UNL     1      -1.961  17.690  15.952  1.00  0.00     0.170 C 
BRANCH  30  31
HETATM   31  C11 UNL     1      -1.747  16.622  14.947  1.00  0.00     0.152 C 
BRANCH  31  32
HETATM   32  N4  UNL     1      -0.692  16.853  14.025  1.00  0.00    -0.335 N 
HETATM   33  C12 UNL     1       0.639  16.890  14.303  1.00  0.00     0.185 A 
HETATM   34  N5  UNL     1       1.341  17.140  13.215  1.00  0.00    -0.336 N 
HETATM   35  C13 UNL     1       0.498  17.275  12.192  1.00  0.00     0.152 A 
ATOM     36  H5  UNL     1       2.357  17.218  13.165  1.00  0.00     0.168 HD
HETATM   37  N6  UNL     1       0.744  17.526  10.889  1.00  0.00    -0.174 N 
HETATM   38  C16 UNL     1      -0.777  17.094  12.707  1.00  0.00     0.125 A 
HETATM   39  C14 UNL     1      -0.307  17.608  10.042  1.00  0.00     0.679 A 
ATOM     40  H6  UNL     1       1.698  17.652  10.552  1.00  0.00     0.186 HD
HETATM   41  N8  UNL     1      -1.529  17.440  10.505  1.00  0.00    -0.175 N 
HETATM   42  C15 UNL     1      -1.828  17.183  11.814  1.00  0.00     0.145 A 
ATOM     43  H8  UNL     1      -2.302  17.506   9.843  1.00  0.00     0.186 HD
BRANCH  39  44
HETATM   44  N7  UNL     1      -0.045  17.845   8.797  1.00  0.00    -0.234 N 
ATOM     45  H72 UNL     1       0.520  18.633   8.484  1.00  0.00     0.174 HD
ATOM     46  H71 UNL     1      -0.436  17.201   8.109  1.00  0.00     0.174 HD
ENDBRANCH  39  44
BRANCH  42  47
HETATM   47  N9  UNL     1      -3.000  17.045  12.121  1.00  0.00    -0.383 N 
ATOM     48  H92 UNL     1      -3.681  17.804  12.132  1.00  0.00     0.157 HD
ATOM     49  H91 UNL     1      -3.323  16.115  12.386  1.00  0.00     0.157 HD
ENDBRANCH  42  47
ENDBRANCH  31  32
ENDBRANCH  30  31
ENDBRANCH   3  30
TORSDOF 12
ENDMDL
MODEL 5
REMARK VINA RESULT: -7.448171604      2.947      6.515
REMARK  12 active torsions:
REMARK  status: ('A' for Active; 'I' for Inactive)
REMARK    1  A    between atoms: C2_2  and  O1_3 
REMARK    2  A    between atoms: O1_3  and  C3_4 
REMARK    3  A    between atoms: C3_4  and  C4_6 
REMARK    4  A    between atoms: C4_6  and  C5_7 
REMARK    5  A    between atoms: C6_9  and  N1_10 
REMARK       I    between atoms: N1_10  and  C7_12 
REMARK       I    between atoms: C7_12  and  N2_14 
REMARK    6  A    between atoms: N2_14  and  S2_16 
REMARK    7  A    between atoms: S2_16  and  C8_19 
REMARK    8  A    between atoms: N3_21  and  C10_22 
REMARK    9  A    between atoms: C10_22  and  C11_23 
REMARK   10  A    between atoms: C11_23  and  N4_24 
REMARK   11  A    between atoms: C14_31  and  N7_32 
REMARK   12  A    between atoms: C15_37  and  N9_38 
ROOT
HETATM    1  C8  UNL     1       3.203  18.830  13.463  1.00  0.00     0.182 A 
HETATM    2  C9  UNL     1       1.928  18.345  13.162  1.00  0.00     0.156 A 
HETATM    3  N3  UNL     1       1.763  17.157  13.768  1.00  0.00    -0.285 N 
HETATM    4  N10 UNL     1       2.913  16.929  14.424  1.00  0.00    -0.240 N 
ATOM      5  H10 UNL     1       3.106  16.101  14.989  1.00  0.00     0.208 HD
HETATM    6  N11 UNL     1       3.742  17.905  14.240  1.00  0.00    -0.273 N 
ATOM      7  H11 UNL     1       4.680  17.955  14.639  1.00  0.00     0.189 HD
ENDROOT
BRANCH   1   8
HETATM    8  S2  UNL     1       3.933  20.303  12.881  1.00  0.00     0.284 S 
HETATM    9  O4  UNL     1       4.999  20.711  13.907  1.00  0.00    -0.199 OA
HETATM   10  O5  UNL     1       4.787  19.919  11.660  1.00  0.00    -0.199 OA
BRANCH   8  11
HETATM   11  N2  UNL     1       2.903  21.572  12.514  1.00  0.00    -0.230 N 
HETATM   12  C7  UNL     1       2.257  21.773  11.292  1.00  0.00     0.335 C 
HETATM   13  N1  UNL     1       1.371  22.880  11.055  1.00  0.00    -0.288 N 
HETATM   14  O3  UNL     1       2.437  20.971  10.343  1.00  0.00    -0.246 OA
ATOM     15  H1  UNL     1       1.543  23.524  10.283  1.00  0.00     0.172 HD
ATOM     16  H2  UNL     1       2.732  22.259  13.248  1.00  0.00     0.183 HD
BRANCH  13  17
HETATM   17  C6  UNL     1       0.334  23.053  11.848  1.00  0.00     0.154 A 
HETATM   18  S1  UNL     1      -1.039  21.989  11.960  1.00  0.00    -0.054 SA
HETATM   19  C5  UNL     1      -1.883  22.851  13.200  1.00  0.00     0.036 A 
HETATM   20  C17 UNL     1      -1.042  23.892  13.437  1.00  0.00     0.132 A 
HETATM   21  N12 UNL     1       0.061  23.974  12.746  1.00  0.00    -0.324 N 
HETATM   22  N13 UNL     1      -1.395  24.869  14.474  1.00  0.00    -0.082 NA
ATOM     23  H12 UNL     1       0.709  24.747  12.902  1.00  0.00     0.169 HD
BRANCH  19  24
HETATM   24  C4  UNL     1      -3.208  22.513  13.830  1.00  0.00     0.161 C 
BRANCH  24  25
HETATM   25  C3  UNL     1      -3.294  21.078  14.083  1.00  0.00     0.263 C 
HETATM   26  O2  UNL     1      -2.389  20.473  14.694  1.00  0.00    -0.265 OA
BRANCH  25  27
HETATM   27  O1  UNL     1      -4.414  20.343  13.636  1.00  0.00    -0.322 OA
BRANCH  27  28
HETATM   28  C2  UNL     1      -4.897  20.617  12.325  1.00  0.00     0.174 C 
HETATM   29  C1  UNL     1      -6.390  20.622  12.346  1.00  0.00     0.034 C 
ENDBRANCH  27  28
ENDBRANCH  25  27
ENDBRANCH  24  25
ENDBRANCH  19  24
ENDBRANCH  13  17
ENDBRANCH   8  11
ENDBRANCH   1   8
BRANCH   3  30
HETATM   30  C10 UNL     1       0.614  16.296  13.691  1.00  0.00     0.170 C 
BRANCH  30  31
HETATM   31  C11 UNL     1      -0.652  16.912  13.228  1.00  0.00     0.152 C 
BRANCH  31  32
HETATM   32  N4  UNL     1      -1.621  17.151  14.238  1.00  0.00    -0.335 N 
HETATM   33  C12 UNL     1      -1.380  17.390  15.556  1.00  0.00     0.185 A 
HETATM   34  N5  UNL     1      -2.508  17.558  16.218  1.00  0.00    -0.336 N 
HETATM   35  C13 UNL     1      -3.521  17.437  15.361  1.00  0.00     0.152 A 
ATOM     36  H5  UNL     1      -2.592  17.749  17.216  1.00  0.00     0.168 HD
HETATM   37  N6  UNL     1      -4.852  17.535  15.566  1.00  0.00    -0.174 N 
HETATM   38  C16 UNL     1      -2.957  17.181  14.120  1.00  0.00     0.125 A 
HETATM   39  C14 UNL     1      -5.678  17.374  14.508  1.00  0.00     0.679 A 
ATOM     40  H6  UNL     1      -5.224  17.726  16.496  1.00  0.00     0.186 HD
HETATM   41  N8  UNL     1      -5.169  17.130  13.318  1.00  0.00    -0.175 N 
HETATM   42  C15 UNL     1      -3.830  17.022  13.060  1.00  0.00     0.145 A 
ATOM     43  H8  UNL     1      -5.815  17.014  12.538  1.00  0.00     0.186 HD
BRANCH  39  44
HETATM   44  N7  UNL     1      -6.948  17.478  14.730  1.00  0.00    -0.234 N 
ATOM     45  H72 UNL     1      -7.605  16.710  14.598  1.00  0.00     0.174 HD
ATOM     46  H71 UNL     1      -7.292  18.384  15.048  1.00  0.00     0.174 HD
ENDBRANCH  39  44
BRANCH  42  47
HETATM   47  N9  UNL     1      -3.480  16.795  11.915  1.00  0.00    -0.383 N 
ATOM     48  H92 UNL     1      -4.121  16.554  11.158  1.00  0.00     0.157 HD
ATOM     49  H91 UNL     1      -2.486  16.845  11.694  1.00  0.00     0.157 HD
ENDBRANCH  42  47
ENDBRANCH  31  32
ENDBRANCH  30  31
ENDBRANCH   3  30
TORSDOF 12
ENDMDL
