MODEL 1
REMARK VINA RESULT: -7.963773784      0.000      0.000
REMARK  14 active torsions:
REMARK  status: ('A' for Active; 'I' for Inactive)
REMARK    1  A    between atoms: N3_8  and  C5_10 
REMARK    2  A    between atoms: C9_14  and  S1_15 
REMARK    3  A    between atoms: S1_15  and  N4_17 
REMARK    4  A    between atoms: S1_15  and  N5_21 
REMARK    5  A    between atoms: N4_17  and  O2_19 
REMARK    6  A    between atoms: N5_21  and  C10_23 
REMARK    7  A    between atoms: C10_23  and  C11_24 
REMARK    8  A    between atoms: C11_24  and  O3_25 
REMARK    9  A    between atoms: C11_24  and  C12_27 
REMARK       I    between atoms: C12_27  and  N6_29 
REMARK   10  A    between atoms: C16_33  and  C17_34 
REMARK   11  A    between atoms: C17_34  and  O6_36 
REMARK   12  A    between atoms: O6_36  and  N7_37 
REMARK   13  A    between atoms: C18_44  and  C19_45 
REMARK   14  A    between atoms: C19_45  and  N10_46 
ROOT
HETATM    1  C5  UNL     1      -2.200  20.633  11.023  1.00  0.00     0.107 A 
HETATM    2  C6  UNL     1      -3.489  20.607  11.531  1.00  0.00     0.049 A 
HETATM    3  C7  UNL     1      -3.867  21.479  12.542  1.00  0.00     0.007 A 
HETATM    4  C8  UNL     1      -2.943  22.365  13.029  1.00  0.00     0.042 A 
HETATM    5  C9  UNL     1      -1.674  22.369  12.508  1.00  0.00     0.131 A 
HETATM    6  N8  UNL     1      -1.313  21.507  11.512  1.00  0.00    -0.333 N 
ATOM      7  H8  UNL     1      -0.363  21.529  11.140  1.00  0.00     0.168 HD
ENDROOT
BRANCH   5   8
HETATM    8  S1  UNL     1      -0.509  23.503  13.138  1.00  0.00     0.173 S 
HETATM    9  O1  UNL     1      -1.125  24.134  14.359  1.00  0.00    -0.220 OA
BRANCH   8  10
HETATM   10  N4  UNL     1      -0.271  24.659  12.105  1.00  0.00    -0.206 N 
ATOM     11  H4  UNL     1      -0.198  25.627  12.417  1.00  0.00     0.206 HD
BRANCH  10  12
HETATM   12  O2  UNL     1      -0.163  24.346  10.780  1.00  0.00    -0.281 OA
ATOM     13  H2  UNL     1      -0.649  24.862  10.147  1.00  0.00     0.245 HD
ENDBRANCH  10  12
ENDBRANCH   8  10
BRANCH   8  14
HETATM   14  N5  UNL     1       0.942  22.675  13.508  1.00  0.00    -0.327 N 
ATOM     15  H5  UNL     1       0.990  21.843  14.095  1.00  0.00     0.171 HD
BRANCH  14  16
HETATM   16  C10 UNL     1       2.099  23.300  12.883  1.00  0.00     0.172 C 
BRANCH  16  17
HETATM   17  C11 UNL     1       2.464  22.480  11.657  1.00  0.00     0.228 C 
BRANCH  17  18
HETATM   18  O3  UNL     1       3.680  22.939  11.218  1.00  0.00    -0.384 OA
ATOM     19  H3  UNL     1       4.184  22.177  10.958  1.00  0.00     0.210 HD
ENDBRANCH  17  18
BRANCH  17  20
HETATM   20  C12 UNL     1       2.400  21.045  11.961  1.00  0.00     0.251 C 
HETATM   21  O4  UNL     1       1.323  20.448  11.551  1.00  0.00    -0.270 OA
HETATM   22  N6  UNL     1       3.371  20.293  12.631  1.00  0.00    -0.336 N 
HETATM   23  C13 UNL     1       4.636  20.606  13.212  1.00  0.00     0.127 C 
HETATM   24  C16 UNL     1       3.228  18.841  12.874  1.00  0.00     0.189 C 
HETATM   25  C14 UNL     1       4.497  19.949  14.604  1.00  0.00     0.022 C 
HETATM   26  C15 UNL     1       3.919  18.612  14.198  1.00  0.00     0.037 C 
BRANCH  24  27
HETATM   27  C17 UNL     1       3.935  18.115  11.792  1.00  0.00     0.303 C 
HETATM   28  O5  UNL     1       3.384  17.186  11.152  1.00  0.00    -0.261 OA
BRANCH  27  29
HETATM   29  O6  UNL     1       5.239  18.446  11.454  1.00  0.00    -0.205 OA
BRANCH  29  30
HETATM   30  N7  UNL     1       6.284  17.673  11.837  1.00  0.00    -0.302 N 
ATOM     31  H72 UNL     1       6.819  17.954  12.657  1.00  0.00     0.184 HD
ATOM     32  H71 UNL     1       6.534  16.829  11.322  1.00  0.00     0.184 HD
ENDBRANCH  29  30
ENDBRANCH  27  29
ENDBRANCH  24  27
ENDBRANCH  17  20
ENDBRANCH  16  17
ENDBRANCH  14  16
ENDBRANCH   8  14
ENDBRANCH   5   8
BRANCH   1  33
HETATM   33  N3  UNL     1      -1.864  19.721  10.007  1.00  0.00    -0.327 N 
HETATM   34  C4  UNL     1      -1.191  18.669  10.249  1.00  0.00     0.139 A 
HETATM   35  C3  UNL     1      -0.734  18.326  11.501  1.00  0.00     0.122 A 
HETATM   36  N9  UNL     1      -0.914  17.844   9.200  1.00  0.00    -0.329 N 
HETATM   37  N2  UNL     1      -0.817  18.878  12.709  1.00  0.00    -0.346 N 
HETATM   38  C20 UNL     1      -0.002  17.156  11.693  1.00  0.00     0.140 A 
HETATM   39  C2  UNL     1      -0.173  18.098  13.602  1.00  0.00     0.184 A 
ATOM     40  H2  UNL     1      -1.293  19.754  12.926  1.00  0.00     0.167 HD
HETATM   41  N1  UNL     1       0.338  17.023  12.984  1.00  0.00    -0.332 N 
HETATM   42  C1  UNL     1       1.100  15.938  13.561  1.00  0.00     0.158 C 
HETATM   43  N11 UNL     1       0.220  16.412  10.606  1.00  0.00    -0.329 N 
HETATM   44  C18 UNL     1      -0.213  16.727   9.387  1.00  0.00     0.110 A 
ATOM     45  H11 UNL     1       0.753  15.549  10.717  1.00  0.00     0.168 HD
ATOM     46  H9  UNL     1      -1.245  18.084   8.266  1.00  0.00     0.168 HD
ATOM     47  H3  UNL     1      -2.168  19.908   9.051  1.00  0.00     0.169 HD
BRANCH  44  48
HETATM   48  C19 UNL     1       0.062  15.859   8.208  1.00  0.00     0.305 C 
BRANCH  48  49
HETATM   49  N10 UNL     1       1.343  15.196   8.302  1.00  0.00    -0.073 N 
ATOM     50 3H10 UNL     1       1.753  15.317   9.228  1.00  0.00     0.274 HD
ATOM     51 2H10 UNL     1       1.234  14.182   8.305  1.00  0.00     0.274 HD
ATOM     52 1H10 UNL     1       1.988  15.495   7.572  1.00  0.00     0.274 HD
ENDBRANCH  48  49
ENDBRANCH  44  48
ENDBRANCH   1  33
TORSDOF 14
ENDMDL
MODEL 2
REMARK VINA RESULT: -7.884249431      2.629      6.251
REMARK  14 active torsions:
REMARK  status: ('A' for Active; 'I' for Inactive)
REMARK    1  A    between atoms: N3_8  and  C5_10 
REMARK    2  A    between atoms: C9_14  and  S1_15 
REMARK    3  A    between atoms: S1_15  and  N4_17 
REMARK    4  A    between atoms: S1_15  and  N5_21 
REMARK    5  A    between atoms: N4_17  and  O2_19 
REMARK    6  A    between atoms: N5_21  and  C10_23 
REMARK    7  A    between atoms: C10_23  and  C11_24 
REMARK    8  A    between atoms: C11_24  and  O3_25 
REMARK    9  A    between atoms: C11_24  and  C12_27 
REMARK       I    between atoms: C12_27  and  N6_29 
REMARK   10  A    between atoms: C16_33  and  C17_34 
REMARK   11  A    between atoms: C17_34  and  O6_36 
REMARK   12  A    between atoms: O6_36  and  N7_37 
REMARK   13  A    between atoms: C18_44  and  C19_45 
REMARK   14  A    between atoms: C19_45  and  N10_46 
ROOT
HETATM    1  C5  UNL     1       0.984  22.398  12.472  1.00  0.00     0.107 A 
HETATM    2  C6  UNL     1       1.296  23.241  11.418  1.00  0.00     0.049 A 
HETATM    3  C7  UNL     1       2.495  23.100  10.733  1.00  0.00     0.007 A 
HETATM    4  C8  UNL     1       3.363  22.112  11.118  1.00  0.00     0.042 A 
HETATM    5  C9  UNL     1       3.028  21.292  12.164  1.00  0.00     0.131 A 
HETATM    6  N8  UNL     1       1.845  21.439  12.831  1.00  0.00    -0.333 N 
ATOM      7  H8  UNL     1       1.617  20.816  13.606  1.00  0.00     0.168 HD
ENDROOT
BRANCH   5   8
HETATM    8  S1  UNL     1       4.143  20.039  12.643  1.00  0.00     0.173 S 
HETATM    9  O1  UNL     1       4.525  20.315  14.073  1.00  0.00    -0.220 OA
BRANCH   8  10
HETATM   10  N4  UNL     1       5.460  20.140  11.797  1.00  0.00    -0.206 N 
ATOM     11  H4  UNL     1       5.889  21.047  11.612  1.00  0.00     0.206 HD
BRANCH  10  12
HETATM   12  O2  UNL     1       6.020  18.994  11.312  1.00  0.00    -0.281 OA
ATOM     13  H2  UNL     1       6.923  19.015  11.017  1.00  0.00     0.245 HD
ENDBRANCH  10  12
ENDBRANCH   8  10
BRANCH   8  14
HETATM   14  N5  UNL     1       3.390  18.514  12.463  1.00  0.00    -0.327 N 
ATOM     15  H5  UNL     1       3.270  18.038  11.569  1.00  0.00     0.171 HD
BRANCH  14  16
HETATM   16  C10 UNL     1       2.939  17.976  13.739  1.00  0.00     0.172 C 
BRANCH  16  17
HETATM   17  C11 UNL     1       1.775  17.040  13.463  1.00  0.00     0.228 C 
BRANCH  17  18
HETATM   18  O3  UNL     1       1.739  16.135  14.494  1.00  0.00    -0.384 OA
ATOM     19  H3  UNL     1       1.589  15.281  14.106  1.00  0.00     0.210 HD
ENDBRANCH  17  18
BRANCH  17  20
HETATM   20  C12 UNL     1       0.541  17.805  13.248  1.00  0.00     0.251 C 
HETATM   21  O4  UNL     1       0.606  18.690  12.299  1.00  0.00    -0.270 OA
HETATM   22  N6  UNL     1      -0.660  17.664  13.953  1.00  0.00    -0.336 N 
HETATM   23  C13 UNL     1      -1.080  16.827  15.029  1.00  0.00     0.127 C 
HETATM   24  C16 UNL     1      -1.863  18.469  13.649  1.00  0.00     0.189 C 
HETATM   25  C14 UNL     1      -1.718  17.863  15.982  1.00  0.00     0.022 C 
HETATM   26  C15 UNL     1      -2.539  18.652  14.987  1.00  0.00     0.037 C 
BRANCH  24  27
HETATM   27  C17 UNL     1      -2.730  17.685  12.737  1.00  0.00     0.303 C 
HETATM   28  O5  UNL     1      -3.950  17.948  12.601  1.00  0.00    -0.261 OA
BRANCH  27  29
HETATM   29  O6  UNL     1      -2.210  16.630  12.002  1.00  0.00    -0.205 OA
BRANCH  29  30
HETATM   30  N7  UNL     1      -1.685  16.824  10.767  1.00  0.00    -0.302 N 
ATOM     31  H72 UNL     1      -2.306  17.133  10.020  1.00  0.00     0.184 HD
ATOM     32  H71 UNL     1      -0.695  16.666  10.582  1.00  0.00     0.184 HD
ENDBRANCH  29  30
ENDBRANCH  27  29
ENDBRANCH  24  27
ENDBRANCH  17  20
ENDBRANCH  16  17
ENDBRANCH  14  16
ENDBRANCH   8  14
ENDBRANCH   5   8
BRANCH   1  33
HETATM   33  N3  UNL     1      -0.239  22.589  13.140  1.00  0.00    -0.327 N 
HETATM   34  C4  UNL     1      -1.328  22.107  12.690  1.00  0.00     0.139 A 
HETATM   35  C3  UNL     1      -1.416  21.370  11.531  1.00  0.00     0.122 A 
HETATM   36  N9  UNL     1      -2.463  22.344  13.406  1.00  0.00    -0.329 N 
HETATM   37  N2  UNL     1      -0.540  20.961  10.616  1.00  0.00    -0.346 N 
HETATM   38  C20 UNL     1      -2.643  20.873  11.098  1.00  0.00     0.140 A 
HETATM   39  C2  UNL     1      -1.185  20.251   9.667  1.00  0.00     0.184 A 
ATOM     40  H2  UNL     1       0.461  21.154  10.630  1.00  0.00     0.167 HD
HETATM   41  N1  UNL     1      -2.494  20.188   9.955  1.00  0.00    -0.332 N 
HETATM   42  C1  UNL     1      -3.543  19.530   9.207  1.00  0.00     0.158 C 
HETATM   43  N11 UNL     1      -3.700  21.156  11.865  1.00  0.00    -0.329 N 
HETATM   44  C18 UNL     1      -3.635  21.868  12.988  1.00  0.00     0.110 A 
ATOM     45  H11 UNL     1      -4.612  20.804  11.572  1.00  0.00     0.168 HD
ATOM     46  H9  UNL     1      -2.416  22.889  14.266  1.00  0.00     0.168 HD
ATOM     47  H3  UNL     1      -0.254  23.126  14.007  1.00  0.00     0.169 HD
BRANCH  44  48
HETATM   48  C19 UNL     1      -4.847  22.154  13.807  1.00  0.00     0.305 C 
BRANCH  48  49
HETATM   49  N10 UNL     1      -4.783  21.538  15.113  1.00  0.00    -0.073 N 
ATOM     50 3H10 UNL     1      -5.376  20.711  15.160  1.00  0.00     0.274 HD
ATOM     51 2H10 UNL     1      -3.876  21.098  15.269  1.00  0.00     0.274 HD
ATOM     52 1H10 UNL     1      -5.007  22.195  15.861  1.00  0.00     0.274 HD
ENDBRANCH  48  49
ENDBRANCH  44  48
ENDBRANCH   1  33
TORSDOF 14
ENDMDL
MODEL 3
REMARK VINA RESULT: -7.724421559      2.594      5.772
REMARK  14 active torsions:
REMARK  status: ('A' for Active; 'I' for Inactive)
REMARK    1  A    between atoms: N3_8  and  C5_10 
REMARK    2  A    between atoms: C9_14  and  S1_15 
REMARK    3  A    between atoms: S1_15  and  N4_17 
REMARK    4  A    between atoms: S1_15  and  N5_21 
REMARK    5  A    between atoms: N4_17  and  O2_19 
REMARK    6  A    between atoms: N5_21  and  C10_23 
REMARK    7  A    between atoms: C10_23  and  C11_24 
REMARK    8  A    between atoms: C11_24  and  O3_25 
REMARK    9  A    between atoms: C11_24  and  C12_27 
REMARK       I    between atoms: C12_27  and  N6_29 
REMARK   10  A    between atoms: C16_33  and  C17_34 
REMARK   11  A    between atoms: C17_34  and  O6_36 
REMARK   12  A    between atoms: O6_36  and  N7_37 
REMARK   13  A    between atoms: C18_44  and  C19_45 
REMARK   14  A    between atoms: C19_45  and  N10_46 
ROOT
HETATM    1  C5  UNL     1       1.277  21.079  10.606  1.00  0.00     0.107 A 
HETATM    2  C6  UNL     1       1.554  22.392  10.951  1.00  0.00     0.049 A 
HETATM    3  C7  UNL     1       2.463  22.679  11.959  1.00  0.00     0.007 A 
HETATM    4  C8  UNL     1       3.082  21.642  12.606  1.00  0.00     0.042 A 
HETATM    5  C9  UNL     1       2.789  20.352  12.243  1.00  0.00     0.131 A 
HETATM    6  N8  UNL     1       1.892  20.081  11.249  1.00  0.00    -0.333 N 
ATOM      7  H8  UNL     1       1.692  19.113  10.996  1.00  0.00     0.168 HD
ENDROOT
BRANCH   5   8
HETATM    8  S1  UNL     1       3.584  19.042  13.075  1.00  0.00     0.173 S 
HETATM    9  O1  UNL     1       4.567  19.662  14.033  1.00  0.00    -0.220 OA
BRANCH   8  10
HETATM   10  N4  UNL     1       4.422  18.190  12.059  1.00  0.00    -0.206 N 
ATOM     11  H4  UNL     1       4.185  17.214  11.882  1.00  0.00     0.206 HD
BRANCH  10  12
HETATM   12  O2  UNL     1       5.474  18.778  11.417  1.00  0.00    -0.281 OA
ATOM     13  H2  UNL     1       6.256  18.987  11.914  1.00  0.00     0.245 HD
ENDBRANCH  10  12
ENDBRANCH   8  10
BRANCH   8  14
HETATM   14  N5  UNL     1       2.413  18.093  13.884  1.00  0.00    -0.327 N 
ATOM     15  H5  UNL     1       1.990  18.346  14.776  1.00  0.00     0.171 HD
BRANCH  14  16
HETATM   16  C10 UNL     1       2.092  16.880  13.145  1.00  0.00     0.172 C 
BRANCH  16  17
HETATM   17  C11 UNL     1       0.687  17.034  12.588  1.00  0.00     0.228 C 
BRANCH  17  18
HETATM   18  O3  UNL     1       0.174  18.192  13.117  1.00  0.00    -0.384 OA
ATOM     19  H3  UNL     1      -0.483  18.506  12.506  1.00  0.00     0.210 HD
ENDBRANCH  17  18
BRANCH  17  20
HETATM   20  C12 UNL     1       0.705  16.961  11.122  1.00  0.00     0.251 C 
HETATM   21  O4  UNL     1       1.827  17.317  10.571  1.00  0.00    -0.270 OA
HETATM   22  N6  UNL     1      -0.348  16.552  10.296  1.00  0.00    -0.336 N 
HETATM   23  C13 UNL     1      -1.683  16.114  10.542  1.00  0.00     0.127 C 
HETATM   24  C16 UNL     1      -0.229  16.491   8.823  1.00  0.00     0.189 C 
HETATM   25  C14 UNL     1      -2.475  16.996   9.550  1.00  0.00     0.022 C 
HETATM   26  C15 UNL     1      -1.611  16.835   8.320  1.00  0.00     0.037 C 
BRANCH  24  27
HETATM   27  C17 UNL     1       0.127  15.104   8.441  1.00  0.00     0.303 C 
HETATM   28  O5  UNL     1      -0.739  14.289   8.036  1.00  0.00    -0.261 OA
BRANCH  27  29
HETATM   29  O6  UNL     1       1.440  14.664   8.522  1.00  0.00    -0.205 OA
BRANCH  29  30
HETATM   30  N7  UNL     1       1.881  13.623   7.774  1.00  0.00    -0.302 N 
ATOM     31  H72 UNL     1       2.345  13.826   6.889  1.00  0.00     0.184 HD
ATOM     32  H71 UNL     1       1.756  12.659   8.082  1.00  0.00     0.184 HD
ENDBRANCH  29  30
ENDBRANCH  27  29
ENDBRANCH  24  27
ENDBRANCH  17  20
ENDBRANCH  16  17
ENDBRANCH  14  16
ENDBRANCH   8  14
ENDBRANCH   5   8
BRANCH   1  33
HETATM   33  N3  UNL     1       0.340  20.841   9.585  1.00  0.00    -0.327 N 
HETATM   34  C4  UNL     1      -0.900  20.697   9.837  1.00  0.00     0.139 A 
HETATM   35  C3  UNL     1      -1.434  20.757  11.104  1.00  0.00     0.122 A 
HETATM   36  N9  UNL     1      -1.733  20.470   8.783  1.00  0.00    -0.329 N 
HETATM   37  N2  UNL     1      -0.932  20.955  12.320  1.00  0.00    -0.346 N 
HETATM   38  C20 UNL     1      -2.802  20.590  11.306  1.00  0.00     0.140 A 
HETATM   39  C2  UNL     1      -1.930  20.914  13.227  1.00  0.00     0.184 A 
ATOM     40  H2  UNL     1       0.053  21.114  12.533  1.00  0.00     0.167 HD
HETATM   41  N1  UNL     1      -3.099  20.688  12.610  1.00  0.00    -0.332 N 
HETATM   42  C1  UNL     1      -4.413  20.568  13.201  1.00  0.00     0.158 C 
HETATM   43  N11 UNL     1      -3.539  20.373  10.212  1.00  0.00    -0.329 N 
HETATM   44  C18 UNL     1      -3.041  20.310   8.979  1.00  0.00     0.110 A 
ATOM     45  H11 UNL     1      -4.545  20.247  10.330  1.00  0.00     0.168 HD
ATOM     46  H9  UNL     1      -1.354  20.422   7.838  1.00  0.00     0.168 HD
ATOM     47  H3  UNL     1       0.661  20.783   8.619  1.00  0.00     0.169 HD
BRANCH  44  48
HETATM   48  C19 UNL     1      -3.910  20.065   7.793  1.00  0.00     0.305 C 
BRANCH  48  49
HETATM   49  N10 UNL     1      -3.490  20.828   6.640  1.00  0.00    -0.073 N 
ATOM     50 3H10 UNL     1      -3.816  21.793   6.698  1.00  0.00     0.274 HD
ATOM     51 2H10 UNL     1      -2.484  20.995   6.655  1.00  0.00     0.274 HD
ATOM     52 1H10 UNL     1      -3.779  20.394   5.763  1.00  0.00     0.274 HD
ENDBRANCH  48  49
ENDBRANCH  44  48
ENDBRANCH   1  33
TORSDOF 14
ENDMDL
MODEL 4
REMARK VINA RESULT: -7.706345320      2.725      6.358
REMARK  14 active torsions:
REMARK  status: ('A' for Active; 'I' for Inactive)
REMARK    1  A    between atoms: N3_8  and  C5_10 
REMARK    2  A    between atoms: C9_14  and  S1_15 
REMARK    3  A    between atoms: S1_15  and  N4_17 
REMARK    4  A    between atoms: S1_15  and  N5_21 
REMARK    5  A    between atoms: N4_17  and  O2_19 
REMARK    6  A    between atoms: N5_21  and  C10_23 
REMARK    7  A    between atoms: C10_23  and  C11_24 
REMARK    8  A    between atoms: C11_24  and  O3_25 
REMARK    9  A    between atoms: C11_24  and  C12_27 
REMARK       I    between atoms: C12_27  and  N6_29 
REMARK   10  A    between atoms: C16_33  and  C17_34 
REMARK   11  A    between atoms: C17_34  and  O6_36 
REMARK   12  A    between atoms: O6_36  and  N7_37 
REMARK   13  A    between atoms: C18_44  and  C19_45 
REMARK   14  A    between atoms: C19_45  and  N10_46 
ROOT
HETATM    1  C5  UNL     1       0.715  22.576  12.608  1.00  0.00     0.107 A 
HETATM    2  C6  UNL     1       1.011  23.337  11.489  1.00  0.00     0.049 A 
HETATM    3  C7  UNL     1       2.200  23.145  10.799  1.00  0.00     0.007 A 
HETATM    4  C8  UNL     1       3.074  22.188  11.243  1.00  0.00     0.042 A 
HETATM    5  C9  UNL     1       2.755  21.448  12.353  1.00  0.00     0.131 A 
HETATM    6  N8  UNL     1       1.582  21.646  13.025  1.00  0.00    -0.333 N 
ATOM      7  H8  UNL     1       1.366  21.083  13.848  1.00  0.00     0.168 HD
ENDROOT
BRANCH   5   8
HETATM    8  S1  UNL     1       3.877  20.234  12.907  1.00  0.00     0.173 S 
HETATM    9  O1  UNL     1       4.611  20.820  14.085  1.00  0.00    -0.220 OA
BRANCH   8  10
HETATM   10  N4  UNL     1       4.952  19.951  11.801  1.00  0.00    -0.206 N 
ATOM     11  H4  UNL     1       4.764  19.283  11.054  1.00  0.00     0.206 HD
BRANCH  10  12
HETATM   12  O2  UNL     1       6.144  20.615  11.855  1.00  0.00    -0.281 OA
ATOM     13  H2  UNL     1       6.874  20.289  11.341  1.00  0.00     0.245 HD
ENDBRANCH  10  12
ENDBRANCH   8  10
BRANCH   8  14
HETATM   14  N5  UNL     1       3.015  18.818  13.330  1.00  0.00    -0.327 N 
ATOM     15  H5  UNL     1       2.580  18.665  14.239  1.00  0.00     0.171 HD
BRANCH  14  16
HETATM   16  C10 UNL     1       2.976  17.859  12.235  1.00  0.00     0.172 C 
BRANCH  16  17
HETATM   17  C11 UNL     1       1.520  17.638  11.863  1.00  0.00     0.228 C 
BRANCH  17  18
HETATM   18  O3  UNL     1       1.511  16.880  10.719  1.00  0.00    -0.384 OA
ATOM     19  H3  UNL     1       1.634  15.977  10.987  1.00  0.00     0.210 HD
ENDBRANCH  17  18
BRANCH  17  20
HETATM   20  C12 UNL     1       0.778  17.078  13.000  1.00  0.00     0.251 C 
HETATM   21  O4  UNL     1       1.504  16.422  13.854  1.00  0.00    -0.270 OA
HETATM   22  N6  UNL     1      -0.597  17.189  13.233  1.00  0.00    -0.336 N 
HETATM   23  C13 UNL     1      -1.671  17.808  12.527  1.00  0.00     0.127 C 
HETATM   24  C16 UNL     1      -1.255  16.606  14.422  1.00  0.00     0.189 C 
HETATM   25  C14 UNL     1      -2.709  16.664  12.496  1.00  0.00     0.022 C 
HETATM   26  C15 UNL     1      -2.627  16.206  13.934  1.00  0.00     0.037 C 
BRANCH  24  27
HETATM   27  C17 UNL     1      -1.363  17.660  15.459  1.00  0.00     0.303 C 
HETATM   28  O5  UNL     1      -1.138  17.419  16.670  1.00  0.00    -0.261 OA
BRANCH  27  29
HETATM   29  O6  UNL     1      -1.721  18.955  15.114  1.00  0.00    -0.205 OA
BRANCH  29  30
HETATM   30  N7  UNL     1      -2.951  19.446  15.400  1.00  0.00    -0.302 N 
ATOM     31  H72 UNL     1      -3.690  18.787  15.642  1.00  0.00     0.184 HD
ATOM     32  H71 UNL     1      -3.140  20.447  15.375  1.00  0.00     0.184 HD
ENDBRANCH  29  30
ENDBRANCH  27  29
ENDBRANCH  24  27
ENDBRANCH  17  20
ENDBRANCH  16  17
ENDBRANCH  14  16
ENDBRANCH   8  14
ENDBRANCH   5   8
BRANCH   1  33
HETATM   33  N3  UNL     1      -0.497  22.817  13.278  1.00  0.00    -0.327 N 
HETATM   34  C4  UNL     1      -1.596  22.323  12.868  1.00  0.00     0.139 A 
HETATM   35  C3  UNL     1      -1.706  21.523  11.754  1.00  0.00     0.122 A 
HETATM   36  N9  UNL     1      -2.721  22.612  13.583  1.00  0.00    -0.329 N 
HETATM   37  N2  UNL     1      -0.846  21.054  10.853  1.00  0.00    -0.346 N 
HETATM   38  C20 UNL     1      -2.943  21.016  11.364  1.00  0.00     0.140 A 
HETATM   39  C2  UNL     1      -1.510  20.298   9.954  1.00  0.00     0.184 A 
ATOM     40  H2  UNL     1       0.157  21.236  10.845  1.00  0.00     0.167 HD
HETATM   41  N1  UNL     1      -2.815  20.266  10.260  1.00  0.00    -0.332 N 
HETATM   42  C1  UNL     1      -3.880  19.578   9.562  1.00  0.00     0.158 C 
HETATM   43  N11 UNL     1      -3.988  21.353  12.126  1.00  0.00    -0.329 N 
HETATM   44  C18 UNL     1      -3.902  22.126  13.206  1.00  0.00     0.110 A 
ATOM     45  H11 UNL     1      -4.907  20.995  11.864  1.00  0.00     0.168 HD
ATOM     46  H9  UNL     1      -2.657  23.204  14.411  1.00  0.00     0.168 HD
ATOM     47  H3  UNL     1      -0.496  23.403  14.113  1.00  0.00     0.169 HD
BRANCH  44  48
HETATM   48  C19 UNL     1      -5.101  22.471  14.022  1.00  0.00     0.305 C 
BRANCH  48  49
HETATM   49  N10 UNL     1      -5.144  21.740  15.268  1.00  0.00    -0.073 N 
ATOM     50 3H10 UNL     1      -5.568  20.821  15.142  1.00  0.00     0.274 HD
ATOM     51 2H10 UNL     1      -4.211  21.450  15.557  1.00  0.00     0.274 HD
ATOM     52 1H10 UNL     1      -5.613  22.263  16.007  1.00  0.00     0.274 HD
ENDBRANCH  48  49
ENDBRANCH  44  48
ENDBRANCH   1  33
TORSDOF 14
ENDMDL
MODEL 5
REMARK VINA RESULT: -7.594587343      2.597      4.781
REMARK  14 active torsions:
REMARK  status: ('A' for Active; 'I' for Inactive)
REMARK    1  A    between atoms: N3_8  and  C5_10 
REMARK    2  A    between atoms: C9_14  and  S1_15 
REMARK    3  A    between atoms: S1_15  and  N4_17 
REMARK    4  A    between atoms: S1_15  and  N5_21 
REMARK    5  A    between atoms: N4_17  and  O2_19 
REMARK    6  A    between atoms: N5_21  and  C10_23 
REMARK    7  A    between atoms: C10_23  and  C11_24 
REMARK    8  A    between atoms: C11_24  and  O3_25 
REMARK    9  A    between atoms: C11_24  and  C12_27 
REMARK       I    between atoms: C12_27  and  N6_29 
REMARK   10  A    between atoms: C16_33  and  C17_34 
REMARK   11  A    between atoms: C17_34  and  O6_36 
REMARK   12  A    between atoms: O6_36  and  N7_37 
REMARK   13  A    between atoms: C18_44  and  C19_45 
REMARK   14  A    between atoms: C19_45  and  N10_46 
ROOT
HETATM    1  C5  UNL     1      -1.367  17.703  14.676  1.00  0.00     0.107 A 
HETATM    2  C6  UNL     1      -1.985  16.572  15.185  1.00  0.00     0.049 A 
HETATM    3  C7  UNL     1      -3.364  16.528  15.334  1.00  0.00     0.007 A 
HETATM    4  C8  UNL     1      -4.102  17.622  14.967  1.00  0.00     0.042 A 
HETATM    5  C9  UNL     1      -3.464  18.728  14.465  1.00  0.00     0.131 A 
HETATM    6  N8  UNL     1      -2.106  18.760  14.323  1.00  0.00    -0.333 N 
ATOM      7  H8  UNL     1      -1.654  19.594  13.947  1.00  0.00     0.168 HD
ENDROOT
BRANCH   5   8
HETATM    8  S1  UNL     1      -4.417  20.113  14.003  1.00  0.00     0.173 S 
HETATM    9  O1  UNL     1      -5.711  20.032  14.770  1.00  0.00    -0.220 OA
BRANCH   8  10
HETATM   10  N4  UNL     1      -4.789  20.026  12.482  1.00  0.00    -0.206 N 
ATOM     11  H4  UNL     1      -5.572  20.562  12.108  1.00  0.00     0.206 HD
BRANCH  10  12
HETATM   12  O2  UNL     1      -4.047  19.220  11.667  1.00  0.00    -0.281 OA
ATOM     13  H2  UNL     1      -4.491  18.705  11.003  1.00  0.00     0.245 HD
ENDBRANCH  10  12
ENDBRANCH   8  10
BRANCH   8  14
HETATM   14  N5  UNL     1      -3.548  21.542  14.362  1.00  0.00    -0.327 N 
ATOM     15  H5  UNL     1      -3.325  21.853  15.307  1.00  0.00     0.171 HD
BRANCH  14  16
HETATM   16  C10 UNL     1      -3.163  22.262  13.156  1.00  0.00     0.172 C 
BRANCH  16  17
HETATM   17  C11 UNL     1      -1.681  22.580  13.259  1.00  0.00     0.228 C 
BRANCH  17  18
HETATM   18  O3  UNL     1      -1.383  22.659  14.596  1.00  0.00    -0.384 OA
ATOM     19  H3  UNL     1      -0.528  22.260  14.712  1.00  0.00     0.210 HD
ENDBRANCH  17  18
BRANCH  17  20
HETATM   20  C12 UNL     1      -0.892  21.609  12.491  1.00  0.00     0.251 C 
HETATM   21  O4  UNL     1      -1.523  20.517  12.181  1.00  0.00    -0.270 OA
HETATM   22  N6  UNL     1       0.436  21.757  12.077  1.00  0.00    -0.336 N 
HETATM   23  C13 UNL     1       1.412  22.785  12.239  1.00  0.00     0.127 C 
HETATM   24  C16 UNL     1       1.145  20.728  11.285  1.00  0.00     0.189 C 
HETATM   25  C14 UNL     1       2.629  21.969  12.730  1.00  0.00     0.022 C 
HETATM   26  C15 UNL     1       2.580  20.821  11.746  1.00  0.00     0.037 C 
BRANCH  24  27
HETATM   27  C17 UNL     1       1.040  21.089   9.851  1.00  0.00     0.303 C 
HETATM   28  O5  UNL     1       1.668  22.064   9.370  1.00  0.00    -0.261 OA
BRANCH  27  29
HETATM   29  O6  UNL     1       0.236  20.352   8.994  1.00  0.00    -0.205 OA
BRANCH  29  30
HETATM   30  N7  UNL     1      -1.111  20.335   9.133  1.00  0.00    -0.302 N 
ATOM     31  H72 UNL     1      -1.608  19.469   8.928  1.00  0.00     0.184 HD
ATOM     32  H71 UNL     1      -1.623  21.163   9.436  1.00  0.00     0.184 HD
ENDBRANCH  29  30
ENDBRANCH  27  29
ENDBRANCH  24  27
ENDBRANCH  17  20
ENDBRANCH  16  17
ENDBRANCH  14  16
ENDBRANCH   8  14
ENDBRANCH   5   8
BRANCH   1  33
HETATM   33  N3  UNL     1       0.035  17.700  14.556  1.00  0.00    -0.327 N 
HETATM   34  C4  UNL     1       0.608  17.524  13.433  1.00  0.00     0.139 A 
HETATM   35  C3  UNL     1      -0.070  17.321  12.252  1.00  0.00     0.122 A 
HETATM   36  N9  UNL     1       1.971  17.538  13.414  1.00  0.00    -0.329 N 
HETATM   37  N2  UNL     1      -1.355  17.249  11.914  1.00  0.00    -0.346 N 
HETATM   38  C20 UNL     1       0.623  17.134  11.059  1.00  0.00     0.140 A 
HETATM   39  C2  UNL     1      -1.456  17.030  10.587  1.00  0.00     0.184 A 
ATOM     40  H2  UNL     1      -2.141  17.345  12.558  1.00  0.00     0.167 HD
HETATM   41  N1  UNL     1      -0.233  16.957  10.042  1.00  0.00    -0.332 N 
HETATM   42  C1  UNL     1       0.117  16.734   8.656  1.00  0.00     0.158 C 
HETATM   43  N11 UNL     1       1.957  17.165  11.139  1.00  0.00    -0.329 N 
HETATM   44  C18 UNL     1       2.630  17.359  12.271  1.00  0.00     0.110 A 
ATOM     45  H11 UNL     1       2.492  17.032  10.280  1.00  0.00     0.168 HD
ATOM     46  H9  UNL     1       2.488  17.687  14.279  1.00  0.00     0.168 HD
ATOM     47  H3  UNL     1       0.606  17.844  15.388  1.00  0.00     0.169 HD
BRANCH  44  48
HETATM   48  C19 UNL     1       4.120  17.384  12.303  1.00  0.00     0.305 C 
BRANCH  48  49
HETATM   49  N10 UNL     1       4.631  18.131  13.429  1.00  0.00    -0.073 N 
ATOM     50 3H10 UNL     1       3.880  18.406  14.061  1.00  0.00     0.274 HD
ATOM     51 2H10 UNL     1       5.161  17.530  14.060  1.00  0.00     0.274 HD
ATOM     52 1H10 UNL     1       5.183  18.939  13.139  1.00  0.00     0.274 HD
ENDBRANCH  48  49
ENDBRANCH  44  48
ENDBRANCH   1  33
TORSDOF 14
ENDMDL
