MODEL 1
REMARK VINA RESULT: -7.928331579      0.000      0.000
REMARK  7 active torsions:
REMARK  status: ('A' for Active; 'I' for Inactive)
REMARK    1  A    between atoms: O1_2  and  C2_3 
REMARK    2  A    between atoms: C5_6  and  N1_7 
REMARK    3  A    between atoms: N1_7  and  C6_8 
REMARK       I    between atoms: N1_7  and  C13_22 
REMARK    4  A    between atoms: C6_8  and  C7_9 
REMARK    5  A    between atoms: C7_9  and  O2_10 
REMARK    6  A    between atoms: N2_12  and  C8_14 
REMARK    7  A    between atoms: C13_22  and  C14_24 
ROOT
HETATM    1  N1  UNL     1       7.063   8.740  22.539  1.00  0.00    -0.305 N 
HETATM    2  C13 UNL     1       7.683   7.530  22.212  1.00  0.00     0.276 C 
HETATM    3  O3  UNL     1       8.729   7.170  22.883  1.00  0.00    -0.265 OA
ENDROOT
BRANCH   1   4
HETATM    4  C5  UNL     1       6.010   9.373  21.830  1.00  0.00     0.038 A 
HETATM    5  C4  UNL     1       6.353  10.413  20.939  1.00  0.00     0.032 A 
HETATM    6  C3  UNL     1       5.365  11.078  20.272  1.00  0.00     0.039 A 
HETATM    7  C2  UNL     1       4.036  10.788  20.419  1.00  0.00     0.068 A 
HETATM    8  C20 UNL     1       3.684   9.787  21.274  1.00  0.00     0.039 A 
HETATM    9  C19 UNL     1       4.684   9.094  21.967  1.00  0.00     0.032 A 
BRANCH   7  10
HETATM   10  O1  UNL     1       3.109  11.531  19.690  1.00  0.00    -0.356 OA
HETATM   11  C1  UNL     1       3.494  12.386  18.616  1.00  0.00     0.210 C 
ENDBRANCH   7  10
ENDBRANCH   1   4
BRANCH   1  12
HETATM   12  C6  UNL     1       7.587   9.497  23.697  1.00  0.00     0.216 C 
BRANCH  12  13
HETATM   13  C7  UNL     1       7.279   8.808  24.971  1.00  0.00     0.135 C 
HETATM   14  N2  UNL     1       8.092   8.250  25.898  1.00  0.00    -0.325 N 
ATOM     15  H2  UNL     1       7.541   7.868  26.667  1.00  0.00     0.169 HD
BRANCH  13  16
HETATM   16  O2  UNL     1       5.997   8.730  25.244  1.00  0.00    -0.348 OA
ATOM     17  H2  UNL     1       5.711   9.312  25.938  1.00  0.00     0.219 HD
ENDBRANCH  13  16
BRANCH  14  18
HETATM   18  C8  UNL     1       9.304   8.061  26.099  1.00  0.00     0.106 A 
HETATM   19  C9  UNL     1       9.790   7.396  27.188  1.00  0.00     0.050 A 
HETATM   20  C10 UNL     1      11.159   7.193  27.351  1.00  0.00     0.024 A 
HETATM   21  C11 UNL     1      12.031   7.663  26.416  1.00  0.00     0.026 A 
HETATM   22 BR1  UNL     1      13.899   7.384  26.639  1.00  0.00    -0.050 Br
HETATM   23  C12 UNL     1      11.517   8.322  25.341  1.00  0.00     0.108 A 
HETATM   24  N3  UNL     1      10.222   8.526  25.165  1.00  0.00    -0.351 N 
ATOM     25  H3  UNL     1       9.894   9.027  24.339  1.00  0.00     0.166 HD
ENDBRANCH  14  18
ENDBRANCH  12  13
ENDBRANCH   1  12
BRANCH   2  26
HETATM   26  C14 UNL     1       7.282   6.594  21.177  1.00  0.00     0.116 A 
HETATM   27  C15 UNL     1       7.474   6.895  19.826  1.00  0.00     0.042 A 
HETATM   28  C16 UNL     1       7.114   6.042  18.809  1.00  0.00     0.078 A 
HETATM   29  C17 UNL     1       6.538   4.840  19.143  1.00  0.00     0.261 A 
HETATM   30  O4  UNL     1       6.183   4.008  18.246  1.00  0.00    -0.267 OA
HETATM   31  N4  UNL     1       6.350   4.546  20.450  1.00  0.00    -0.262 N 
HETATM   32  C18 UNL     1       5.742   3.249  20.786  1.00  0.00     0.181 C 
HETATM   33  N5  UNL     1       6.715   5.400  21.390  1.00  0.00    -0.291 N 
ATOM     34  H5  UNL     1       6.551   5.126  22.359  1.00  0.00     0.187 HD
ENDBRANCH   2  26
TORSDOF 7
ENDMDL
MODEL 2
REMARK VINA RESULT: -7.787461141      3.522      7.487
REMARK  7 active torsions:
REMARK  status: ('A' for Active; 'I' for Inactive)
REMARK    1  A    between atoms: O1_2  and  C2_3 
REMARK    2  A    between atoms: C5_6  and  N1_7 
REMARK    3  A    between atoms: N1_7  and  C6_8 
REMARK       I    between atoms: N1_7  and  C13_22 
REMARK    4  A    between atoms: C6_8  and  C7_9 
REMARK    5  A    between atoms: C7_9  and  O2_10 
REMARK    6  A    between atoms: N2_12  and  C8_14 
REMARK    7  A    between atoms: C13_22  and  C14_24 
ROOT
HETATM    1  N1  UNL     1       8.218   8.348  20.411  1.00  0.00    -0.305 N 
HETATM    2  C13 UNL     1       8.106   9.390  19.485  1.00  0.00     0.276 C 
HETATM    3  O3  UNL     1       8.345   9.138  18.239  1.00  0.00    -0.265 OA
ENDROOT
BRANCH   1   4
HETATM    4  C5  UNL     1       8.147   8.457  21.823  1.00  0.00     0.038 A 
HETATM    5  C4  UNL     1       9.333   8.244  22.558  1.00  0.00     0.032 A 
HETATM    6  C3  UNL     1       9.297   8.295  23.921  1.00  0.00     0.039 A 
HETATM    7  C2  UNL     1       8.154   8.545  24.631  1.00  0.00     0.068 A 
HETATM    8  C20 UNL     1       6.998   8.753  23.940  1.00  0.00     0.039 A 
HETATM    9  C19 UNL     1       7.016   8.705  22.541  1.00  0.00     0.032 A 
BRANCH   7  10
HETATM   10  O1  UNL     1       8.228   8.572  26.022  1.00  0.00    -0.356 OA
HETATM   11  C1  UNL     1       9.341   8.039  26.736  1.00  0.00     0.210 C 
ENDBRANCH   7  10
ENDBRANCH   1   4
BRANCH   1  12
HETATM   12  C6  UNL     1       8.517   6.993  19.897  1.00  0.00     0.216 C 
BRANCH  12  13
HETATM   13  C7  UNL     1       7.278   6.203  19.719  1.00  0.00     0.135 C 
HETATM   14  N2  UNL     1       7.092   4.896  19.421  1.00  0.00    -0.325 N 
ATOM     15  H2  UNL     1       6.095   4.680  19.385  1.00  0.00     0.169 HD
BRANCH  13  16
HETATM   16  O2  UNL     1       6.172   6.894  19.879  1.00  0.00    -0.348 OA
ATOM     17  H2  UNL     1       5.523   6.467  20.425  1.00  0.00     0.219 HD
ENDBRANCH  13  16
BRANCH  14  18
HETATM   18  C8  UNL     1       7.764   3.878  19.179  1.00  0.00     0.106 A 
HETATM   19  C9  UNL     1       7.713   2.746  19.939  1.00  0.00     0.050 A 
HETATM   20  C10 UNL     1       8.472   1.627  19.607  1.00  0.00     0.024 A 
HETATM   21  C11 UNL     1       9.281   1.654  18.511  1.00  0.00     0.026 A 
HETATM   22 BR1  UNL     1      10.316   0.124  18.059  1.00  0.00    -0.050 Br
HETATM   23  C12 UNL     1       9.311   2.798  17.773  1.00  0.00     0.108 A 
HETATM   24  N3  UNL     1       8.598   3.873  18.068  1.00  0.00    -0.351 N 
ATOM     25  H3  UNL     1       8.662   4.701  17.477  1.00  0.00     0.166 HD
ENDBRANCH  14  18
ENDBRANCH  12  13
ENDBRANCH   1  12
BRANCH   2  26
HETATM   26  C14 UNL     1       7.739  10.768  19.760  1.00  0.00     0.116 A 
HETATM   27  C15 UNL     1       6.417  11.198  19.621  1.00  0.00     0.042 A 
HETATM   28  C16 UNL     1       6.017  12.490  19.871  1.00  0.00     0.078 A 
HETATM   29  C17 UNL     1       6.968  13.397  20.274  1.00  0.00     0.261 A 
HETATM   30  O4  UNL     1       6.660  14.608  20.520  1.00  0.00    -0.267 OA
HETATM   31  N4  UNL     1       8.250  12.984  20.407  1.00  0.00    -0.262 N 
HETATM   32  C18 UNL     1       9.249  13.968  20.851  1.00  0.00     0.181 C 
HETATM   33  N5  UNL     1       8.582  11.730  20.156  1.00  0.00    -0.291 N 
ATOM     34  H5  UNL     1       9.562  11.473  20.275  1.00  0.00     0.187 HD
ENDBRANCH   2  26
TORSDOF 7
ENDMDL
MODEL 3
REMARK VINA RESULT: -7.726335639      1.050      1.161
REMARK  7 active torsions:
REMARK  status: ('A' for Active; 'I' for Inactive)
REMARK    1  A    between atoms: O1_2  and  C2_3 
REMARK    2  A    between atoms: C5_6  and  N1_7 
REMARK    3  A    between atoms: N1_7  and  C6_8 
REMARK       I    between atoms: N1_7  and  C13_22 
REMARK    4  A    between atoms: C6_8  and  C7_9 
REMARK    5  A    between atoms: C7_9  and  O2_10 
REMARK    6  A    between atoms: N2_12  and  C8_14 
REMARK    7  A    between atoms: C13_22  and  C14_24 
ROOT
HETATM    1  N1  UNL     1       7.028   8.399  22.570  1.00  0.00    -0.305 N 
HETATM    2  C13 UNL     1       7.966   7.467  22.117  1.00  0.00     0.276 C 
HETATM    3  O3  UNL     1       9.174   7.532  22.576  1.00  0.00    -0.265 OA
ENDROOT
BRANCH   1   4
HETATM    4  C5  UNL     1       5.710   8.584  22.078  1.00  0.00     0.038 A 
HETATM    5  C4  UNL     1       5.408   9.819  21.464  1.00  0.00     0.032 A 
HETATM    6  C3  UNL     1       4.139  10.054  21.018  1.00  0.00     0.039 A 
HETATM    7  C2  UNL     1       3.125   9.144  21.134  1.00  0.00     0.068 A 
HETATM    8  C20 UNL     1       3.396   7.946  21.723  1.00  0.00     0.039 A 
HETATM    9  C19 UNL     1       4.691   7.687  22.186  1.00  0.00     0.032 A 
BRANCH   7  10
HETATM   10  O1  UNL     1       1.865   9.488  20.647  1.00  0.00    -0.356 OA
HETATM   11  C1  UNL     1       1.416  10.839  20.582  1.00  0.00     0.210 C 
ENDBRANCH   7  10
ENDBRANCH   1   4
BRANCH   1  12
HETATM   12  C6  UNL     1       7.448   9.353  23.620  1.00  0.00     0.216 C 
BRANCH  12  13
HETATM   13  C7  UNL     1       7.180   8.813  24.972  1.00  0.00     0.135 C 
HETATM   14  N2  UNL     1       8.019   8.333  25.920  1.00  0.00    -0.325 N 
ATOM     15  H2  UNL     1       7.493   8.051  26.747  1.00  0.00     0.169 HD
BRANCH  13  16
HETATM   16  O2  UNL     1       5.910   8.803  25.305  1.00  0.00    -0.348 OA
ATOM     17  H2  UNL     1       5.315   8.895  24.570  1.00  0.00     0.219 HD
ENDBRANCH  13  16
BRANCH  14  18
HETATM   18  C8  UNL     1       9.234   8.130  26.090  1.00  0.00     0.106 A 
HETATM   19  C9  UNL     1       9.736   7.409  27.134  1.00  0.00     0.050 A 
HETATM   20  C10 UNL     1      11.106   7.194  27.262  1.00  0.00     0.024 A 
HETATM   21  C11 UNL     1      11.964   7.708  26.337  1.00  0.00     0.026 A 
HETATM   22 BR1  UNL     1      13.834   7.412  26.513  1.00  0.00    -0.050 Br
HETATM   23  C12 UNL     1      11.433   8.423  25.307  1.00  0.00     0.108 A 
HETATM   24  N3  UNL     1      10.136   8.639  25.164  1.00  0.00    -0.351 N 
ATOM     25  H3  UNL     1       9.797   9.182  24.371  1.00  0.00     0.166 HD
ENDBRANCH  14  18
ENDBRANCH  12  13
ENDBRANCH   1  12
BRANCH   2  26
HETATM   26  C14 UNL     1       7.744   6.395  21.162  1.00  0.00     0.116 A 
HETATM   27  C15 UNL     1       7.698   6.656  19.791  1.00  0.00     0.042 A 
HETATM   28  C16 UNL     1       7.493   5.677  18.846  1.00  0.00     0.078 A 
HETATM   29  C17 UNL     1       7.324   4.384  19.279  1.00  0.00     0.261 A 
HETATM   30  O4  UNL     1       7.130   3.434  18.453  1.00  0.00    -0.267 OA
HETATM   31  N4  UNL     1       7.366   4.128  20.607  1.00  0.00    -0.262 N 
HETATM   32  C18 UNL     1       7.195   2.735  21.047  1.00  0.00     0.181 C 
HETATM   33  N5  UNL     1       7.568   5.104  21.474  1.00  0.00    -0.291 N 
ATOM     34  H5  UNL     1       7.593   4.855  22.462  1.00  0.00     0.187 HD
ENDBRANCH   2  26
TORSDOF 7
ENDMDL
MODEL 4
REMARK VINA RESULT: -7.720843608      3.646      7.581
REMARK  7 active torsions:
REMARK  status: ('A' for Active; 'I' for Inactive)
REMARK    1  A    between atoms: O1_2  and  C2_3 
REMARK    2  A    between atoms: C5_6  and  N1_7 
REMARK    3  A    between atoms: N1_7  and  C6_8 
REMARK       I    between atoms: N1_7  and  C13_22 
REMARK    4  A    between atoms: C6_8  and  C7_9 
REMARK    5  A    between atoms: C7_9  and  O2_10 
REMARK    6  A    between atoms: N2_12  and  C8_14 
REMARK    7  A    between atoms: C13_22  and  C14_24 
ROOT
HETATM    1  N1  UNL     1       7.720   9.807  22.059  1.00  0.00    -0.305 N 
HETATM    2  C13 UNL     1       8.616  10.221  23.050  1.00  0.00     0.276 C 
HETATM    3  O3  UNL     1       9.015  11.451  23.047  1.00  0.00    -0.265 OA
ENDROOT
BRANCH   1   4
HETATM    4  C5  UNL     1       7.290   8.479  21.806  1.00  0.00     0.038 A 
HETATM    5  C4  UNL     1       8.280   7.510  21.534  1.00  0.00     0.032 A 
HETATM    6  C3  UNL     1       7.904   6.231  21.240  1.00  0.00     0.039 A 
HETATM    7  C2  UNL     1       6.598   5.827  21.193  1.00  0.00     0.068 A 
HETATM    8  C20 UNL     1       5.627   6.747  21.453  1.00  0.00     0.039 A 
HETATM    9  C19 UNL     1       5.994   8.063  21.757  1.00  0.00     0.032 A 
BRANCH   7  10
HETATM   10  O1  UNL     1       6.325   4.496  20.880  1.00  0.00    -0.356 OA
HETATM   11  C1  UNL     1       7.341   3.497  20.850  1.00  0.00     0.210 C 
ENDBRANCH   7  10
ENDBRANCH   1   4
BRANCH   1  12
HETATM   12  C6  UNL     1       7.209  10.826  21.116  1.00  0.00     0.216 C 
BRANCH  12  13
HETATM   13  C7  UNL     1       7.903  10.741  19.811  1.00  0.00     0.135 C 
HETATM   14  N2  UNL     1       7.589  10.065  18.680  1.00  0.00    -0.325 N 
ATOM     15  H2  UNL     1       8.288  10.241  17.958  1.00  0.00     0.169 HD
BRANCH  13  16
HETATM   16  O2  UNL     1       9.009  11.444  19.742  1.00  0.00    -0.348 OA
ATOM     17  H2  UNL     1       9.682  11.059  19.193  1.00  0.00     0.219 HD
ENDBRANCH  13  16
BRANCH  14  18
HETATM   18  C8  UNL     1       6.710   9.296  18.253  1.00  0.00     0.106 A 
HETATM   19  C9  UNL     1       5.486   9.720  17.824  1.00  0.00     0.050 A 
HETATM   20  C10 UNL     1       4.547   8.816  17.334  1.00  0.00     0.024 A 
HETATM   21  C11 UNL     1       4.846   7.487  17.280  1.00  0.00     0.026 A 
HETATM   22 BR1  UNL     1       3.564   6.254  16.609  1.00  0.00    -0.050 Br
HETATM   23  C12 UNL     1       6.075   7.095  17.715  1.00  0.00     0.108 A 
HETATM   24  N3  UNL     1       6.983   7.936  18.184  1.00  0.00    -0.351 N 
ATOM     25  H3  UNL     1       7.888   7.583  18.496  1.00  0.00     0.166 HD
ENDBRANCH  14  18
ENDBRANCH  12  13
ENDBRANCH   1  12
BRANCH   2  26
HETATM   26  C14 UNL     1       9.172   9.412  24.120  1.00  0.00     0.116 A 
HETATM   27  C15 UNL     1       8.343   8.841  25.090  1.00  0.00     0.042 A 
HETATM   28  C16 UNL     1       8.818   8.066  26.122  1.00  0.00     0.078 A 
HETATM   29  C17 UNL     1      10.172   7.846  26.198  1.00  0.00     0.261 A 
HETATM   30  O4  UNL     1      10.673   7.138  27.130  1.00  0.00    -0.267 OA
HETATM   31  N4  UNL     1      10.978   8.399  25.262  1.00  0.00    -0.262 N 
HETATM   32  C18 UNL     1      12.423   8.142  25.356  1.00  0.00     0.181 C 
HETATM   33  N5  UNL     1      10.471   9.135  24.289  1.00  0.00    -0.291 N 
ATOM     34  H5  UNL     1      11.124   9.525  23.609  1.00  0.00     0.187 HD
ENDBRANCH   2  26
TORSDOF 7
ENDMDL
MODEL 5
REMARK VINA RESULT: -7.655951912      3.422      6.872
REMARK  7 active torsions:
REMARK  status: ('A' for Active; 'I' for Inactive)
REMARK    1  A    between atoms: O1_2  and  C2_3 
REMARK    2  A    between atoms: C5_6  and  N1_7 
REMARK    3  A    between atoms: N1_7  and  C6_8 
REMARK       I    between atoms: N1_7  and  C13_22 
REMARK    4  A    between atoms: C6_8  and  C7_9 
REMARK    5  A    between atoms: C7_9  and  O2_10 
REMARK    6  A    between atoms: N2_12  and  C8_14 
REMARK    7  A    between atoms: C13_22  and  C14_24 
ROOT
HETATM    1  N1  UNL     1       4.721   5.975  22.275  1.00  0.00    -0.305 N 
HETATM    2  C13 UNL     1       5.048   6.780  23.371  1.00  0.00     0.276 C 
HETATM    3  O3  UNL     1       4.254   6.786  24.392  1.00  0.00    -0.265 OA
ENDROOT
BRANCH   1   4
HETATM    4  C5  UNL     1       5.375   5.948  21.016  1.00  0.00     0.038 A 
HETATM    5  C4  UNL     1       4.579   6.099  19.861  1.00  0.00     0.032 A 
HETATM    6  C3  UNL     1       5.164   6.033  18.629  1.00  0.00     0.039 A 
HETATM    7  C2  UNL     1       6.504   5.826  18.448  1.00  0.00     0.068 A 
HETATM    8  C20 UNL     1       7.290   5.679  19.550  1.00  0.00     0.039 A 
HETATM    9  C19 UNL     1       6.708   5.744  20.822  1.00  0.00     0.032 A 
BRANCH   7  10
HETATM   10  O1  UNL     1       6.997   5.774  17.145  1.00  0.00    -0.356 OA
HETATM   11  C1  UNL     1       6.991   4.575  16.375  1.00  0.00     0.210 C 
ENDBRANCH   7  10
ENDBRANCH   1   4
BRANCH   1  12
HETATM   12  C6  UNL     1       3.529   5.106  22.384  1.00  0.00     0.216 C 
BRANCH  12  13
HETATM   13  C7  UNL     1       3.864   3.816  23.030  1.00  0.00     0.135 C 
HETATM   14  N2  UNL     1       4.682   2.811  22.638  1.00  0.00    -0.325 N 
ATOM     15  H2  UNL     1       4.688   2.068  23.336  1.00  0.00     0.169 HD
BRANCH  13  16
HETATM   16  O2  UNL     1       3.265   3.620  24.182  1.00  0.00    -0.348 OA
ATOM     17  H2  UNL     1       2.428   4.061  24.265  1.00  0.00     0.219 HD
ENDBRANCH  13  16
BRANCH  14  18
HETATM   18  C8  UNL     1       5.426   2.518  21.686  1.00  0.00     0.106 A 
HETATM   19  C9  UNL     1       4.991   2.410  20.397  1.00  0.00     0.050 A 
HETATM   20  C10 UNL     1       5.875   2.100  19.367  1.00  0.00     0.024 A 
HETATM   21  C11 UNL     1       7.194   1.899  19.640  1.00  0.00     0.026 A 
HETATM   22 BR1  UNL     1       8.400   1.477  18.232  1.00  0.00    -0.050 Br
HETATM   23  C12 UNL     1       7.599   2.013  20.936  1.00  0.00     0.108 A 
HETATM   24  N3  UNL     1       6.778   2.307  21.930  1.00  0.00    -0.351 N 
ATOM     25  H3  UNL     1       7.139   2.380  22.881  1.00  0.00     0.166 HD
ENDBRANCH  14  18
ENDBRANCH  12  13
ENDBRANCH   1  12
BRANCH   2  26
HETATM   26  C14 UNL     1       6.212   7.638  23.509  1.00  0.00     0.116 A 
HETATM   27  C15 UNL     1       6.322   8.818  22.771  1.00  0.00     0.042 A 
HETATM   28  C16 UNL     1       7.402   9.666  22.867  1.00  0.00     0.078 A 
HETATM   29  C17 UNL     1       8.416   9.329  23.731  1.00  0.00     0.261 A 
HETATM   30  O4  UNL     1       9.441  10.072  23.864  1.00  0.00    -0.267 OA
HETATM   31  N4  UNL     1       8.313   8.185  24.446  1.00  0.00    -0.262 N 
HETATM   32  C18 UNL     1       9.404   7.849  25.373  1.00  0.00     0.181 C 
HETATM   33  N5  UNL     1       7.253   7.405  24.318  1.00  0.00    -0.291 N 
ATOM     34  H5  UNL     1       7.227   6.557  24.883  1.00  0.00     0.187 HD
ENDBRANCH   2  26
TORSDOF 7
ENDMDL
