MODEL 1
REMARK VINA RESULT: -5.809578685      0.000      0.000
REMARK  0 active torsions:
REMARK  status: ('A' for Active; 'I' for Inactive)
REMARK       I    between atoms: C1_4  and  N3_6 
ROOT
HETATM    1  N1  UNL     1      -1.335   9.639   7.917  1.00  0.00    -0.373 N 
ATOM      2  H11 UNL     1      -1.968   8.844   8.006  1.00  0.00     0.158 HD
ATOM      3  H12 UNL     1      -1.311  10.235   7.090  1.00  0.00     0.158 HD
HETATM    4  C1  UNL     1      -0.536   9.896   8.890  1.00  0.00     0.200 C 
HETATM    5  N2  UNL     1       0.344  11.003   8.767  1.00  0.00    -0.063 NA
HETATM    6  N3  UNL     1      -0.570   9.065  10.044  1.00  0.00    -0.187 N 
HETATM    7  C2  UNL     1      -0.057   7.823  10.074  1.00  0.00     0.341 A 
HETATM    8  O1  UNL     1       0.480   7.377   9.030  1.00  0.00    -0.246 OA
HETATM    9  N4  UNL     1      -0.079   7.027  11.149  1.00  0.00    -0.260 N 
ATOM     10  H4  UNL     1       0.327   6.092  11.116  1.00  0.00     0.175 HD
HETATM   11  C3  UNL     1      -0.651   7.491  12.276  1.00  0.00     0.332 A 
HETATM   12  O2  UNL     1      -0.688   6.758  13.313  1.00  0.00    -0.246 OA
HETATM   13  N5  UNL     1      -1.187   8.741  12.300  1.00  0.00    -0.260 N 
ATOM     14  H5  UNL     1      -1.622   9.100  13.151  1.00  0.00     0.175 HD
HETATM   15  C4  UNL     1      -1.137   9.500  11.191  1.00  0.00     0.341 A 
HETATM   16  O3  UNL     1      -1.648  10.649  11.270  1.00  0.00    -0.246 OA
ENDROOT
TORSDOF 0
ENDMDL
MODEL 2
REMARK VINA RESULT: -5.776366846      4.677      6.167
REMARK  0 active torsions:
REMARK  status: ('A' for Active; 'I' for Inactive)
REMARK       I    between atoms: C1_4  and  N3_6 
ROOT
HETATM    1  N1  UNL     1       0.266   7.545  14.065  1.00  0.00    -0.373 N 
ATOM      2  H11 UNL     1      -0.204   8.447  14.136  1.00  0.00     0.158 HD
ATOM      3  H12 UNL     1       1.175   7.431  13.617  1.00  0.00     0.158 HD
HETATM    4  C1  UNL     1      -0.314   6.511  14.559  1.00  0.00     0.200 C 
HETATM    5  N2  UNL     1       0.340   5.256  14.460  1.00  0.00    -0.063 NA
HETATM    6  N3  UNL     1      -1.583   6.670  15.184  1.00  0.00    -0.187 N 
HETATM    7  C2  UNL     1      -2.722   6.867  14.500  1.00  0.00     0.341 A 
HETATM    8  O1  UNL     1      -2.663   6.912  13.246  1.00  0.00    -0.246 OA
HETATM    9  N4  UNL     1      -3.924   7.019  15.069  1.00  0.00    -0.260 N 
ATOM     10  H4  UNL     1      -4.758   7.165  14.501  1.00  0.00     0.175 HD
HETATM   11  C3  UNL     1      -4.005   6.974  16.412  1.00  0.00     0.332 A 
HETATM   12  O2  UNL     1      -5.132   7.114  16.982  1.00  0.00    -0.246 OA
HETATM   13  N5  UNL     1      -2.881   6.776  17.154  1.00  0.00    -0.260 N 
ATOM     14  H5  UNL     1      -2.935   6.740  18.172  1.00  0.00     0.175 HD
HETATM   15  C4  UNL     1      -1.698   6.629  16.530  1.00  0.00     0.341 A 
HETATM   16  O3  UNL     1      -0.691   6.450  17.265  1.00  0.00    -0.246 OA
ENDROOT
TORSDOF 0
ENDMDL
MODEL 3
REMARK VINA RESULT: -5.764264416      5.439      7.339
REMARK  0 active torsions:
REMARK  status: ('A' for Active; 'I' for Inactive)
REMARK       I    between atoms: C1_4  and  N3_6 
ROOT
HETATM    1  N1  UNL     1      -4.237   4.198  15.011  1.00  0.00    -0.373 N 
ATOM      2  H11 UNL     1      -4.830   4.843  14.488  1.00  0.00     0.158 HD
ATOM      3  H12 UNL     1      -4.347   3.185  14.963  1.00  0.00     0.158 HD
HETATM    4  C1  UNL     1      -3.314   4.686  15.759  1.00  0.00     0.200 C 
HETATM    5  N2  UNL     1      -2.489   3.790  16.487  1.00  0.00    -0.063 NA
HETATM    6  N3  UNL     1      -3.161   6.099  15.826  1.00  0.00    -0.187 N 
HETATM    7  C2  UNL     1      -4.002   6.902  16.498  1.00  0.00     0.341 A 
HETATM    8  O1  UNL     1      -4.972   6.377  17.099  1.00  0.00    -0.246 OA
HETATM    9  N4  UNL     1      -3.874   8.232  16.572  1.00  0.00    -0.260 N 
ATOM     10  H4  UNL     1      -4.543   8.794  17.099  1.00  0.00     0.175 HD
HETATM   11  C3  UNL     1      -2.840   8.810  15.933  1.00  0.00     0.332 A 
HETATM   12  O2  UNL     1      -2.692  10.071  15.985  1.00  0.00    -0.246 OA
HETATM   13  N5  UNL     1      -1.958   8.044  15.237  1.00  0.00    -0.260 N 
ATOM     14  H5  UNL     1      -1.171   8.475  14.751  1.00  0.00     0.175 HD
HETATM   15  C4  UNL     1      -2.134   6.711  15.196  1.00  0.00     0.341 A 
HETATM   16  O3  UNL     1      -1.287   6.050  14.536  1.00  0.00    -0.246 OA
ENDROOT
TORSDOF 0
ENDMDL
MODEL 4
REMARK VINA RESULT: -5.736001911      1.502      3.698
REMARK  0 active torsions:
REMARK  status: ('A' for Active; 'I' for Inactive)
REMARK       I    between atoms: C1_4  and  N3_6 
ROOT
HETATM    1  N1  UNL     1       1.257   7.333  11.877  1.00  0.00    -0.373 N 
ATOM      2  H11 UNL     1       1.743   8.166  11.542  1.00  0.00     0.158 HD
ATOM      3  H12 UNL     1       1.708   6.629  12.461  1.00  0.00     0.158 HD
HETATM    4  C1  UNL     1       0.027   7.169  11.546  1.00  0.00     0.200 C 
HETATM    5  N2  UNL     1      -0.649   6.011  12.011  1.00  0.00    -0.063 NA
HETATM    6  N3  UNL     1      -0.601   8.151  10.731  1.00  0.00    -0.187 N 
HETATM    7  C2  UNL     1      -0.361   8.282   9.415  1.00  0.00     0.341 A 
HETATM    8  O1  UNL     1       0.458   7.495   8.879  1.00  0.00    -0.246 OA
HETATM    9  N4  UNL     1      -0.942   9.199   8.632  1.00  0.00    -0.260 N 
ATOM     10  H4  UNL     1      -0.724   9.252   7.637  1.00  0.00     0.175 HD
HETATM   11  C3  UNL     1      -1.823  10.050   9.191  1.00  0.00     0.332 A 
HETATM   12  O2  UNL     1      -2.391  10.932   8.474  1.00  0.00    -0.246 OA
HETATM   13  N5  UNL     1      -2.102   9.962  10.520  1.00  0.00    -0.260 N 
ATOM     14  H5  UNL     1      -2.769  10.603  10.950  1.00  0.00     0.175 HD
HETATM   15  C4  UNL     1      -1.490   9.020  11.260  1.00  0.00     0.341 A 
HETATM   16  O3  UNL     1      -1.786   8.984  12.485  1.00  0.00    -0.246 OA
ENDROOT
TORSDOF 0
ENDMDL
MODEL 5
REMARK VINA RESULT: -5.710451619      5.573      7.286
REMARK  0 active torsions:
REMARK  status: ('A' for Active; 'I' for Inactive)
REMARK       I    between atoms: C1_4  and  N3_6 
ROOT
HETATM    1  N1  UNL     1      -1.980   3.461  16.394  1.00  0.00    -0.373 N 
ATOM      2  H11 UNL     1      -1.286   3.967  16.945  1.00  0.00     0.158 HD
ATOM      3  H12 UNL     1      -1.992   2.444  16.322  1.00  0.00     0.158 HD
HETATM    4  C1  UNL     1      -2.874   4.137  15.767  1.00  0.00     0.200 C 
HETATM    5  N2  UNL     1      -3.840   3.434  15.001  1.00  0.00    -0.063 NA
HETATM    6  N3  UNL     1      -2.857   5.556  15.868  1.00  0.00    -0.187 N 
HETATM    7  C2  UNL     1      -1.960   6.330  15.234  1.00  0.00     0.341 A 
HETATM    8  O1  UNL     1      -1.095   5.771  14.516  1.00  0.00    -0.246 OA
HETATM    9  N4  UNL     1      -1.928   7.666  15.317  1.00  0.00    -0.260 N 
ATOM     10  H4  UNL     1      -1.225   8.205  14.813  1.00  0.00     0.175 HD
HETATM   11  C3  UNL     1      -2.849   8.280  16.083  1.00  0.00     0.332 A 
HETATM   12  O2  UNL     1      -2.845   9.547  16.181  1.00  0.00    -0.246 OA
HETATM   13  N5  UNL     1      -3.781   7.544  16.747  1.00  0.00    -0.260 N 
ATOM     14  H5  UNL     1      -4.482   8.003  17.329  1.00  0.00     0.175 HD
HETATM   15  C4  UNL     1      -3.767   6.204  16.628  1.00  0.00     0.341 A 
HETATM   16  O3  UNL     1      -4.653   5.572  17.265  1.00  0.00    -0.246 OA
ENDROOT
TORSDOF 0
ENDMDL
