MODEL 1
REMARK VINA RESULT: -6.258484644      0.000      0.000
REMARK  2 active torsions:
REMARK  status: ('A' for Active; 'I' for Inactive)
REMARK    1  A    between atoms: N1_1  and  C1_4 
REMARK    2  A    between atoms: C3_9  and  N4_10 
ROOT
HETATM    1  C1  UNL     1      -1.194   8.800  13.055  1.00  0.00     0.680 A 
HETATM    2  N2  UNL     1      -0.724   7.545  13.153  1.00  0.00    -0.177 N 
ATOM      3  H2  UNL     1      -0.247   7.121  12.358  1.00  0.00     0.185 HD
HETATM    4  C2  UNL     1      -0.879   6.833  14.305  1.00  0.00     0.165 A 
HETATM    5  N3  UNL     1      -0.388   5.499  14.431  1.00  0.00    -0.079 NA
HETATM    6  C3  UNL     1      -1.520   7.375  15.399  1.00  0.00     0.159 A 
HETATM    7  C6  UNL     1      -1.998   8.662  15.286  1.00  0.00     0.291 A 
HETATM    8  O1  UNL     1      -2.594   9.189  16.277  1.00  0.00    -0.265 OA
HETATM    9  N7  UNL     1      -1.817   9.316  14.130  1.00  0.00    -0.154 N 
ATOM     10  H7  UNL     1      -2.176  10.268  14.060  1.00  0.00     0.187 HD
ENDROOT
BRANCH   6  11
HETATM   11  N4  UNL     1      -1.672   6.618  16.588  1.00  0.00    -0.270 N 
HETATM   12  C4  UNL     1      -2.818   5.790  16.906  1.00  0.00     0.164 C 
HETATM   13  C5  UNL     1      -2.263   4.945  18.035  1.00  0.00     0.153 C 
HETATM   14  N5  UNL     1      -1.431   5.944  18.710  1.00  0.00    -0.124 NA
HETATM   15  N6  UNL     1      -0.750   6.549  17.636  1.00  0.00    -0.029 NA
ENDBRANCH   6  11
BRANCH   1  16
HETATM   16  N1  UNL     1      -1.045   9.471  11.962  1.00  0.00    -0.234 N 
ATOM     17  H12 UNL     1      -1.841   9.813  11.423  1.00  0.00     0.174 HD
ATOM     18  H11 UNL     1      -0.112   9.678  11.606  1.00  0.00     0.174 HD
ENDBRANCH   1  16
TORSDOF 2
ENDMDL
MODEL 2
REMARK VINA RESULT: -6.244391738      1.071      1.071
REMARK  2 active torsions:
REMARK  status: ('A' for Active; 'I' for Inactive)
REMARK    1  A    between atoms: N1_1  and  C1_4 
REMARK    2  A    between atoms: C3_9  and  N4_10 
ROOT
HETATM    1  C1  UNL     1      -0.841   8.427  13.099  1.00  0.00     0.680 A 
HETATM    2  N2  UNL     1       0.178   7.701  13.590  1.00  0.00    -0.177 N 
ATOM      3  H2  UNL     1       1.079   7.710  13.113  1.00  0.00     0.185 HD
HETATM    4  C2  UNL     1       0.019   6.954  14.718  1.00  0.00     0.165 A 
HETATM    5  N3  UNL     1       1.087   6.176  15.257  1.00  0.00    -0.079 NA
HETATM    6  C3  UNL     1      -1.186   6.919  15.388  1.00  0.00     0.159 A 
HETATM    7  C6  UNL     1      -2.224   7.667  14.874  1.00  0.00     0.291 A 
HETATM    8  O1  UNL     1      -3.347   7.654  15.469  1.00  0.00    -0.265 OA
HETATM    9  N7  UNL     1      -2.010   8.383  13.762  1.00  0.00    -0.154 N 
ATOM     10  H7  UNL     1      -2.787   8.932  13.393  1.00  0.00     0.187 HD
ENDROOT
BRANCH   6  11
HETATM   11  N4  UNL     1      -1.332   6.135  16.560  1.00  0.00    -0.270 N 
HETATM   12  C4  UNL     1      -1.793   4.761  16.589  1.00  0.00     0.164 C 
HETATM   13  C5  UNL     1      -1.363   4.339  17.979  1.00  0.00     0.153 C 
HETATM   14  N5  UNL     1      -1.622   5.582  18.710  1.00  0.00    -0.124 NA
HETATM   15  N6  UNL     1      -1.059   6.556  17.864  1.00  0.00    -0.029 NA
ENDBRANCH   6  11
BRANCH   1  16
HETATM   16  N1  UNL     1      -0.686   9.134  12.029  1.00  0.00    -0.234 N 
ATOM     17  H12 UNL     1      -1.452   9.306  11.378  1.00  0.00     0.174 HD
ATOM     18  H11 UNL     1       0.222   9.542  11.807  1.00  0.00     0.174 HD
ENDBRANCH   1  16
TORSDOF 2
ENDMDL
MODEL 3
REMARK VINA RESULT: -6.187314311      2.477      3.229
REMARK  2 active torsions:
REMARK  status: ('A' for Active; 'I' for Inactive)
REMARK    1  A    between atoms: N1_1  and  C1_4 
REMARK    2  A    between atoms: C3_9  and  N4_10 
ROOT
HETATM    1  C1  UNL     1      -2.636   8.135  16.089  1.00  0.00     0.680 A 
HETATM    2  N2  UNL     1      -1.381   7.655  16.099  1.00  0.00    -0.177 N 
ATOM      3  H2  UNL     1      -0.608   8.257  15.820  1.00  0.00     0.185 HD
HETATM    4  C2  UNL     1      -1.133   6.370  16.479  1.00  0.00     0.165 A 
HETATM    5  N3  UNL     1       0.192   5.838  16.497  1.00  0.00    -0.079 NA
HETATM    6  C3  UNL     1      -2.155   5.527  16.861  1.00  0.00     0.159 A 
HETATM    7  C6  UNL     1      -3.438   6.031  16.846  1.00  0.00     0.291 A 
HETATM    8  O1  UNL     1      -4.401   5.279  17.192  1.00  0.00    -0.265 OA
HETATM    9  N7  UNL     1      -3.623   7.303  16.464  1.00  0.00    -0.154 N 
ATOM     10  H7  UNL     1      -4.577   7.664  16.457  1.00  0.00     0.187 HD
ENDROOT
BRANCH   6  11
HETATM   11  N4  UNL     1      -1.876   4.193  17.252  1.00  0.00    -0.270 N 
HETATM   12  C4  UNL     1      -1.744   3.071  16.344  1.00  0.00     0.164 C 
HETATM   13  C5  UNL     1      -1.066   2.052  17.237  1.00  0.00     0.153 C 
HETATM   14  N5  UNL     1      -1.739   2.343  18.506  1.00  0.00    -0.124 NA
HETATM   15  N6  UNL     1      -1.686   3.749  18.563  1.00  0.00    -0.029 NA
ENDBRANCH   6  11
BRANCH   1  16
HETATM   16  N1  UNL     1      -2.867   9.354  15.728  1.00  0.00    -0.234 N 
ATOM     17  H12 UNL     1      -3.508   9.959  16.243  1.00  0.00     0.174 HD
ATOM     18  H11 UNL     1      -2.407   9.746  14.907  1.00  0.00     0.174 HD
ENDBRANCH   1  16
TORSDOF 2
ENDMDL
MODEL 4
REMARK VINA RESULT: -6.155415535      1.461      2.180
REMARK  2 active torsions:
REMARK  status: ('A' for Active; 'I' for Inactive)
REMARK    1  A    between atoms: N1_1  and  C1_4 
REMARK    2  A    between atoms: C3_9  and  N4_10 
ROOT
HETATM    1  C1  UNL     1      -0.891   8.588  12.885  1.00  0.00     0.680 A 
HETATM    2  N2  UNL     1      -1.604   9.150  13.876  1.00  0.00    -0.177 N 
ATOM      3  H2  UNL     1      -1.980  10.090  13.757  1.00  0.00     0.185 HD
HETATM    4  C2  UNL     1      -1.829   8.475  15.039  1.00  0.00     0.165 A 
HETATM    5  N3  UNL     1      -2.583   9.053  16.104  1.00  0.00    -0.079 NA
HETATM    6  C3  UNL     1      -1.335   7.203  15.233  1.00  0.00     0.159 A 
HETATM    7  C6  UNL     1      -0.605   6.637  14.210  1.00  0.00     0.291 A 
HETATM    8  O1  UNL     1      -0.136   5.466  14.360  1.00  0.00    -0.265 OA
HETATM    9  N7  UNL     1      -0.416   7.347  13.088  1.00  0.00    -0.154 N 
ATOM     10  H7  UNL     1       0.126   6.917  12.339  1.00  0.00     0.187 HD
ENDROOT
BRANCH   6  11
HETATM   11  N4  UNL     1      -1.580   6.518  16.450  1.00  0.00    -0.270 N 
HETATM   12  C4  UNL     1      -2.762   5.731  16.739  1.00  0.00     0.164 C 
HETATM   13  C5  UNL     1      -2.300   4.942  17.946  1.00  0.00     0.153 C 
HETATM   14  N5  UNL     1      -1.489   5.961  18.618  1.00  0.00    -0.124 NA
HETATM   15  N6  UNL     1      -0.727   6.491  17.558  1.00  0.00    -0.029 NA
ENDBRANCH   6  11
BRANCH   1  16
HETATM   16  N1  UNL     1      -0.681   9.231  11.785  1.00  0.00    -0.234 N 
ATOM     17  H12 UNL     1       0.098   9.883  11.679  1.00  0.00     0.174 HD
ATOM     18  H11 UNL     1      -1.298   9.100  10.984  1.00  0.00     0.174 HD
ENDBRANCH   1  16
TORSDOF 2
ENDMDL
MODEL 5
REMARK VINA RESULT: -6.080063093      2.526      3.490
REMARK  2 active torsions:
REMARK  status: ('A' for Active; 'I' for Inactive)
REMARK    1  A    between atoms: N1_1  and  C1_4 
REMARK    2  A    between atoms: C3_9  and  N4_10 
ROOT
HETATM    1  C1  UNL     1      -2.585   8.205  16.105  1.00  0.00     0.680 A 
HETATM    2  N2  UNL     1      -3.596   7.397  16.469  1.00  0.00    -0.177 N 
ATOM      3  H2  UNL     1      -4.549   7.759  16.488  1.00  0.00     0.185 HD
HETATM    4  C2  UNL     1      -3.359   6.100  16.812  1.00  0.00     0.165 A 
HETATM    5  N3  UNL     1      -4.417   5.224  17.201  1.00  0.00    -0.079 NA
HETATM    6  C3  UNL     1      -2.082   5.579  16.799  1.00  0.00     0.159 A 
HETATM    7  C6  UNL     1      -1.054   6.417  16.425  1.00  0.00     0.291 A 
HETATM    8  O1  UNL     1       0.133   5.966  16.404  1.00  0.00    -0.265 OA
HETATM    9  N7  UNL     1      -1.346   7.684  16.097  1.00  0.00    -0.154 N 
ATOM     10  H7  UNL     1      -0.576   8.294  15.822  1.00  0.00     0.187 HD
ENDROOT
BRANCH   6  11
HETATM   11  N4  UNL     1      -1.856   4.227  17.161  1.00  0.00    -0.270 N 
HETATM   12  C4  UNL     1      -1.794   3.117  16.231  1.00  0.00     0.164 C 
HETATM   13  C5  UNL     1      -1.145   2.052  17.092  1.00  0.00     0.153 C 
HETATM   14  N5  UNL     1      -1.777   2.350  18.380  1.00  0.00    -0.124 NA
HETATM   15  N6  UNL     1      -1.659   3.751  18.460  1.00  0.00    -0.029 NA
ENDBRANCH   6  11
BRANCH   1  16
HETATM   16  N1  UNL     1      -2.814   9.434  15.780  1.00  0.00    -0.234 N 
ATOM     17  H12 UNL     1      -2.943   9.723  14.810  1.00  0.00     0.174 HD
ATOM     18  H11 UNL     1      -2.872  10.156  16.498  1.00  0.00     0.174 HD
ENDBRANCH   1  16
TORSDOF 2
ENDMDL
