MODEL 1
REMARK VINA RESULT: -6.860607443      0.000      0.000
REMARK  4 active torsions:
REMARK  status: ('A' for Active; 'I' for Inactive)
REMARK    1  A    between atoms: C2_7  and  N3_8 
REMARK    2  A    between atoms: N3_8  and  N4_10 
REMARK    3  A    between atoms: C3_14  and  C4_15 
REMARK    4  A    between atoms: C4_15  and  N6_19 
REMARK       I    between atoms: N6_19  and  C5_20 
ROOT
HETATM    1  N1  UNL     1       0.116   7.322   8.982  1.00  0.00    -0.386 N 
ATOM      2  H11 UNL     1      -0.285   7.185   8.054  1.00  0.00     0.157 HD
ATOM      3  H12 UNL     1       1.053   6.921   8.946  1.00  0.00     0.157 HD
HETATM    4  C1  UNL     1      -0.423   7.884   9.989  1.00  0.00     0.117 C 
HETATM    5  N2  UNL     1       0.138   8.075  11.285  1.00  0.00    -0.308 N 
ATOM      6  H2  UNL     1       1.113   7.925  11.541  1.00  0.00     0.170 HD
HETATM    7  C2  UNL     1      -0.816   8.480  12.094  1.00  0.00     0.240 C 
HETATM    8  O1  UNL     1      -2.006   8.578  11.434  1.00  0.00    -0.299 OA
HETATM    9  C3  UNL     1      -1.773   8.462  10.040  1.00  0.00     0.280 C 
ENDROOT
BRANCH   9  10
HETATM   10  C4  UNL     1      -1.882   9.775   9.413  1.00  0.00     0.192 C 
HETATM   11  N5  UNL     1      -3.115  10.105   9.032  1.00  0.00    -0.375 N 
ATOM     12  H52 UNL     1      -3.865   9.430   9.184  1.00  0.00     0.158 HD
ATOM     13  H51 UNL     1      -3.191  11.023   8.594  1.00  0.00     0.158 HD
BRANCH  10  14
HETATM   14  N6  UNL     1      -0.856  10.699   9.206  1.00  0.00    -0.338 NA
HETATM   15  C5  UNL     1       0.103  11.563   9.010  1.00  0.00     0.407 C 
HETATM   16  N7  UNL     1       0.914  12.150  10.096  1.00  0.00    -0.025 NA
HETATM   17  O2  UNL     1       0.510  12.048   7.889  1.00  0.00    -0.234 OA
ENDBRANCH  10  14
ENDBRANCH   9  10
BRANCH   7  18
HETATM   18  N3  UNL     1      -0.604   8.769  13.476  1.00  0.00    -0.272 N 
ATOM     19  H3  UNL     1       0.326   8.690  13.886  1.00  0.00     0.190 HD
BRANCH  18  20
HETATM   20  N4  UNL     1      -1.689   9.161  14.252  1.00  0.00    -0.342 N 
ATOM     21  H42 UNL     1      -2.356   9.837  13.881  1.00  0.00     0.176 HD
ATOM     22  H41 UNL     1      -1.796   8.762  15.184  1.00  0.00     0.176 HD
ENDBRANCH  18  20
ENDBRANCH   7  18
TORSDOF 4
ENDMDL
MODEL 2
REMARK VINA RESULT: -6.314987482      3.698      6.790
REMARK  4 active torsions:
REMARK  status: ('A' for Active; 'I' for Inactive)
REMARK    1  A    between atoms: C2_7  and  N3_8 
REMARK    2  A    between atoms: N3_8  and  N4_10 
REMARK    3  A    between atoms: C3_14  and  C4_15 
REMARK    4  A    between atoms: C4_15  and  N6_19 
REMARK       I    between atoms: N6_19  and  C5_20 
ROOT
HETATM    1  N1  UNL     1      -2.822   8.570  16.128  1.00  0.00    -0.386 N 
ATOM      2  H11 UNL     1      -3.367   7.931  16.707  1.00  0.00     0.157 HD
ATOM      3  H12 UNL     1      -2.755   9.441  16.654  1.00  0.00     0.157 HD
HETATM    4  C1  UNL     1      -2.314   8.342  14.983  1.00  0.00     0.117 C 
HETATM    5  N2  UNL     1      -1.553   9.234  14.173  1.00  0.00    -0.308 N 
ATOM      6  H2  UNL     1      -1.177  10.134  14.468  1.00  0.00     0.170 HD
HETATM    7  C2  UNL     1      -1.418   8.698  12.980  1.00  0.00     0.240 C 
HETATM    8  O1  UNL     1      -2.043   7.487  12.916  1.00  0.00    -0.299 OA
HETATM    9  C3  UNL     1      -2.411   7.085  14.226  1.00  0.00     0.280 C 
ENDROOT
BRANCH   9  10
HETATM   10  C4  UNL     1      -1.506   6.040  14.691  1.00  0.00     0.192 C 
HETATM   11  N5  UNL     1      -1.180   5.139  13.764  1.00  0.00    -0.375 N 
ATOM     12  H52 UNL     1      -1.588   5.234  12.834  1.00  0.00     0.158 HD
ATOM     13  H51 UNL     1      -0.547   4.408  14.089  1.00  0.00     0.158 HD
BRANCH  10  14
HETATM   14  N6  UNL     1      -0.948   5.911  15.963  1.00  0.00    -0.338 NA
HETATM   15  C5  UNL     1      -0.424   5.791  17.154  1.00  0.00     0.407 C 
HETATM   16  N7  UNL     1      -0.928   6.497  18.348  1.00  0.00    -0.025 NA
HETATM   17  O2  UNL     1       0.584   5.069  17.501  1.00  0.00    -0.234 OA
ENDBRANCH  10  14
ENDBRANCH   9  10
BRANCH   7  18
HETATM   18  N3  UNL     1      -0.707   9.325  11.913  1.00  0.00    -0.272 N 
ATOM     19  H3  UNL     1       0.080   8.855  11.467  1.00  0.00     0.190 HD
BRANCH  18  20
HETATM   20  N4  UNL     1      -1.106  10.589  11.493  1.00  0.00    -0.342 N 
ATOM     21  H42 UNL     1      -2.098  10.787  11.360  1.00  0.00     0.176 HD
ATOM     22  H41 UNL     1      -0.394  11.300  11.325  1.00  0.00     0.176 HD
ENDBRANCH  18  20
ENDBRANCH   7  18
TORSDOF 4
ENDMDL
MODEL 3
REMARK VINA RESULT: -6.184728734      1.500      1.617
REMARK  4 active torsions:
REMARK  status: ('A' for Active; 'I' for Inactive)
REMARK    1  A    between atoms: C2_7  and  N3_8 
REMARK    2  A    between atoms: N3_8  and  N4_10 
REMARK    3  A    between atoms: C3_14  and  C4_15 
REMARK    4  A    between atoms: C4_15  and  N6_19 
REMARK       I    between atoms: N6_19  and  C5_20 
ROOT
HETATM    1  N1  UNL     1      -0.872   7.244   9.287  1.00  0.00    -0.386 N 
ATOM      2  H11 UNL     1      -1.436   7.590   8.510  1.00  0.00     0.157 HD
ATOM      3  H12 UNL     1      -0.289   6.500   8.903  1.00  0.00     0.157 HD
HETATM    4  C1  UNL     1      -0.875   7.650  10.493  1.00  0.00     0.117 C 
HETATM    5  N2  UNL     1      -0.088   7.166  11.578  1.00  0.00    -0.308 N 
ATOM      6  H2  UNL     1       0.703   6.527  11.503  1.00  0.00     0.170 HD
HETATM    7  C2  UNL     1      -0.555   7.684  12.693  1.00  0.00     0.240 C 
HETATM    8  O1  UNL     1      -1.622   8.498  12.443  1.00  0.00    -0.299 OA
HETATM    9  C3  UNL     1      -1.716   8.722  11.046  1.00  0.00     0.280 C 
ENDROOT
BRANCH   9  10
HETATM   10  C4  UNL     1      -1.246  10.067  10.732  1.00  0.00     0.192 C 
HETATM   11  N5  UNL     1      -1.266  10.913  11.761  1.00  0.00    -0.375 N 
ATOM     12  H52 UNL     1      -1.614  10.574  12.659  1.00  0.00     0.158 HD
ATOM     13  H51 UNL     1      -0.937  11.853  11.542  1.00  0.00     0.158 HD
BRANCH  10  14
HETATM   14  N6  UNL     1      -0.770  10.529   9.504  1.00  0.00    -0.338 NA
HETATM   15  C5  UNL     1      -0.326  10.962   8.355  1.00  0.00     0.407 C 
HETATM   16  N7  UNL     1       0.927  11.726   8.193  1.00  0.00    -0.025 NA
HETATM   17  O2  UNL     1      -0.867  10.814   7.196  1.00  0.00    -0.234 OA
ENDBRANCH  10  14
ENDBRANCH   9  10
BRANCH   7  18
HETATM   18  N3  UNL     1       0.001   7.412  13.979  1.00  0.00    -0.272 N 
ATOM     19  H3  UNL     1       1.007   7.480  14.135  1.00  0.00     0.190 HD
BRANCH  18  20
HETATM   20  N4  UNL     1      -0.852   7.053  15.016  1.00  0.00    -0.342 N 
ATOM     21  H42 UNL     1      -1.621   6.408  14.836  1.00  0.00     0.176 HD
ATOM     22  H41 UNL     1      -0.691   7.445  15.944  1.00  0.00     0.176 HD
ENDBRANCH  18  20
ENDBRANCH   7  18
TORSDOF 4
ENDMDL
MODEL 4
REMARK VINA RESULT: -6.131430501      2.022      4.743
REMARK  4 active torsions:
REMARK  status: ('A' for Active; 'I' for Inactive)
REMARK    1  A    between atoms: C2_7  and  N3_8 
REMARK    2  A    between atoms: N3_8  and  N4_10 
REMARK    3  A    between atoms: C3_14  and  C4_15 
REMARK    4  A    between atoms: C4_15  and  N6_19 
REMARK       I    between atoms: N6_19  and  C5_20 
ROOT
HETATM    1  N1  UNL     1      -1.133   9.168  13.250  1.00  0.00    -0.386 N 
ATOM      2  H11 UNL     1      -1.359   8.342  13.804  1.00  0.00     0.157 HD
ATOM      3  H12 UNL     1      -0.704   9.832  13.895  1.00  0.00     0.157 HD
HETATM    4  C1  UNL     1      -1.331   9.350  12.006  1.00  0.00     0.117 C 
HETATM    5  N2  UNL     1      -1.016  10.504  11.232  1.00  0.00    -0.308 N 
ATOM      6  H2  UNL     1      -0.444  11.291  11.539  1.00  0.00     0.170 HD
HETATM    7  C2  UNL     1      -1.588  10.383  10.054  1.00  0.00     0.240 C 
HETATM    8  O1  UNL     1      -2.283   9.212   9.968  1.00  0.00    -0.299 OA
HETATM    9  C3  UNL     1      -1.950   8.393  11.077  1.00  0.00     0.280 C 
ENDROOT
BRANCH   9  10
HETATM   10  C4  UNL     1      -1.057   7.322  10.646  1.00  0.00     0.192 C 
HETATM   11  N5  UNL     1      -1.213   6.952   9.375  1.00  0.00    -0.375 N 
ATOM     12  H52 UNL     1      -1.933   7.416   8.821  1.00  0.00     0.158 HD
ATOM     13  H51 UNL     1      -0.589   6.204   9.073  1.00  0.00     0.158 HD
BRANCH  10  14
HETATM   14  N6  UNL     1      -0.073   6.687  11.404  1.00  0.00    -0.338 NA
HETATM   15  C5  UNL     1       0.848   6.093  12.115  1.00  0.00     0.407 C 
HETATM   16  N7  UNL     1       1.985   5.352  11.533  1.00  0.00    -0.025 NA
HETATM   17  O2  UNL     1       0.940   6.040  13.398  1.00  0.00    -0.234 OA
ENDBRANCH  10  14
ENDBRANCH   9  10
BRANCH   7  18
HETATM   18  N3  UNL     1      -1.479  11.364   9.023  1.00  0.00    -0.272 N 
ATOM     19  H3  UNL     1      -2.203  11.449   8.310  1.00  0.00     0.190 HD
BRANCH  18  20
HETATM   20  N4  UNL     1      -0.370  12.201   9.009  1.00  0.00    -0.342 N 
ATOM     21  H42 UNL     1       0.239  12.246   9.826  1.00  0.00     0.176 HD
ATOM     22  H41 UNL     1      -0.184  12.758   8.174  1.00  0.00     0.176 HD
ENDBRANCH  18  20
ENDBRANCH   7  18
TORSDOF 4
ENDMDL
MODEL 5
REMARK VINA RESULT: -6.084913548      2.208      4.730
REMARK  4 active torsions:
REMARK  status: ('A' for Active; 'I' for Inactive)
REMARK    1  A    between atoms: C2_7  and  N3_8 
REMARK    2  A    between atoms: N3_8  and  N4_10 
REMARK    3  A    between atoms: C3_14  and  C4_15 
REMARK    4  A    between atoms: C4_15  and  N6_19 
REMARK       I    between atoms: N6_19  and  C5_20 
ROOT
HETATM    1  N1  UNL     1      -1.853   8.626  12.526  1.00  0.00    -0.386 N 
ATOM      2  H11 UNL     1      -2.265   7.697  12.606  1.00  0.00     0.157 HD
ATOM      3  H12 UNL     1      -1.943   9.055  13.447  1.00  0.00     0.157 HD
HETATM    4  C1  UNL     1      -1.322   9.157  11.499  1.00  0.00     0.117 C 
HETATM    5  N2  UNL     1      -0.746  10.456  11.387  1.00  0.00    -0.308 N 
ATOM      6  H2  UNL     1      -0.540  11.087  12.162  1.00  0.00     0.170 HD
HETATM    7  C2  UNL     1      -0.525  10.704  10.115  1.00  0.00     0.240 C 
HETATM    8  O1  UNL     1      -0.916   9.653   9.338  1.00  0.00    -0.299 OA
HETATM    9  C3  UNL     1      -1.191   8.539  10.171  1.00  0.00     0.280 C 
ENDROOT
BRANCH   9  10
HETATM   10  C4  UNL     1      -0.105   7.570  10.071  1.00  0.00     0.192 C 
HETATM   11  N5  UNL     1       0.363   7.391   8.836  1.00  0.00    -0.375 N 
ATOM     12  H52 UNL     1      -0.071   7.914   8.074  1.00  0.00     0.158 HD
ATOM     13  H51 UNL     1       1.123   6.715   8.766  1.00  0.00     0.158 HD
BRANCH  10  14
HETATM   14  N6  UNL     1       0.488   6.857  11.113  1.00  0.00    -0.338 NA
HETATM   15  C5  UNL     1       1.045   6.189  12.088  1.00  0.00     0.407 C 
HETATM   16  N7  UNL     1       0.587   6.248  13.490  1.00  0.00    -0.025 NA
HETATM   17  O2  UNL     1       2.051   5.388  12.020  1.00  0.00    -0.234 OA
ENDBRANCH  10  14
ENDBRANCH   9  10
BRANCH   7  18
HETATM   18  N3  UNL     1       0.049  11.922   9.640  1.00  0.00    -0.272 N 
ATOM     19  H3  UNL     1       0.896  12.297  10.065  1.00  0.00     0.190 HD
BRANCH  18  20
HETATM   20  N4  UNL     1      -0.568  12.588   8.587  1.00  0.00    -0.342 N 
ATOM     21  H42 UNL     1      -0.530  12.191   7.648  1.00  0.00     0.176 HD
ATOM     22  H41 UNL     1      -1.051  13.466   8.776  1.00  0.00     0.176 HD
ENDBRANCH  18  20
ENDBRANCH   7  18
TORSDOF 4
ENDMDL
