MODEL 1
REMARK VINA RESULT: -8.377299975      0.000      0.000
REMARK  4 active torsions:
REMARK  status: ('A' for Active; 'I' for Inactive)
REMARK       I    between atoms: C2_2  and  N1_4 
REMARK    1  A    between atoms: N1_4  and  C3_6 
REMARK    2  A    between atoms: C3_6  and  C8_20 
REMARK    3  A    between atoms: N2_7  and  N3_9 
REMARK    4  A    between atoms: C6_13  and  C7_14 
ROOT
HETATM    1  C3  UNL     1      -0.229   8.934  10.088  1.00  0.00     0.170 C 
HETATM    2  N2  UNL     1      -0.141   9.167  11.357  1.00  0.00    -0.281 N 
ATOM      3  H2  UNL     1      -0.190  10.141  11.654  1.00  0.00     0.188 HD
ENDROOT
BRANCH   1   4
HETATM    4  N1  UNL     1      -0.385  10.019   9.229  1.00  0.00    -0.309 N 
HETATM    5  C2  UNL     1       0.067  11.349   9.362  1.00  0.00     0.219 C 
HETATM    6  C1  UNL     1      -0.206  12.378   8.299  1.00  0.00     0.117 C 
HETATM    7  O1  UNL     1       0.702  11.697  10.366  1.00  0.00    -0.274 OA
ATOM      8  H1  UNL     1      -0.904   9.822   8.374  1.00  0.00     0.170 HD
ENDBRANCH   1   4
BRANCH   1   9
HETATM    9  C8  UNL     1      -0.152   7.561   9.663  1.00  0.00     0.183 A 
HETATM   10  N6  UNL     1      -1.231   6.739   9.394  1.00  0.00    -0.266 N 
HETATM   11  N7  UNL     1      -0.795   5.566   8.990  1.00  0.00    -0.226 N 
ATOM     12  H6  UNL     1      -2.212   7.001   9.493  1.00  0.00     0.190 HD
HETATM   13  N8  UNL     1       0.509   5.571   8.980  1.00  0.00    -0.226 N 
ATOM     14  H7  UNL     1      -1.384   4.777   8.726  1.00  0.00     0.210 HD
HETATM   15  N9  UNL     1       0.891   6.765   9.383  1.00  0.00    -0.266 N 
ATOM     16  H8  UNL     1       1.117   4.798   8.711  1.00  0.00     0.210 HD
ATOM     17  H9  UNL     1       1.866   7.051   9.472  1.00  0.00     0.190 HD
ENDBRANCH   1   9
BRANCH   2  18
HETATM   18  N3  UNL     1       0.013   8.226  12.332  1.00  0.00    -0.282 N 
HETATM   19  C4  UNL     1      -0.637   8.112  13.411  1.00  0.00     0.143 A 
HETATM   20  C5  UNL     1      -0.498   7.173  14.406  1.00  0.00     0.096 A 
HETATM   21  N5  UNL     1      -1.629   8.930  13.798  1.00  0.00    -0.243 N 
HETATM   22  C6  UNL     1      -1.445   7.484  15.372  1.00  0.00     0.167 A 
HETATM   23  O3  UNL     1      -2.085   8.538  14.951  1.00  0.00    -0.231 OA
ATOM     24  H5  UNL     1      -1.971   9.732  13.269  1.00  0.00     0.196 HD
ATOM     25  H3  UNL     1       0.742   7.530  12.173  1.00  0.00     0.188 HD
BRANCH  22  26
HETATM   26  C7  UNL     1      -1.658   6.759  16.602  1.00  0.00     0.290 C 
HETATM   27  N4  UNL     1      -0.975   7.108  17.795  1.00  0.00    -0.055 NA
HETATM   28  O2  UNL     1      -2.456   5.792  16.660  1.00  0.00    -0.269 OA
ENDBRANCH  22  26
ENDBRANCH   2  18
TORSDOF 4
ENDMDL
MODEL 2
REMARK VINA RESULT: -8.245020791      3.160      6.421
REMARK  4 active torsions:
REMARK  status: ('A' for Active; 'I' for Inactive)
REMARK       I    between atoms: C2_2  and  N1_4 
REMARK    1  A    between atoms: N1_4  and  C3_6 
REMARK    2  A    between atoms: C3_6  and  C8_20 
REMARK    3  A    between atoms: N2_7  and  N3_9 
REMARK    4  A    between atoms: C6_13  and  C7_14 
ROOT
HETATM    1  C3  UNL     1      -0.933   9.233  11.824  1.00  0.00     0.170 C 
HETATM    2  N2  UNL     1      -0.407   8.091  11.524  1.00  0.00    -0.281 N 
ATOM      3  H2  UNL     1      -0.358   7.393  12.266  1.00  0.00     0.188 HD
ENDROOT
BRANCH   1   4
HETATM    4  N1  UNL     1      -1.389   9.426  13.125  1.00  0.00    -0.309 N 
HETATM    5  C2  UNL     1      -1.822   8.483  14.081  1.00  0.00     0.219 C 
HETATM    6  C1  UNL     1      -2.274   8.908  15.451  1.00  0.00     0.117 C 
HETATM    7  O1  UNL     1      -1.838   7.275  13.805  1.00  0.00    -0.274 OA
ATOM      8  H1  UNL     1      -1.414  10.398  13.434  1.00  0.00     0.170 HD
ENDBRANCH   1   4
BRANCH   1   9
HETATM    9  C8  UNL     1      -0.997  10.223  10.780  1.00  0.00     0.183 A 
HETATM   10  N6  UNL     1      -2.073  10.437   9.938  1.00  0.00    -0.266 N 
HETATM   11  N7  UNL     1      -1.805  11.444   9.137  1.00  0.00    -0.226 N 
ATOM     12  H6  UNL     1      -2.938   9.896   9.937  1.00  0.00     0.190 HD
HETATM   13  N8  UNL     1      -0.615  11.904   9.405  1.00  0.00    -0.226 N 
ATOM     14  H7  UNL     1      -2.430  11.809   8.419  1.00  0.00     0.210 HD
HETATM   15  N9  UNL     1      -0.134  11.172  10.388  1.00  0.00    -0.266 N 
ATOM     16  H8  UNL     1      -0.146  12.682   8.942  1.00  0.00     0.210 HD
ATOM     17  H9  UNL     1       0.787  11.310  10.803  1.00  0.00     0.190 HD
ENDBRANCH   1   9
BRANCH   2  18
HETATM   18  N3  UNL     1       0.087   7.735  10.303  1.00  0.00    -0.282 N 
HETATM   19  C4  UNL     1       0.079   6.591   9.764  1.00  0.00     0.143 A 
HETATM   20  C5  UNL     1       0.570   6.211   8.537  1.00  0.00     0.096 A 
HETATM   21  N5  UNL     1      -0.438   5.485  10.324  1.00  0.00    -0.243 N 
HETATM   22  C6  UNL     1       0.316   4.852   8.418  1.00  0.00     0.167 A 
HETATM   23  O3  UNL     1      -0.286   4.480   9.513  1.00  0.00    -0.231 OA
ATOM     24  H5  UNL     1      -0.880   5.440  11.242  1.00  0.00     0.196 HD
ATOM     25  H3  UNL     1       0.516   8.483   9.758  1.00  0.00     0.188 HD
BRANCH  22  26
HETATM   26  C7  UNL     1       0.664   4.030   7.282  1.00  0.00     0.290 C 
HETATM   27  N4  UNL     1       1.552   2.932   7.408  1.00  0.00    -0.055 NA
HETATM   28  O2  UNL     1       0.193   4.260   6.143  1.00  0.00    -0.269 OA
ENDBRANCH  22  26
ENDBRANCH   2  18
TORSDOF 4
ENDMDL
MODEL 3
REMARK VINA RESULT: -8.178099210      1.385      1.410
REMARK  4 active torsions:
REMARK  status: ('A' for Active; 'I' for Inactive)
REMARK       I    between atoms: C2_2  and  N1_4 
REMARK    1  A    between atoms: N1_4  and  C3_6 
REMARK    2  A    between atoms: C3_6  and  C8_20 
REMARK    3  A    between atoms: N2_7  and  N3_9 
REMARK    4  A    between atoms: C6_13  and  C7_14 
ROOT
HETATM    1  C3  UNL     1      -0.409   9.078  11.005  1.00  0.00     0.170 C 
HETATM    2  N2  UNL     1      -0.687   9.055  12.267  1.00  0.00    -0.281 N 
ATOM      3  H2  UNL     1      -0.805   9.955  12.733  1.00  0.00     0.188 HD
ENDROOT
BRANCH   1   4
HETATM    4  N1  UNL     1      -0.291  10.316  10.379  1.00  0.00    -0.309 N 
HETATM    5  C2  UNL     1      -0.378  10.649   9.011  1.00  0.00     0.219 C 
HETATM    6  C1  UNL     1      -0.227  12.070   8.540  1.00  0.00     0.117 C 
HETATM    7  O1  UNL     1      -0.583   9.770   8.164  1.00  0.00    -0.274 OA
ATOM      8  H1  UNL     1      -0.115  11.101  11.006  1.00  0.00     0.170 HD
ENDBRANCH   1   4
BRANCH   1   9
HETATM    9  C8  UNL     1      -0.235   7.810  10.346  1.00  0.00     0.183 A 
HETATM   10  N6  UNL     1      -1.198   7.145   9.609  1.00  0.00    -0.266 N 
HETATM   11  N7  UNL     1      -0.684   6.041   9.116  1.00  0.00    -0.226 N 
ATOM     12  H6  UNL     1      -2.157   7.463   9.470  1.00  0.00     0.190 HD
HETATM   13  N8  UNL     1       0.562   5.941   9.488  1.00  0.00    -0.226 N 
ATOM     14  H7  UNL     1      -1.182   5.367   8.534  1.00  0.00     0.210 HD
HETATM   15  N9  UNL     1       0.827   7.000  10.223  1.00  0.00    -0.266 N 
ATOM     16  H8  UNL     1       1.207   5.186   9.253  1.00  0.00     0.210 HD
ATOM     17  H9  UNL     1       1.736   7.183  10.650  1.00  0.00     0.190 HD
ENDBRANCH   1   9
BRANCH   2  18
HETATM   18  N3  UNL     1      -0.838   7.935  13.032  1.00  0.00    -0.282 N 
HETATM   19  C4  UNL     1      -1.396   7.835  14.162  1.00  0.00     0.143 A 
HETATM   20  C5  UNL     1      -1.558   6.719  14.948  1.00  0.00     0.096 A 
HETATM   21  N5  UNL     1      -1.958   8.855  14.831  1.00  0.00    -0.243 N 
HETATM   22  C6  UNL     1      -2.232   7.137  16.087  1.00  0.00     0.167 A 
HETATM   23  O3  UNL     1      -2.440   8.417  15.957  1.00  0.00    -0.231 OA
ATOM     24  H5  UNL     1      -1.999   9.821  14.508  1.00  0.00     0.196 HD
ATOM     25  H3  UNL     1      -0.453   7.073  12.645  1.00  0.00     0.188 HD
BRANCH  22  26
HETATM   26  C7  UNL     1      -2.616   6.291  17.193  1.00  0.00     0.290 C 
HETATM   27  N4  UNL     1      -3.847   5.588  17.194  1.00  0.00    -0.055 NA
HETATM   28  O2  UNL     1      -1.873   6.149  18.193  1.00  0.00    -0.269 OA
ENDBRANCH  22  26
ENDBRANCH   2  18
TORSDOF 4
ENDMDL
MODEL 4
REMARK VINA RESULT: -8.029063030      1.673      1.988
REMARK  4 active torsions:
REMARK  status: ('A' for Active; 'I' for Inactive)
REMARK       I    between atoms: C2_2  and  N1_4 
REMARK    1  A    between atoms: N1_4  and  C3_6 
REMARK    2  A    between atoms: C3_6  and  C8_20 
REMARK    3  A    between atoms: N2_7  and  N3_9 
REMARK    4  A    between atoms: C6_13  and  C7_14 
ROOT
HETATM    1  C3  UNL     1      -0.817   9.251  11.165  1.00  0.00     0.170 C 
HETATM    2  N2  UNL     1      -1.794   9.125  12.003  1.00  0.00    -0.281 N 
ATOM      3  H2  UNL     1      -2.388   9.940  12.150  1.00  0.00     0.188 HD
ENDROOT
BRANCH   1   4
HETATM    4  N1  UNL     1      -0.651  10.479  10.529  1.00  0.00    -0.309 N 
HETATM    5  C2  UNL     1      -0.440  10.769   9.165  1.00  0.00     0.219 C 
HETATM    6  C1  UNL     1      -0.291  12.185   8.680  1.00  0.00     0.117 C 
HETATM    7  O1  UNL     1      -0.372   9.854   8.333  1.00  0.00    -0.274 OA
ATOM      8  H1  UNL     1      -0.688  11.292  11.144  1.00  0.00     0.170 HD
ENDBRANCH   1   4
BRANCH   1   9
HETATM    9  C8  UNL     1       0.029   8.105  10.962  1.00  0.00     0.183 A 
HETATM   10  N6  UNL     1       1.073   7.719  11.781  1.00  0.00    -0.266 N 
HETATM   11  N7  UNL     1       1.600   6.606  11.321  1.00  0.00    -0.226 N 
ATOM     12  H6  UNL     1       1.386   8.219  12.614  1.00  0.00     0.190 HD
HETATM   13  N8  UNL     1       0.962   6.240  10.244  1.00  0.00    -0.226 N 
ATOM     14  H7  UNL     1       2.385   6.107  11.739  1.00  0.00     0.210 HD
HETATM   15  N9  UNL     1       0.023   7.138  10.032  1.00  0.00    -0.266 N 
ATOM     16  H8  UNL     1       1.153   5.415   9.676  1.00  0.00     0.210 HD
ATOM     17  H9  UNL     1      -0.632   7.103   9.251  1.00  0.00     0.190 HD
ENDBRANCH   1   9
BRANCH   2  18
HETATM   18  N3  UNL     1      -2.099   7.998  12.710  1.00  0.00    -0.282 N 
HETATM   19  C4  UNL     1      -2.238   7.879  13.961  1.00  0.00     0.143 A 
HETATM   20  C5  UNL     1      -2.545   6.755  14.691  1.00  0.00     0.096 A 
HETATM   21  N5  UNL     1      -2.102   8.880  14.845  1.00  0.00    -0.243 N 
HETATM   22  C6  UNL     1      -2.580   7.151  16.021  1.00  0.00     0.167 A 
HETATM   23  O3  UNL     1      -2.309   8.425  16.046  1.00  0.00    -0.231 OA
ATOM     24  H5  UNL     1      -1.873   9.846  14.612  1.00  0.00     0.196 HD
ATOM     25  H3  UNL     1      -2.231   7.148  12.161  1.00  0.00     0.188 HD
BRANCH  22  26
HETATM   26  C7  UNL     1      -2.865   6.290  17.145  1.00  0.00     0.290 C 
HETATM   27  N4  UNL     1      -4.100   5.600  17.254  1.00  0.00    -0.055 NA
HETATM   28  O2  UNL     1      -2.031   6.122  18.066  1.00  0.00    -0.269 OA
ENDBRANCH  22  26
ENDBRANCH   2  18
TORSDOF 4
ENDMDL
MODEL 5
REMARK VINA RESULT: -7.949820647      2.229      6.432
REMARK  4 active torsions:
REMARK  status: ('A' for Active; 'I' for Inactive)
REMARK       I    between atoms: C2_2  and  N1_4 
REMARK    1  A    between atoms: N1_4  and  C3_6 
REMARK    2  A    between atoms: C3_6  and  C8_20 
REMARK    3  A    between atoms: N2_7  and  N3_9 
REMARK    4  A    between atoms: C6_13  and  C7_14 
ROOT
HETATM    1  C3  UNL     1      -1.804   7.399  13.730  1.00  0.00     0.170 C 
HETATM    2  N2  UNL     1      -1.864   8.656  13.432  1.00  0.00    -0.281 N 
ATOM      3  H2  UNL     1      -2.603   9.202  13.875  1.00  0.00     0.188 HD
ENDROOT
BRANCH   1   4
HETATM    4  N1  UNL     1      -2.742   6.889  14.623  1.00  0.00    -0.309 N 
HETATM    5  C2  UNL     1      -3.081   7.320  15.923  1.00  0.00     0.219 C 
HETATM    6  C1  UNL     1      -4.144   6.623  16.727  1.00  0.00     0.117 C 
HETATM    7  O1  UNL     1      -2.504   8.291  16.431  1.00  0.00    -0.274 OA
ATOM      8  H1  UNL     1      -3.264   6.079  14.286  1.00  0.00     0.170 HD
ENDBRANCH   1   4
BRANCH   1   9
HETATM    9  C8  UNL     1      -0.768   6.622  13.101  1.00  0.00     0.183 A 
HETATM   10  N6  UNL     1      -0.864   5.993  11.874  1.00  0.00    -0.266 N 
HETATM   11  N7  UNL     1       0.281   5.413  11.591  1.00  0.00    -0.226 N 
ATOM     12  H6  UNL     1      -1.695   5.981  11.281  1.00  0.00     0.190 HD
HETATM   13  N8  UNL     1       1.124   5.624  12.563  1.00  0.00    -0.226 N 
ATOM     14  H7  UNL     1       0.479   4.880  10.744  1.00  0.00     0.210 HD
HETATM   15  N9  UNL     1       0.494   6.348  13.465  1.00  0.00    -0.266 N 
ATOM     16  H8  UNL     1       2.087   5.293  12.615  1.00  0.00     0.210 HD
ATOM     17  H9  UNL     1       0.916   6.663  14.338  1.00  0.00     0.190 HD
ENDBRANCH   1   9
BRANCH   2  18
HETATM   18  N3  UNL     1      -1.028   9.316  12.580  1.00  0.00    -0.282 N 
HETATM   19  C4  UNL     1      -1.229   9.610  11.367  1.00  0.00     0.143 A 
HETATM   20  C5  UNL     1      -0.401  10.273  10.492  1.00  0.00     0.096 A 
HETATM   21  N5  UNL     1      -2.343   9.309  10.680  1.00  0.00    -0.243 N 
HETATM   22  C6  UNL     1      -1.082  10.341   9.284  1.00  0.00     0.167 A 
HETATM   23  O3  UNL     1      -2.230   9.750   9.462  1.00  0.00    -0.231 OA
ATOM     24  H5  UNL     1      -3.151   8.814  11.056  1.00  0.00     0.196 HD
ATOM     25  H3  UNL     1      -0.131   9.609  12.969  1.00  0.00     0.188 HD
BRANCH  22  26
HETATM   26  C7  UNL     1      -0.587  10.956   8.075  1.00  0.00     0.290 C 
HETATM   27  N4  UNL     1       0.447  11.927   8.108  1.00  0.00    -0.055 NA
HETATM   28  O2  UNL     1      -1.053  10.653   6.951  1.00  0.00    -0.269 OA
ENDBRANCH  22  26
ENDBRANCH   2  18
TORSDOF 4
ENDMDL
