MODEL 1
REMARK VINA RESULT: -6.914110760      0.000      0.000
REMARK  6 active torsions:
REMARK  status: ('A' for Active; 'I' for Inactive)
REMARK    1  A    between atoms: C4_5  and  N1_6 
REMARK    2  A    between atoms: C5_11  and  N4_12 
REMARK    3  A    between atoms: C6_15  and  C8_17 
REMARK    4  A    between atoms: C8_17  and  O2_18 
REMARK    5  A    between atoms: C8_17  and  C9_20 
REMARK    6  A    between atoms: C9_20  and  O3_22 
ROOT
HETATM    1  C1  UNL     1       1.711   5.590  11.376  1.00  0.00     0.017 C 
HETATM    2  C2  UNL     1       1.010   6.445  10.908  1.00  0.00    -0.057 C 
HETATM    3  C3  UNL     1       0.162   7.502  10.329  1.00  0.00     0.345 C 
HETATM    4  O1  UNL     1      -1.159   7.092  10.206  1.00  0.00    -0.320 OA
HETATM    5  C4  UNL     1      -1.881   8.277  10.380  1.00  0.00     0.305 C 
HETATM    6  C6  UNL     1      -1.125   8.916  11.488  1.00  0.00     0.135 C 
HETATM    7  C7  UNL     1      -1.400  10.361  11.691  1.00  0.00     0.054 C 
HETATM    8  O4  UNL     1       0.214   8.660  11.064  1.00  0.00    -0.332 OA
ENDROOT
BRANCH   5   9
HETATM    9  N1  UNL     1      -1.842   9.009   9.143  1.00  0.00    -0.075 N 
HETATM   10  N2  UNL     1      -0.973   9.345   8.211  1.00  0.00    -0.209 N 
HETATM   11  N3  UNL     1      -1.898   9.982   7.545  1.00  0.00    -0.116 N 
ATOM     12  H2  UNL     1       0.022   9.175   8.068  1.00  0.00     0.209 HD
HETATM   13  C5  UNL     1      -2.806   9.657   8.478  1.00  0.00     0.712 A 
ATOM     14  H3  UNL     1      -1.921  10.511   6.673  1.00  0.00     0.207 HD
BRANCH  13  15
HETATM   15  N4  UNL     1      -4.089   9.889   8.640  1.00  0.00    -0.232 N 
ATOM     16  H42 UNL     1      -4.637  10.676   8.989  1.00  0.00     0.174 HD
ATOM     17  H41 UNL     1      -4.961   9.384   8.480  1.00  0.00     0.174 HD
ENDBRANCH  13  15
ENDBRANCH   5   9
BRANCH   6  18
HETATM   18  C8  UNL     1      -1.287   8.083  12.725  1.00  0.00     0.185 C 
BRANCH  18  19
HETATM   19  O2  UNL     1      -0.374   8.546  13.731  1.00  0.00    -0.390 OA
ATOM     20  H2  UNL     1       0.020   7.798  14.165  1.00  0.00     0.210 HD
ENDBRANCH  18  19
BRANCH  18  21
HETATM   21  C9  UNL     1      -2.623   8.185  13.404  1.00  0.00     0.146 C 
HETATM   22  C10 UNL     1      -2.305   8.720  14.814  1.00  0.00     0.042 C 
BRANCH  21  23
HETATM   23  O3  UNL     1      -3.319   7.027  13.564  1.00  0.00    -0.393 OA
ATOM     24  H3  UNL     1      -3.090   6.308  12.988  1.00  0.00     0.210 HD
ENDBRANCH  21  23
ENDBRANCH  18  21
ENDBRANCH   6  18
TORSDOF 6
ENDMDL
MODEL 2
REMARK VINA RESULT: -6.679270390      5.648      6.899
REMARK  6 active torsions:
REMARK  status: ('A' for Active; 'I' for Inactive)
REMARK    1  A    between atoms: C4_5  and  N1_6 
REMARK    2  A    between atoms: C5_11  and  N4_12 
REMARK    3  A    between atoms: C6_15  and  C8_17 
REMARK    4  A    between atoms: C8_17  and  O2_18 
REMARK    5  A    between atoms: C8_17  and  C9_20 
REMARK    6  A    between atoms: C9_20  and  O3_22 
ROOT
HETATM    1  C1  UNL     1       1.523   4.392  13.925  1.00  0.00     0.017 C 
HETATM    2  C2  UNL     1       0.644   4.949  14.522  1.00  0.00    -0.057 C 
HETATM    3  C3  UNL     1      -0.428   5.647  15.256  1.00  0.00     0.345 C 
HETATM    4  O1  UNL     1      -1.587   4.886  15.318  1.00  0.00    -0.320 OA
HETATM    5  C4  UNL     1      -2.153   5.261  16.541  1.00  0.00     0.305 C 
HETATM    6  C6  UNL     1      -0.948   5.331  17.407  1.00  0.00     0.135 C 
HETATM    7  C7  UNL     1      -1.133   6.052  18.692  1.00  0.00     0.054 C 
HETATM    8  O4  UNL     1      -0.038   5.990  16.526  1.00  0.00    -0.332 OA
ENDROOT
BRANCH   5   9
HETATM    9  N1  UNL     1      -2.818   6.523  16.356  1.00  0.00    -0.075 N 
HETATM   10  N2  UNL     1      -2.728   7.767  16.778  1.00  0.00    -0.209 N 
HETATM   11  N3  UNL     1      -3.752   8.115  16.047  1.00  0.00    -0.116 N 
ATOM     12  H2  UNL     1      -2.107   8.261  17.418  1.00  0.00     0.209 HD
HETATM   13  C5  UNL     1      -3.871   6.855  15.600  1.00  0.00     0.712 A 
ATOM     14  H3  UNL     1      -4.256   8.986  15.883  1.00  0.00     0.207 HD
BRANCH  13  15
HETATM   15  N4  UNL     1      -4.684   6.241  14.770  1.00  0.00    -0.232 N 
ATOM     16  H42 UNL     1      -5.693   6.091  14.734  1.00  0.00     0.174 HD
ATOM     17  H41 UNL     1      -4.599   5.718  13.899  1.00  0.00     0.174 HD
ENDBRANCH  13  15
ENDBRANCH   5   9
BRANCH   6  18
HETATM   18  C8  UNL     1      -0.382   3.950  17.557  1.00  0.00     0.185 C 
BRANCH  18  19
HETATM   19  O2  UNL     1       0.809   4.009  18.354  1.00  0.00    -0.390 OA
ATOM     20  H2  UNL     1       0.867   4.863  18.769  1.00  0.00     0.210 HD
ENDBRANCH  18  19
BRANCH  18  21
HETATM   21  C9  UNL     1      -1.245   2.974  18.306  1.00  0.00     0.146 C 
HETATM   22  C10 UNL     1      -0.260   2.168  19.174  1.00  0.00     0.042 C 
BRANCH  21  23
HETATM   23  O3  UNL     1      -1.947   2.078  17.561  1.00  0.00    -0.393 OA
ATOM     24  H3  UNL     1      -2.434   1.415  18.035  1.00  0.00     0.210 HD
ENDBRANCH  21  23
ENDBRANCH  18  21
ENDBRANCH   6  18
TORSDOF 6
ENDMDL
MODEL 3
REMARK VINA RESULT: -6.622560156      1.890      2.498
REMARK  6 active torsions:
REMARK  status: ('A' for Active; 'I' for Inactive)
REMARK    1  A    between atoms: C4_5  and  N1_6 
REMARK    2  A    between atoms: C5_11  and  N4_12 
REMARK    3  A    between atoms: C6_15  and  C8_17 
REMARK    4  A    between atoms: C8_17  and  O2_18 
REMARK    5  A    between atoms: C8_17  and  C9_20 
REMARK    6  A    between atoms: C9_20  and  O3_22 
ROOT
HETATM    1  C1  UNL     1       1.325   5.119  13.181  1.00  0.00     0.017 C 
HETATM    2  C2  UNL     1       0.711   6.115  12.914  1.00  0.00    -0.057 C 
HETATM    3  C3  UNL     1      -0.030   7.347  12.589  1.00  0.00     0.345 C 
HETATM    4  O1  UNL     1      -1.230   7.072  11.949  1.00  0.00    -0.320 OA
HETATM    5  C4  UNL     1      -2.065   8.113  12.367  1.00  0.00     0.305 C 
HETATM    6  C6  UNL     1      -1.692   8.222  13.802  1.00  0.00     0.135 C 
HETATM    7  C7  UNL     1      -2.126   9.472  14.474  1.00  0.00     0.054 C 
HETATM    8  O4  UNL     1      -0.272   8.108  13.705  1.00  0.00    -0.332 OA
ENDROOT
BRANCH   5   9
HETATM    9  N1  UNL     1      -1.750   9.278  11.587  1.00  0.00    -0.075 N 
HETATM   10  N2  UNL     1      -1.384  10.530  11.770  1.00  0.00    -0.209 N 
HETATM   11  N3  UNL     1      -1.361  10.737  10.481  1.00  0.00    -0.116 N 
ATOM     12  H2  UNL     1      -1.194  11.106  12.590  1.00  0.00     0.209 HD
HETATM   13  C5  UNL     1      -1.735   9.467  10.263  1.00  0.00     0.712 A 
ATOM     14  H3  UNL     1      -1.146  11.536   9.885  1.00  0.00     0.207 HD
BRANCH  13  15
HETATM   15  N4  UNL     1      -1.973   8.745   9.191  1.00  0.00    -0.232 N 
ATOM     16  H42 UNL     1      -1.730   7.800   8.894  1.00  0.00     0.174 HD
ATOM     17  H41 UNL     1      -2.470   8.868   8.309  1.00  0.00     0.174 HD
ENDBRANCH  13  15
ENDBRANCH   5   9
BRANCH   6  18
HETATM   18  C8  UNL     1      -2.116   6.968  14.507  1.00  0.00     0.185 C 
BRANCH  18  19
HETATM   19  O2  UNL     1      -1.448   6.889  15.774  1.00  0.00    -0.390 OA
ATOM     20  H2  UNL     1      -1.686   6.075  16.203  1.00  0.00     0.210 HD
ENDBRANCH  18  19
BRANCH  18  21
HETATM   21  C9  UNL     1      -3.569   6.897  14.883  1.00  0.00     0.146 C 
HETATM   22  C10 UNL     1      -3.568   6.574  16.389  1.00  0.00     0.042 C 
BRANCH  21  23
HETATM   23  O3  UNL     1      -4.314   5.938  14.269  1.00  0.00    -0.393 OA
ATOM     24  H3  UNL     1      -5.204   5.824  14.580  1.00  0.00     0.210 HD
ENDBRANCH  21  23
ENDBRANCH  18  21
ENDBRANCH   6  18
TORSDOF 6
ENDMDL
MODEL 4
REMARK VINA RESULT: -6.570154830      3.700      5.137
REMARK  6 active torsions:
REMARK  status: ('A' for Active; 'I' for Inactive)
REMARK    1  A    between atoms: C4_5  and  N1_6 
REMARK    2  A    between atoms: C5_11  and  N4_12 
REMARK    3  A    between atoms: C6_15  and  C8_17 
REMARK    4  A    between atoms: C8_17  and  O2_18 
REMARK    5  A    between atoms: C8_17  and  C9_20 
REMARK    6  A    between atoms: C9_20  and  O3_22 
ROOT
HETATM    1  C1  UNL     1       1.814   5.498  11.819  1.00  0.00     0.017 C 
HETATM    2  C2  UNL     1       0.966   5.890  12.572  1.00  0.00    -0.057 C 
HETATM    3  C3  UNL     1      -0.082   6.358  13.497  1.00  0.00     0.345 C 
HETATM    4  O1  UNL     1       0.181   7.636  13.969  1.00  0.00    -0.320 OA
HETATM    5  C4  UNL     1      -1.093   8.179  14.158  1.00  0.00     0.305 C 
HETATM    6  C6  UNL     1      -1.802   7.678  12.952  1.00  0.00     0.135 C 
HETATM    7  C7  UNL     1      -3.283   7.765  13.007  1.00  0.00     0.054 C 
HETATM    8  O4  UNL     1      -1.326   6.333  12.917  1.00  0.00    -0.332 OA
ENDROOT
BRANCH   5   9
HETATM    9  N1  UNL     1      -1.614   7.673  15.399  1.00  0.00    -0.075 N 
HETATM   10  N2  UNL     1      -1.465   6.630  16.190  1.00  0.00    -0.209 N 
HETATM   11  N3  UNL     1      -2.356   7.102  17.020  1.00  0.00    -0.116 N 
ATOM     12  H2  UNL     1      -0.886   5.791  16.164  1.00  0.00     0.209 HD
HETATM   13  C5  UNL     1      -2.530   8.176  16.234  1.00  0.00     0.712 A 
ATOM     14  H3  UNL     1      -2.755   6.785  17.903  1.00  0.00     0.207 HD
BRANCH  13  15
HETATM   15  N4  UNL     1      -3.286   9.249  16.290  1.00  0.00    -0.232 N 
ATOM     16  H42 UNL     1      -4.191   9.510  15.898  1.00  0.00     0.174 HD
ATOM     17  H41 UNL     1      -3.239  10.168  16.731  1.00  0.00     0.174 HD
ENDBRANCH  13  15
ENDBRANCH   5   9
BRANCH   6  18
HETATM   18  C8  UNL     1      -1.197   8.317  11.737  1.00  0.00     0.185 C 
BRANCH  18  19
HETATM   19  O2  UNL     1      -1.478   7.508  10.587  1.00  0.00    -0.390 OA
ATOM     20  H2  UNL     1      -0.690   7.423  10.063  1.00  0.00     0.210 HD
ENDBRANCH  18  19
BRANCH  18  21
HETATM   21  C9  UNL     1      -1.764   9.656  11.359  1.00  0.00     0.146 C 
HETATM   22  C10 UNL     1      -2.189   9.499   9.887  1.00  0.00     0.042 C 
BRANCH  21  23
HETATM   23  O3  UNL     1      -0.917  10.719  11.420  1.00  0.00    -0.393 OA
ATOM     24  H3  UNL     1      -0.164  10.700  10.841  1.00  0.00     0.210 HD
ENDBRANCH  21  23
ENDBRANCH  18  21
ENDBRANCH   6  18
TORSDOF 6
ENDMDL
MODEL 5
REMARK VINA RESULT: -6.560245107      4.613      6.485
REMARK  6 active torsions:
REMARK  status: ('A' for Active; 'I' for Inactive)
REMARK    1  A    between atoms: C4_5  and  N1_6 
REMARK    2  A    between atoms: C5_11  and  N4_12 
REMARK    3  A    between atoms: C6_15  and  C8_17 
REMARK    4  A    between atoms: C8_17  and  O2_18 
REMARK    5  A    between atoms: C8_17  and  C9_20 
REMARK    6  A    between atoms: C9_20  and  O3_22 
ROOT
HETATM    1  C1  UNL     1      -0.629   4.788  19.258  1.00  0.00     0.017 C 
HETATM    2  C2  UNL     1      -1.139   5.567  18.501  1.00  0.00    -0.057 C 
HETATM    3  C3  UNL     1      -1.775   6.528  17.582  1.00  0.00     0.345 C 
HETATM    4  O1  UNL     1      -1.006   6.742  16.447  1.00  0.00    -0.320 OA
HETATM    5  C4  UNL     1      -1.958   7.000  15.456  1.00  0.00     0.305 C 
HETATM    6  C6  UNL     1      -3.001   5.996  15.790  1.00  0.00     0.135 C 
HETATM    7  C7  UNL     1      -4.325   6.226  15.158  1.00  0.00     0.054 C 
HETATM    8  O4  UNL     1      -3.034   6.125  17.211  1.00  0.00    -0.332 OA
ENDROOT
BRANCH   5   9
HETATM    9  N1  UNL     1      -2.388   8.364  15.596  1.00  0.00    -0.075 N 
HETATM   10  N2  UNL     1      -3.039   9.120  16.457  1.00  0.00    -0.209 N 
HETATM   11  N3  UNL     1      -2.904  10.162  15.681  1.00  0.00    -0.116 N 
ATOM     12  H2  UNL     1      -3.473   8.957  17.365  1.00  0.00     0.209 HD
HETATM   13  C5  UNL     1      -2.239   9.418  14.784  1.00  0.00     0.712 A 
ATOM     14  H3  UNL     1      -3.188  11.140  15.735  1.00  0.00     0.207 HD
BRANCH  13  15
HETATM   15  N4  UNL     1      -1.687   9.653  13.615  1.00  0.00    -0.232 N 
ATOM     16  H42 UNL     1      -1.277  10.474  13.168  1.00  0.00     0.174 HD
ATOM     17  H41 UNL     1      -1.478   9.119  12.772  1.00  0.00     0.174 HD
ENDBRANCH  13  15
ENDBRANCH   5   9
BRANCH   6  18
HETATM   18  C8  UNL     1      -2.442   4.624  15.556  1.00  0.00     0.185 C 
BRANCH  18  19
HETATM   19  O2  UNL     1      -3.215   3.665  16.291  1.00  0.00    -0.390 OA
ATOM     20  H2  UNL     1      -3.955   3.388  15.764  1.00  0.00     0.210 HD
ENDBRANCH  18  19
BRANCH  18  21
HETATM   21  C9  UNL     1      -2.530   4.121  14.142  1.00  0.00     0.146 C 
HETATM   22  C10 UNL     1      -2.892   2.630  14.280  1.00  0.00     0.042 C 
BRANCH  21  23
HETATM   23  O3  UNL     1      -1.395   4.190  13.396  1.00  0.00    -0.393 OA
ATOM     24  H3  UNL     1      -0.582   4.335  13.865  1.00  0.00     0.210 HD
ENDBRANCH  21  23
ENDBRANCH  18  21
ENDBRANCH   6  18
TORSDOF 6
ENDMDL
