MODEL 1
REMARK VINA RESULT: -8.394297257      0.000      0.000
REMARK  7 active torsions:
REMARK  status: ('A' for Active; 'I' for Inactive)
REMARK    1  A    between atoms: C2_2  and  C3_3 
REMARK    2  A    between atoms: C3_3  and  N1_4 
REMARK       I    between atoms: N2_7  and  C6_8 
REMARK    3  A    between atoms: C6_8  and  C7_10 
REMARK    4  A    between atoms: C7_10  and  C8_11 
REMARK    5  A    between atoms: C16_20  and  C17_21 
REMARK    6  A    between atoms: N3_24  and  C20_25 
REMARK    7  A    between atoms: C27_35  and  O5_36 
ROOT
HETATM    1  C8  UNL     1       7.085   8.730  21.973  1.00  0.00     0.000 C 
HETATM    2  C9  UNL     1       7.460  10.152  21.733  1.00  0.00     0.045 C 
HETATM    3  C10 UNL     1       7.715  10.259  20.227  1.00  0.00     0.208 C 
HETATM    4  F1  UNL     1       8.980   9.781  19.904  1.00  0.00    -0.246 F 
HETATM    5  C11 UNL     1       6.665   9.322  19.695  1.00  0.00     0.127 C 
HETATM    6  C12 UNL     1       5.324  10.027  19.663  1.00  0.00     0.047 C 
HETATM    7  C13 UNL     1       4.872  10.301  18.255  1.00  0.00     0.045 C 
HETATM    8  C14 UNL     1       6.017  10.498  17.280  1.00  0.00     0.101 A 
HETATM    9  C15 UNL     1       5.978  11.833  16.541  1.00  0.00     0.050 A 
HETATM   10  C16 UNL     1       5.714  10.562  15.825  1.00  0.00     0.030 A 
HETATM   11  O3  UNL     1       7.224  10.015  17.728  1.00  0.00    -0.228 OA
HETATM   12  O4  UNL     1       7.003   8.894  18.396  1.00  0.00    -0.226 OA
HETATM   13  C25 UNL     1       6.676   8.155  20.619  1.00  0.00     0.049 C 
ENDROOT
BRANCH   1  14
HETATM   14  C7  UNL     1       8.169   7.862  22.532  1.00  0.00     0.108 C 
BRANCH  14  15
HETATM   15  C6  UNL     1       9.368   8.567  22.992  1.00  0.00     0.220 C 
HETATM   16  N2  UNL     1       9.750   8.772  24.344  1.00  0.00    -0.346 N 
HETATM   17  C5  UNL     1      10.976   9.510  24.658  1.00  0.00     0.156 C 
HETATM   18  C26 UNL     1       8.995   8.297  25.470  1.00  0.00     0.190 C 
HETATM   19  C4  UNL     1      11.079   9.581  26.145  1.00  0.00     0.295 C 
HETATM   20  N1  UNL     1      11.111   8.263  26.763  1.00  0.00     0.120 N 
HETATM   21  C27 UNL     1       9.852   7.587  26.514  1.00  0.00     0.374 C 
HETATM   22  O1  UNL     1      10.136   9.037  22.084  1.00  0.00    -0.273 OA
BRANCH  20  23
HETATM   23  C3  UNL     1      12.220   7.541  26.155  1.00  0.00     0.275 C 
BRANCH  23  24
HETATM   24  C2  UNL     1      13.458   7.519  26.999  1.00  0.00     0.026 C 
HETATM   25  C1  UNL     1      14.629   7.847  26.078  1.00  0.00     0.007 C 
ENDBRANCH  23  24
ENDBRANCH  20  23
BRANCH  21  26
HETATM   26  O5  UNL     1       9.105   7.641  27.716  1.00  0.00    -0.366 OA
ATOM     27  H5  UNL     1       8.462   6.943  27.677  1.00  0.00     0.212 HD
ENDBRANCH  21  26
ENDBRANCH  14  15
ENDBRANCH   1  14
BRANCH  10  28
HETATM   28  C17 UNL     1       6.700  10.015  14.833  1.00  0.00    -0.004 C 
HETATM   29  C18 UNL     1       7.774  10.941  14.405  1.00  0.00     0.035 C 
HETATM   30  C19 UNL     1       7.438  11.852  13.251  1.00  0.00     0.273 C 
HETATM   31  N3  UNL     1       6.526  11.357  12.308  1.00  0.00     0.097 N 
HETATM   32  C23 UNL     1       6.513   9.913  12.323  1.00  0.00     0.273 C 
HETATM   33  C24 UNL     1       6.052   9.368  13.653  1.00  0.00     0.035 C 
BRANCH  31  34
HETATM   34  C20 UNL     1       5.230  11.861  12.243  1.00  0.00     0.270 C 
HETATM   35  C21 UNL     1       4.956  13.309  12.372  1.00  0.00     0.205 C 
HETATM   36  O2  UNL     1       5.110  13.512  10.989  1.00  0.00    -0.387 OA
HETATM   37  C22 UNL     1       4.803  12.162  10.821  1.00  0.00     0.205 C 
ENDBRANCH  31  34
ENDBRANCH  10  28
TORSDOF 7
ENDMDL
MODEL 2
REMARK VINA RESULT: -8.280123635      3.564      4.460
REMARK  7 active torsions:
REMARK  status: ('A' for Active; 'I' for Inactive)
REMARK    1  A    between atoms: C2_2  and  C3_3 
REMARK    2  A    between atoms: C3_3  and  N1_4 
REMARK       I    between atoms: N2_7  and  C6_8 
REMARK    3  A    between atoms: C6_8  and  C7_10 
REMARK    4  A    between atoms: C7_10  and  C8_11 
REMARK    5  A    between atoms: C16_20  and  C17_21 
REMARK    6  A    between atoms: N3_24  and  C20_25 
REMARK    7  A    between atoms: C27_35  and  O5_36 
ROOT
HETATM    1  C8  UNL     1       8.022   7.052  21.816  1.00  0.00     0.000 C 
HETATM    2  C9  UNL     1       6.745   6.294  21.700  1.00  0.00     0.045 C 
HETATM    3  C10 UNL     1       6.248   6.547  20.274  1.00  0.00     0.208 C 
HETATM    4  F1  UNL     1       5.622   7.785  20.180  1.00  0.00    -0.246 F 
HETATM    5  C11 UNL     1       7.551   6.575  19.521  1.00  0.00     0.127 C 
HETATM    6  C12 UNL     1       8.018   5.157  19.260  1.00  0.00     0.047 C 
HETATM    7  C13 UNL     1       7.925   4.800  17.802  1.00  0.00     0.045 C 
HETATM    8  C14 UNL     1       6.820   5.533  17.069  1.00  0.00     0.101 A 
HETATM    9  C15 UNL     1       5.815   4.611  16.382  1.00  0.00     0.050 A 
HETATM   10  C16 UNL     1       6.757   5.434  15.586  1.00  0.00     0.030 A 
HETATM   11  O3  UNL     1       6.363   6.655  17.721  1.00  0.00    -0.228 OA
HETATM   12  O4  UNL     1       7.393   7.252  18.296  1.00  0.00    -0.226 OA
HETATM   13  C25 UNL     1       8.489   7.337  20.391  1.00  0.00     0.049 C 
ENDROOT
BRANCH   1  14
HETATM   14  C7  UNL     1       7.935   8.359  22.540  1.00  0.00     0.108 C 
BRANCH  14  15
HETATM   15  C6  UNL     1       9.214   8.928  22.972  1.00  0.00     0.220 C 
HETATM   16  N2  UNL     1       9.663   9.051  24.314  1.00  0.00    -0.346 N 
HETATM   17  C5  UNL     1      10.967   9.655  24.600  1.00  0.00     0.156 C 
HETATM   18  C26 UNL     1       8.907   8.617  25.454  1.00  0.00     0.190 C 
HETATM   19  C4  UNL     1      11.130   9.667  26.084  1.00  0.00     0.295 C 
HETATM   20  N1  UNL     1      11.054   8.334  26.662  1.00  0.00     0.120 N 
HETATM   21  C27 UNL     1       9.727   7.792  26.443  1.00  0.00     0.374 C 
HETATM   22  O1  UNL     1       9.991   9.350  22.049  1.00  0.00    -0.273 OA
BRANCH  20  23
HETATM   23  C3  UNL     1      12.063   7.526  25.990  1.00  0.00     0.275 C 
BRANCH  23  24
HETATM   24  C2  UNL     1      13.318   7.346  26.789  1.00  0.00     0.026 C 
HETATM   25  C1  UNL     1      14.470   7.850  25.926  1.00  0.00     0.007 C 
ENDBRANCH  23  24
ENDBRANCH  20  23
BRANCH  21  26
HETATM   26  O5  UNL     1       9.032   7.880  27.675  1.00  0.00    -0.366 OA
ATOM     27  H5  UNL     1       8.261   7.332  27.601  1.00  0.00     0.212 HD
ENDBRANCH  21  26
ENDBRANCH  14  15
ENDBRANCH   1  14
BRANCH  10  28
HETATM   28  C17 UNL     1       6.270   6.604  14.780  1.00  0.00    -0.004 C 
HETATM   29  C18 UNL     1       4.806   6.685  14.571  1.00  0.00     0.035 C 
HETATM   30  C19 UNL     1       4.265   5.917  13.391  1.00  0.00     0.273 C 
HETATM   31  N3  UNL     1       5.121   5.777  12.290  1.00  0.00     0.097 N 
HETATM   32  C23 UNL     1       6.108   6.831  12.277  1.00  0.00     0.273 C 
HETATM   33  C24 UNL     1       7.003   6.779  13.491  1.00  0.00     0.035 C 
BRANCH  31  34
HETATM   34  C20 UNL     1       5.708   4.548  11.999  1.00  0.00     0.270 C 
HETATM   35  C21 UNL     1       5.054   3.274  12.365  1.00  0.00     0.205 C 
HETATM   36  O2  UNL     1       4.347   3.229  11.151  1.00  0.00    -0.387 OA
HETATM   37  C22 UNL     1       5.339   4.051  10.617  1.00  0.00     0.205 C 
ENDBRANCH  31  34
ENDBRANCH  10  28
TORSDOF 7
ENDMDL
MODEL 3
REMARK VINA RESULT: -7.986881052      5.480      6.630
REMARK  7 active torsions:
REMARK  status: ('A' for Active; 'I' for Inactive)
REMARK    1  A    between atoms: C2_2  and  C3_3 
REMARK    2  A    between atoms: C3_3  and  N1_4 
REMARK       I    between atoms: N2_7  and  C6_8 
REMARK    3  A    between atoms: C6_8  and  C7_10 
REMARK    4  A    between atoms: C7_10  and  C8_11 
REMARK    5  A    between atoms: C16_20  and  C17_21 
REMARK    6  A    between atoms: N3_24  and  C20_25 
REMARK    7  A    between atoms: C27_35  and  O5_36 
ROOT
HETATM    1  C8  UNL     1       8.236   5.139  19.739  1.00  0.00     0.000 C 
HETATM    2  C9  UNL     1       8.016   3.702  20.067  1.00  0.00     0.045 C 
HETATM    3  C10 UNL     1       7.032   3.190  19.011  1.00  0.00     0.208 C 
HETATM    4  F1  UNL     1       5.728   3.552  19.332  1.00  0.00    -0.246 F 
HETATM    5  C11 UNL     1       7.491   3.956  17.801  1.00  0.00     0.127 C 
HETATM    6  C12 UNL     1       8.708   3.279  17.202  1.00  0.00     0.047 C 
HETATM    7  C13 UNL     1       8.393   2.638  15.878  1.00  0.00     0.045 C 
HETATM    8  C14 UNL     1       6.955   2.175  15.757  1.00  0.00     0.101 A 
HETATM    9  C15 UNL     1       6.807   0.690  15.436  1.00  0.00     0.050 A 
HETATM   10  C16 UNL     1       6.459   1.722  14.430  1.00  0.00     0.030 A 
HETATM   11  O3  UNL     1       6.102   2.752  16.669  1.00  0.00    -0.228 OA
HETATM   12  O4  UNL     1       6.463   4.013  16.839  1.00  0.00    -0.226 OA
HETATM   13  C25 UNL     1       7.784   5.329  18.294  1.00  0.00     0.049 C 
ENDROOT
BRANCH   1  14
HETATM   14  C7  UNL     1       7.486   6.117  20.588  1.00  0.00     0.108 C 
BRANCH  14  15
HETATM   15  C6  UNL     1       8.193   7.365  20.889  1.00  0.00     0.220 C 
HETATM   16  N2  UNL     1       8.057   8.138  22.072  1.00  0.00    -0.346 N 
HETATM   17  C5  UNL     1       8.823   9.377  22.233  1.00  0.00     0.156 C 
HETATM   18  C26 UNL     1       7.191   7.788  23.162  1.00  0.00     0.190 C 
HETATM   19  C4  UNL     1       8.439   9.964  23.550  1.00  0.00     0.295 C 
HETATM   20  N1  UNL     1       8.704   9.060  24.659  1.00  0.00     0.120 N 
HETATM   21  C27 UNL     1       7.870   7.882  24.526  1.00  0.00     0.374 C 
HETATM   22  O1  UNL     1       9.006   7.788  19.997  1.00  0.00    -0.273 OA
BRANCH  20  23
HETATM   23  C3  UNL     1      10.116   8.711  24.587  1.00  0.00     0.275 C 
BRANCH  23  24
HETATM   24  C2  UNL     1      10.891   9.083  25.815  1.00  0.00     0.026 C 
HETATM   25  C1  UNL     1      10.847   7.877  26.749  1.00  0.00     0.007 C 
ENDBRANCH  23  24
ENDBRANCH  20  23
BRANCH  21  26
HETATM   26  O5  UNL     1       6.817   8.007  25.465  1.00  0.00    -0.366 OA
ATOM     27  H5  UNL     1       6.969   8.810  25.950  1.00  0.00     0.212 HD
ENDBRANCH  21  26
ENDBRANCH  14  15
ENDBRANCH   1  14
BRANCH  10  28
HETATM   28  C17 UNL     1       5.029   1.972  14.042  1.00  0.00    -0.004 C 
HETATM   29  C18 UNL     1       4.490   1.115  12.962  1.00  0.00     0.035 C 
HETATM   30  C19 UNL     1       4.735   1.597  11.553  1.00  0.00     0.273 C 
HETATM   31  N3  UNL     1       4.812   2.984  11.371  1.00  0.00     0.097 N 
HETATM   32  C23 UNL     1       4.113   3.675  12.429  1.00  0.00     0.273 C 
HETATM   33  C24 UNL     1       4.733   3.412  13.779  1.00  0.00     0.035 C 
BRANCH  31  34
HETATM   34  C20 UNL     1       6.033   3.597  11.104  1.00  0.00     0.270 C 
HETATM   35  C21 UNL     1       6.494   3.833   9.720  1.00  0.00     0.205 C 
HETATM   36  O2  UNL     1       5.850   5.082   9.664  1.00  0.00    -0.387 OA
HETATM   37  C22 UNL     1       5.918   5.107  11.057  1.00  0.00     0.205 C 
ENDBRANCH  31  34
ENDBRANCH  10  28
TORSDOF 7
ENDMDL
MODEL 4
REMARK VINA RESULT: -7.862513575      5.584      8.025
REMARK  7 active torsions:
REMARK  status: ('A' for Active; 'I' for Inactive)
REMARK    1  A    between atoms: C2_2  and  C3_3 
REMARK    2  A    between atoms: C3_3  and  N1_4 
REMARK       I    between atoms: N2_7  and  C6_8 
REMARK    3  A    between atoms: C6_8  and  C7_10 
REMARK    4  A    between atoms: C7_10  and  C8_11 
REMARK    5  A    between atoms: C16_20  and  C17_21 
REMARK    6  A    between atoms: N3_24  and  C20_25 
REMARK    7  A    between atoms: C27_35  and  O5_36 
ROOT
HETATM    1  C8  UNL     1       7.132   8.288  21.823  1.00  0.00     0.000 C 
HETATM    2  C9  UNL     1       6.447   7.382  20.859  1.00  0.00     0.045 C 
HETATM    3  C10 UNL     1       5.069   7.107  21.468  1.00  0.00     0.208 C 
HETATM    4  F1  UNL     1       5.150   6.133  22.458  1.00  0.00    -0.246 F 
HETATM    5  C11 UNL     1       4.762   8.442  22.089  1.00  0.00     0.127 C 
HETATM    6  C12 UNL     1       4.259   9.395  21.023  1.00  0.00     0.047 C 
HETATM    7  C13 UNL     1       2.797   9.702  21.194  1.00  0.00     0.045 C 
HETATM    8  C14 UNL     1       2.014   8.574  21.836  1.00  0.00     0.101 A 
HETATM    9  C15 UNL     1       0.837   8.082  20.996  1.00  0.00     0.050 A 
HETATM   10  C16 UNL     1       0.610   8.828  22.257  1.00  0.00     0.030 A 
HETATM   11  O3  UNL     1       2.793   7.656  22.499  1.00  0.00    -0.228 OA
HETATM   12  O4  UNL     1       3.784   8.301  23.093  1.00  0.00    -0.226 OA
HETATM   13  C25 UNL     1       6.041   8.892  22.703  1.00  0.00     0.049 C 
ENDROOT
BRANCH   1  14
HETATM   14  C7  UNL     1       8.137   7.636  22.721  1.00  0.00     0.108 C 
BRANCH  14  15
HETATM   15  C6  UNL     1       9.272   8.475  23.113  1.00  0.00     0.220 C 
HETATM   16  N2  UNL     1       9.722   8.705  24.440  1.00  0.00    -0.346 N 
HETATM   17  C5  UNL     1      10.870   9.583  24.685  1.00  0.00     0.156 C 
HETATM   18  C26 UNL     1       9.113   8.128  25.604  1.00  0.00     0.190 C 
HETATM   19  C4  UNL     1      11.069   9.645  26.162  1.00  0.00     0.295 C 
HETATM   20  N1  UNL     1      11.304   8.333  26.747  1.00  0.00     0.120 N 
HETATM   21  C27 UNL     1      10.121   7.512  26.570  1.00  0.00     0.374 C 
HETATM   22  O1  UNL     1       9.911   9.047  22.165  1.00  0.00    -0.273 OA
BRANCH  20  23
HETATM   23  C3  UNL     1      12.446   7.759  26.047  1.00  0.00     0.275 C 
BRANCH  23  24
HETATM   24  C2  UNL     1      13.661   7.602  26.909  1.00  0.00     0.026 C 
HETATM   25  C1  UNL     1      14.874   7.815  26.008  1.00  0.00     0.007 C 
ENDBRANCH  23  24
ENDBRANCH  20  23
BRANCH  21  26
HETATM   26  O5  UNL     1       9.461   7.458  27.822  1.00  0.00    -0.366 OA
ATOM     27  H5  UNL     1       8.876   6.710  27.798  1.00  0.00     0.212 HD
ENDBRANCH  21  26
ENDBRANCH  14  15
ENDBRANCH   1  14
BRANCH  10  28
HETATM   28  C17 UNL     1       0.059   8.139  23.473  1.00  0.00    -0.004 C 
HETATM   29  C18 UNL     1      -1.402   8.260  23.683  1.00  0.00     0.035 C 
HETATM   30  C19 UNL     1      -1.862   9.487  24.429  1.00  0.00     0.273 C 
HETATM   31  N3  UNL     1      -0.976  10.011  25.379  1.00  0.00     0.097 N 
HETATM   32  C23 UNL     1      -0.064   8.990  25.840  1.00  0.00     0.273 C 
HETATM   33  C24 UNL     1       0.806   8.467  24.725  1.00  0.00     0.035 C 
BRANCH  31  34
HETATM   34  C20 UNL     1      -0.299  11.203  25.136  1.00  0.00     0.270 C 
HETATM   35  C21 UNL     1      -0.541  11.993  23.910  1.00  0.00     0.205 C 
HETATM   36  O2  UNL     1      -1.590  12.707  24.516  1.00  0.00    -0.387 OA
HETATM   37  C22 UNL     1      -1.005  12.397  25.744  1.00  0.00     0.205 C 
ENDBRANCH  31  34
ENDBRANCH  10  28
TORSDOF 7
ENDMDL
MODEL 5
REMARK VINA RESULT: -7.849295804      6.803      8.122
REMARK  7 active torsions:
REMARK  status: ('A' for Active; 'I' for Inactive)
REMARK    1  A    between atoms: C2_2  and  C3_3 
REMARK    2  A    between atoms: C3_3  and  N1_4 
REMARK       I    between atoms: N2_7  and  C6_8 
REMARK    3  A    between atoms: C6_8  and  C7_10 
REMARK    4  A    between atoms: C7_10  and  C8_11 
REMARK    5  A    between atoms: C16_20  and  C17_21 
REMARK    6  A    between atoms: N3_24  and  C20_25 
REMARK    7  A    between atoms: C27_35  and  O5_36 
ROOT
HETATM    1  C8  UNL     1       8.224   5.241  19.513  1.00  0.00     0.000 C 
HETATM    2  C9  UNL     1       8.216   3.804  19.908  1.00  0.00     0.045 C 
HETATM    3  C10 UNL     1       7.180   3.137  18.998  1.00  0.00     0.208 C 
HETATM    4  F1  UNL     1       5.891   3.363  19.467  1.00  0.00    -0.246 F 
HETATM    5  C11 UNL     1       7.397   3.897  17.717  1.00  0.00     0.127 C 
HETATM    6  C12 UNL     1       8.605   3.338  16.993  1.00  0.00     0.047 C 
HETATM    7  C13 UNL     1       8.213   2.607  15.738  1.00  0.00     0.045 C 
HETATM    8  C14 UNL     1       6.835   1.980  15.810  1.00  0.00     0.101 A 
HETATM    9  C15 UNL     1       6.826   0.475  15.553  1.00  0.00     0.050 A 
HETATM   10  C16 UNL     1       6.241   1.415  14.568  1.00  0.00     0.030 A 
HETATM   11  O3  UNL     1       6.035   2.494  16.803  1.00  0.00    -0.228 OA
HETATM   12  O4  UNL     1       6.262   3.795  16.890  1.00  0.00    -0.226 OA
HETATM   13  C25 UNL     1       7.582   5.315  18.130  1.00  0.00     0.049 C 
ENDROOT
BRANCH   1  14
HETATM   14  C7  UNL     1       7.470   6.164  20.419  1.00  0.00     0.108 C 
BRANCH  14  15
HETATM   15  C6  UNL     1       8.152   7.416  20.753  1.00  0.00     0.220 C 
HETATM   16  N2  UNL     1       8.006   8.151  21.961  1.00  0.00    -0.346 N 
HETATM   17  C5  UNL     1       8.746   9.401  22.154  1.00  0.00     0.156 C 
HETATM   18  C26 UNL     1       7.154   7.750  23.044  1.00  0.00     0.190 C 
HETATM   19  C4  UNL     1       8.357   9.940  23.490  1.00  0.00     0.295 C 
HETATM   20  N1  UNL     1       8.647   9.009  24.571  1.00  0.00     0.120 N 
HETATM   21  C27 UNL     1       7.838   7.817  24.406  1.00  0.00     0.374 C 
HETATM   22  O1  UNL     1       8.951   7.884  19.871  1.00  0.00    -0.273 OA
BRANCH  20  23
HETATM   23  C3  UNL     1      10.067   8.693  24.481  1.00  0.00     0.275 C 
BRANCH  23  24
HETATM   24  C2  UNL     1      10.853   9.113  25.685  1.00  0.00     0.026 C 
HETATM   25  C1  UNL     1      10.689   8.012  26.729  1.00  0.00     0.007 C 
ENDBRANCH  23  24
ENDBRANCH  20  23
BRANCH  21  26
HETATM   26  O5  UNL     1       6.788   7.893  25.353  1.00  0.00    -0.366 OA
ATOM     27  H5  UNL     1       6.451   7.012  25.467  1.00  0.00     0.212 HD
ENDBRANCH  21  26
ENDBRANCH  14  15
ENDBRANCH   1  14
BRANCH  10  28
HETATM   28  C17 UNL     1       4.755   1.483  14.353  1.00  0.00    -0.004 C 
HETATM   29  C18 UNL     1       3.984   0.285  14.756  1.00  0.00     0.035 C 
HETATM   30  C19 UNL     1       3.871  -0.805  13.720  1.00  0.00     0.273 C 
HETATM   31  N3  UNL     1       3.877  -0.397  12.379  1.00  0.00     0.097 N 
HETATM   32  C23 UNL     1       3.444   0.975  12.264  1.00  0.00     0.273 C 
HETATM   33  C24 UNL     1       4.378   1.922  12.976  1.00  0.00     0.035 C 
BRANCH  31  34
HETATM   34  C20 UNL     1       4.986  -0.634  11.571  1.00  0.00     0.270 C 
HETATM   35  C21 UNL     1       6.104  -1.489  12.023  1.00  0.00     0.205 C 
HETATM   36  O2  UNL     1       5.486  -2.649  11.523  1.00  0.00    -0.387 OA
HETATM   37  C22 UNL     1       4.781  -1.820  10.651  1.00  0.00     0.205 C 
ENDBRANCH  31  34
ENDBRANCH  10  28
TORSDOF 7
ENDMDL
