MODEL 1
REMARK VINA RESULT: -5.474445599      0.000      0.000
REMARK  2 active torsions:
REMARK  status: ('A' for Active; 'I' for Inactive)
REMARK    1  A    between atoms: N1_1  and  C1_4 
REMARK    2  A    between atoms: C5_13  and  C6_14 
ROOT
HETATM    1  C1  UNL     1     -33.476   9.508 -41.965  1.00  0.00     0.703 A 
HETATM    2  N2  UNL     1     -32.695  10.589 -41.798  1.00  0.00    -0.140 N 
ATOM      3  H2  UNL     1     -32.410  10.857 -40.857  1.00  0.00     0.189 HD
HETATM    4  C2  UNL     1     -32.275  11.333 -42.857  1.00  0.00     0.340 A 
HETATM    5  O1  UNL     1     -31.551  12.336 -42.703  1.00  0.00    -0.246 OA
HETATM    6  N3  UNL     1     -32.635  11.001 -44.102  1.00  0.00    -0.292 N 
ATOM      7  H3  UNL     1     -32.327  11.553 -44.903  1.00  0.00     0.172 HD
HETATM    8  C3  UNL     1     -33.417   9.918 -44.266  1.00  0.00     0.151 A 
HETATM    9  C4  UNL     1     -33.967   9.299 -45.370  1.00  0.00     0.085 A 
HETATM   10  C5  UNL     1     -34.703   8.199 -44.962  1.00  0.00     0.090 A 
HETATM   11  N4  UNL     1     -34.588   8.172 -43.631  1.00  0.00    -0.275 N 
ATOM     12  H4  UNL     1     -35.020   7.475 -43.024  1.00  0.00     0.188 HD
HETATM   13  N5  UNL     1     -33.840   9.171 -43.213  1.00  0.00    -0.069 N 
ENDROOT
BRANCH   1  14
HETATM   14  N1  UNL     1     -33.851   8.828 -40.924  1.00  0.00    -0.233 N 
ATOM     15  H12 UNL     1     -33.239   8.156 -40.460  1.00  0.00     0.174 HD
ATOM     16  H11 UNL     1     -34.790   8.964 -40.552  1.00  0.00     0.174 HD
ENDBRANCH   1  14
BRANCH  10  17
HETATM   17  C6  UNL     1     -35.432   7.294 -45.839  1.00  0.00     0.289 C 
HETATM   18  O2  UNL     1     -36.659   7.454 -46.032  1.00  0.00    -0.300 OA
ENDBRANCH  10  17
TORSDOF 2
ENDMDL
MODEL 2
REMARK VINA RESULT: -5.242761215      2.048      2.699
REMARK  2 active torsions:
REMARK  status: ('A' for Active; 'I' for Inactive)
REMARK    1  A    between atoms: N1_1  and  C1_4 
REMARK    2  A    between atoms: C5_13  and  C6_14 
ROOT
HETATM    1  C1  UNL     1     -32.760   9.577 -41.759  1.00  0.00     0.703 A 
HETATM    2  N2  UNL     1     -33.053   9.835 -40.472  1.00  0.00    -0.140 N 
ATOM      3  H2  UNL     1     -32.298  10.053 -39.823  1.00  0.00     0.189 HD
HETATM    4  C2  UNL     1     -34.335   9.813 -40.017  1.00  0.00     0.340 A 
HETATM    5  O1  UNL     1     -34.608  10.052 -38.824  1.00  0.00    -0.246 OA
HETATM    6  N3  UNL     1     -35.343   9.530 -40.850  1.00  0.00    -0.292 N 
ATOM      7  H3  UNL     1     -36.308   9.509 -40.519  1.00  0.00     0.172 HD
HETATM    8  C3  UNL     1     -35.047   9.272 -42.137  1.00  0.00     0.151 A 
HETATM    9  C4  UNL     1     -35.806   8.952 -43.244  1.00  0.00     0.085 A 
HETATM   10  C5  UNL     1     -34.976   8.788 -44.340  1.00  0.00     0.090 A 
HETATM   11  N4  UNL     1     -33.740   9.009 -43.883  1.00  0.00    -0.275 N 
ATOM     12  H4  UNL     1     -32.893   8.964 -44.450  1.00  0.00     0.188 HD
HETATM   13  N5  UNL     1     -33.769   9.292 -42.598  1.00  0.00    -0.069 N 
ENDROOT
BRANCH   1  14
HETATM   14  N1  UNL     1     -31.521   9.610 -42.147  1.00  0.00    -0.233 N 
ATOM     15  H12 UNL     1     -30.820  10.193 -41.689  1.00  0.00     0.174 HD
ATOM     16  H11 UNL     1     -31.231   9.037 -42.939  1.00  0.00     0.174 HD
ENDBRANCH   1  14
BRANCH  10  17
HETATM   17  C6  UNL     1     -35.408   8.445 -45.688  1.00  0.00     0.289 C 
HETATM   18  O2  UNL     1     -36.274   7.559 -45.867  1.00  0.00    -0.300 OA
ENDBRANCH  10  17
TORSDOF 2
ENDMDL
MODEL 3
REMARK VINA RESULT: -5.202115328      2.996      3.807
REMARK  2 active torsions:
REMARK  status: ('A' for Active; 'I' for Inactive)
REMARK    1  A    between atoms: N1_1  and  C1_4 
REMARK    2  A    between atoms: C5_13  and  C6_14 
ROOT
HETATM    1  C1  UNL     1     -33.410   9.568 -41.746  1.00  0.00     0.703 A 
HETATM    2  N2  UNL     1     -32.378  10.256 -42.263  1.00  0.00    -0.140 N 
ATOM      3  H2  UNL     1     -31.541   9.754 -42.556  1.00  0.00     0.189 HD
HETATM    4  C2  UNL     1     -32.423  11.608 -42.402  1.00  0.00     0.340 A 
HETATM    5  O1  UNL     1     -31.466  12.248 -42.881  1.00  0.00    -0.246 OA
HETATM    6  N3  UNL     1     -33.510  12.291 -42.024  1.00  0.00    -0.292 N 
ATOM      7  H3  UNL     1     -33.555  13.306 -42.123  1.00  0.00     0.172 HD
HETATM    8  C3  UNL     1     -34.543  11.600 -41.508  1.00  0.00     0.151 A 
HETATM    9  C4  UNL     1     -35.785  11.960 -41.026  1.00  0.00     0.085 A 
HETATM   10  C5  UNL     1     -36.463  10.828 -40.607  1.00  0.00     0.090 A 
HETATM   11  N4  UNL     1     -35.628   9.810 -40.840  1.00  0.00    -0.275 N 
ATOM     12  H4  UNL     1     -35.833   8.832 -40.638  1.00  0.00     0.188 HD
HETATM   13  N5  UNL     1     -34.503  10.249 -41.365  1.00  0.00    -0.069 N 
ENDROOT
BRANCH   1  14
HETATM   14  N1  UNL     1     -33.321   8.277 -41.633  1.00  0.00    -0.233 N 
ATOM     15  H12 UNL     1     -34.143   7.672 -41.619  1.00  0.00     0.174 HD
ATOM     16  H11 UNL     1     -32.401   7.846 -41.553  1.00  0.00     0.174 HD
ENDBRANCH   1  14
BRANCH  10  17
HETATM   17  C6  UNL     1     -37.803  10.802 -40.038  1.00  0.00     0.289 C 
HETATM   18  O2  UNL     1     -38.628   9.935 -40.406  1.00  0.00    -0.300 OA
ENDBRANCH  10  17
TORSDOF 2
ENDMDL
MODEL 4
REMARK VINA RESULT: -5.198999169      2.166      2.806
REMARK  2 active torsions:
REMARK  status: ('A' for Active; 'I' for Inactive)
REMARK    1  A    between atoms: N1_1  and  C1_4 
REMARK    2  A    between atoms: C5_13  and  C6_14 
ROOT
HETATM    1  C1  UNL     1     -32.694   9.807 -41.954  1.00  0.00     0.703 A 
HETATM    2  N2  UNL     1     -33.169   9.758 -40.698  1.00  0.00    -0.140 N 
ATOM      3  H2  UNL     1     -32.566  10.038 -39.925  1.00  0.00     0.189 HD
HETATM    4  C2  UNL     1     -34.438   9.344 -40.433  1.00  0.00     0.340 A 
HETATM    5  O1  UNL     1     -34.880   9.297 -39.268  1.00  0.00    -0.246 OA
HETATM    6  N3  UNL     1     -35.249   8.971 -41.430  1.00  0.00    -0.292 N 
ATOM      7  H3  UNL     1     -36.202   8.657 -41.242  1.00  0.00     0.172 HD
HETATM    8  C3  UNL     1     -34.771   9.021 -42.686  1.00  0.00     0.151 A 
HETATM    9  C4  UNL     1     -35.307   8.721 -43.923  1.00  0.00     0.085 A 
HETATM   10  C5  UNL     1     -34.360   8.958 -44.905  1.00  0.00     0.090 A 
HETATM   11  N4  UNL     1     -33.277   9.393 -44.253  1.00  0.00    -0.275 N 
ATOM     12  H4  UNL     1     -32.398   9.656 -44.698  1.00  0.00     0.188 HD
HETATM   13  N5  UNL     1     -33.505   9.433 -42.957  1.00  0.00    -0.069 N 
ENDROOT
BRANCH   1  14
HETATM   14  N1  UNL     1     -31.476  10.210 -42.158  1.00  0.00    -0.233 N 
ATOM     15  H12 UNL     1     -31.135  11.110 -41.820  1.00  0.00     0.174 HD
ATOM     16  H11 UNL     1     -30.833   9.611 -42.674  1.00  0.00     0.174 HD
ENDBRANCH   1  14
BRANCH  10  17
HETATM   17  C6  UNL     1     -34.552   8.760 -46.334  1.00  0.00     0.289 C 
HETATM   18  O2  UNL     1     -33.893   7.888 -46.944  1.00  0.00    -0.300 OA
ENDBRANCH  10  17
TORSDOF 2
ENDMDL
MODEL 5
REMARK VINA RESULT: -5.142157090      3.278      5.002
REMARK  2 active torsions:
REMARK  status: ('A' for Active; 'I' for Inactive)
REMARK    1  A    between atoms: N1_1  and  C1_4 
REMARK    2  A    between atoms: C5_13  and  C6_14 
ROOT
HETATM    1  C1  UNL     1     -35.270  10.648 -39.473  1.00  0.00     0.703 A 
HETATM    2  N2  UNL     1     -36.589  10.401 -39.404  1.00  0.00    -0.140 N 
ATOM      3  H2  UNL     1     -37.016  10.218 -38.496  1.00  0.00     0.189 HD
HETATM    4  C2  UNL     1     -37.369  10.388 -40.518  1.00  0.00     0.340 A 
HETATM    5  O1  UNL     1     -38.593  10.157 -40.456  1.00  0.00    -0.246 OA
HETATM    6  N3  UNL     1     -36.834  10.623 -41.721  1.00  0.00    -0.292 N 
ATOM      7  H3  UNL     1     -37.409  10.615 -42.564  1.00  0.00     0.172 HD
HETATM    8  C3  UNL     1     -35.513  10.871 -41.788  1.00  0.00     0.151 A 
HETATM    9  C4  UNL     1     -34.646  11.148 -42.825  1.00  0.00     0.085 A 
HETATM   10  C5  UNL     1     -33.367  11.322 -42.323  1.00  0.00     0.090 A 
HETATM   11  N4  UNL     1     -33.480  11.150 -41.003  1.00  0.00    -0.275 N 
ATOM     12  H4  UNL     1     -32.707  11.214 -40.340  1.00  0.00     0.188 HD
HETATM   13  N5  UNL     1     -34.728  10.886 -40.678  1.00  0.00    -0.069 N 
ENDROOT
BRANCH   1  14
HETATM   14  N1  UNL     1     -34.566  10.651 -38.382  1.00  0.00    -0.233 N 
ATOM     15  H12 UNL     1     -34.820  11.213 -37.569  1.00  0.00     0.174 HD
ATOM     16  H11 UNL     1     -33.727  10.074 -38.328  1.00  0.00     0.174 HD
ENDBRANCH   1  14
BRANCH  10  17
HETATM   17  C6  UNL     1     -32.181  11.628 -43.110  1.00  0.00     0.289 C 
HETATM   18  O2  UNL     1     -31.478  12.625 -42.829  1.00  0.00    -0.300 OA
ENDBRANCH  10  17
TORSDOF 2
ENDMDL
