MODEL 1
REMARK VINA RESULT: -6.457706326      0.000      0.000
REMARK  3 active torsions:
REMARK  status: ('A' for Active; 'I' for Inactive)
REMARK    1  A    between atoms: C5_8  and  N3_9 
REMARK    2  A    between atoms: N3_9  and  N4_11 
REMARK    3  A    between atoms: N4_11  and  O1_13 
ROOT
HETATM    1  N1  UNL     1     -39.860  22.383  18.752  1.00  0.00    -0.190 NA
HETATM    2  C1  UNL     1     -39.494  21.917  17.760  1.00  0.00     0.119 C 
HETATM    3  C2  UNL     1     -39.022  21.314  16.527  1.00  0.00     0.130 A 
HETATM    4  C3  UNL     1     -39.832  21.312  15.420  1.00  0.00     0.076 A 
HETATM    5  C4  UNL     1     -39.361  20.734  14.264  1.00  0.00     0.098 A 
HETATM    6  N2  UNL     1     -39.873  20.561  13.027  1.00  0.00    -0.186 N 
ATOM      7  H2  UNL     1     -40.797  20.867  12.722  1.00  0.00     0.184 HD
HETATM    8  C5  UNL     1     -38.971  19.919  12.258  1.00  0.00     0.700 A 
HETATM    9  N5  UNL     1     -37.864  19.663  12.970  1.00  0.00    -0.172 N 
ATOM     10  H5  UNL     1     -37.021  19.189  12.646  1.00  0.00     0.186 HD
HETATM   11  C6  UNL     1     -38.090  20.158  14.199  1.00  0.00     0.163 A 
HETATM   12  N6  UNL     1     -37.365  20.204  15.327  1.00  0.00    -0.282 N 
ATOM     13  H6  UNL     1     -36.431  19.794  15.323  1.00  0.00     0.188 HD
HETATM   14  N7  UNL     1     -37.805  20.754  16.442  1.00  0.00    -0.289 N 
ATOM     15  H7  UNL     1     -37.201  20.755  17.265  1.00  0.00     0.188 HD
ENDROOT
BRANCH   8  16
HETATM   16  N3  UNL     1     -39.167  19.605  11.016  1.00  0.00    -0.112 N 
ATOM     17  H3  UNL     1     -38.524  18.963  10.553  1.00  0.00     0.207 HD
BRANCH  16  18
HETATM   18  N4  UNL     1     -40.242  20.131  10.302  1.00  0.00    -0.196 N 
ATOM     19  H4  UNL     1     -40.044  20.669   9.458  1.00  0.00     0.216 HD
BRANCH  18  20
HETATM   20  O1  UNL     1     -41.435  19.980  10.640  1.00  0.00    -0.274 OA
ATOM     21  H1  UNL     1     -41.996  19.295  10.295  1.00  0.00     0.246 HD
ENDBRANCH  18  20
ENDBRANCH  16  18
ENDBRANCH   8  16
TORSDOF 3
ENDMDL
MODEL 2
REMARK VINA RESULT: -6.412874372      2.881      5.700
REMARK  3 active torsions:
REMARK  status: ('A' for Active; 'I' for Inactive)
REMARK    1  A    between atoms: C5_8  and  N3_9 
REMARK    2  A    between atoms: N3_9  and  N4_11 
REMARK    3  A    between atoms: N4_11  and  O1_13 
ROOT
HETATM    1  N1  UNL     1     -40.558  22.584   8.294  1.00  0.00    -0.190 NA
HETATM    2  C1  UNL     1     -40.214  22.050   9.260  1.00  0.00     0.119 C 
HETATM    3  C2  UNL     1     -39.772  21.362  10.458  1.00  0.00     0.130 A 
HETATM    4  C3  UNL     1     -39.386  22.091  11.554  1.00  0.00     0.076 A 
HETATM    5  C4  UNL     1     -38.970  21.416  12.679  1.00  0.00     0.098 A 
HETATM    6  N2  UNL     1     -38.535  21.801  13.896  1.00  0.00    -0.186 N 
ATOM      7  H2  UNL     1     -38.435  22.767  14.209  1.00  0.00     0.184 HD
HETATM    8  C5  UNL     1     -38.254  20.710  14.635  1.00  0.00     0.700 A 
HETATM    9  N5  UNL     1     -38.498  19.600  13.921  1.00  0.00    -0.172 N 
ATOM     10  H5  UNL     1     -38.375  18.635  14.226  1.00  0.00     0.186 HD
HETATM   11  C6  UNL     1     -38.937  20.019  12.722  1.00  0.00     0.163 A 
HETATM   12  N6  UNL     1     -39.332  19.386  11.607  1.00  0.00    -0.282 N 
ATOM     13  H6  UNL     1     -39.323  18.367  11.597  1.00  0.00     0.188 HD
HETATM   14  N7  UNL     1     -39.732  20.022  10.523  1.00  0.00    -0.289 N 
ATOM     15  H7  UNL     1     -40.019  19.479   9.709  1.00  0.00     0.188 HD
ENDROOT
BRANCH   8  16
HETATM   16  N3  UNL     1     -37.814  20.749  15.853  1.00  0.00    -0.112 N 
ATOM     17  H3  UNL     1     -38.303  21.318  16.545  1.00  0.00     0.207 HD
BRANCH  16  18
HETATM   18  N4  UNL     1     -36.685  20.028  16.234  1.00  0.00    -0.196 N 
ATOM     19  H4  UNL     1     -36.766  19.014  16.320  1.00  0.00     0.216 HD
BRANCH  18  20
HETATM   20  O1  UNL     1     -35.579  20.554  16.477  1.00  0.00    -0.274 OA
ATOM     21  H1  UNL     1     -34.924  20.163  17.043  1.00  0.00     0.246 HD
ENDBRANCH  18  20
ENDBRANCH  16  18
ENDBRANCH   8  16
TORSDOF 3
ENDMDL
MODEL 3
REMARK VINA RESULT: -6.256424340      3.224      5.832
REMARK  3 active torsions:
REMARK  status: ('A' for Active; 'I' for Inactive)
REMARK    1  A    between atoms: C5_8  and  N3_9 
REMARK    2  A    between atoms: N3_9  and  N4_11 
REMARK    3  A    between atoms: N4_11  and  O1_13 
ROOT
HETATM    1  N1  UNL     1     -40.001  24.778   8.358  1.00  0.00    -0.190 NA
HETATM    2  C1  UNL     1     -39.833  23.850   9.026  1.00  0.00     0.119 C 
HETATM    3  C2  UNL     1     -39.619  22.671   9.845  1.00  0.00     0.130 A 
HETATM    4  C3  UNL     1     -38.963  22.789  11.044  1.00  0.00     0.076 A 
HETATM    5  C4  UNL     1     -38.773  21.656  11.802  1.00  0.00     0.098 A 
HETATM    6  N2  UNL     1     -38.188  21.413  12.994  1.00  0.00    -0.186 N 
ATOM      7  H2  UNL     1     -37.745  22.114  13.588  1.00  0.00     0.184 HD
HETATM    8  C5  UNL     1     -38.282  20.099  13.276  1.00  0.00     0.700 A 
HETATM    9  N5  UNL     1     -38.923  19.463  12.283  1.00  0.00    -0.172 N 
ATOM     10  H5  UNL     1     -39.136  18.467  12.228  1.00  0.00     0.186 HD
HETATM   11  C6  UNL     1     -39.229  20.406  11.376  1.00  0.00     0.163 A 
HETATM   12  N6  UNL     1     -39.859  20.382  10.191  1.00  0.00    -0.282 N 
ATOM     13  H6  UNL     1     -40.208  19.489   9.844  1.00  0.00     0.188 HD
HETATM   14  N7  UNL     1     -40.048  21.460   9.456  1.00  0.00    -0.289 N 
ATOM     15  H7  UNL     1     -40.535  21.371   8.564  1.00  0.00     0.188 HD
ENDROOT
BRANCH   8  16
HETATM   16  N3  UNL     1     -37.815  19.551  14.353  1.00  0.00    -0.112 N 
ATOM     17  H3  UNL     1     -37.759  18.535  14.416  1.00  0.00     0.207 HD
BRANCH  16  18
HETATM   18  N4  UNL     1     -37.387  20.328  15.427  1.00  0.00    -0.196 N 
ATOM     19  H4  UNL     1     -37.770  21.268  15.526  1.00  0.00     0.216 HD
BRANCH  18  20
HETATM   20  O1  UNL     1     -36.558  19.936  16.276  1.00  0.00    -0.274 OA
ATOM     21  H1  UNL     1     -35.868  20.485  16.629  1.00  0.00     0.246 HD
ENDBRANCH  18  20
ENDBRANCH  16  18
ENDBRANCH   8  16
TORSDOF 3
ENDMDL
MODEL 4
REMARK VINA RESULT: -6.179512904      1.448      1.526
REMARK  3 active torsions:
REMARK  status: ('A' for Active; 'I' for Inactive)
REMARK    1  A    between atoms: C5_8  and  N3_9 
REMARK    2  A    between atoms: N3_9  and  N4_11 
REMARK    3  A    between atoms: N4_11  and  O1_13 
ROOT
HETATM    1  N1  UNL     1     -40.307  22.237  18.611  1.00  0.00    -0.190 NA
HETATM    2  C1  UNL     1     -39.804  21.828  17.654  1.00  0.00     0.119 C 
HETATM    3  C2  UNL     1     -39.164  21.294  16.466  1.00  0.00     0.130 A 
HETATM    4  C3  UNL     1     -39.783  21.422  15.248  1.00  0.00     0.076 A 
HETATM    5  C4  UNL     1     -39.156  20.908  14.137  1.00  0.00     0.098 A 
HETATM    6  N2  UNL     1     -39.466  20.857  12.824  1.00  0.00    -0.186 N 
ATOM      7  H2  UNL     1     -40.315  21.236  12.404  1.00  0.00     0.184 HD
HETATM    8  C5  UNL     1     -38.480  20.226  12.157  1.00  0.00     0.700 A 
HETATM    9  N5  UNL     1     -37.515  19.856  13.012  1.00  0.00    -0.172 N 
ATOM     10  H5  UNL     1     -36.651  19.362  12.786  1.00  0.00     0.186 HD
HETATM   11  C6  UNL     1     -37.917  20.268  14.226  1.00  0.00     0.163 A 
HETATM   12  N6  UNL     1     -37.384  20.188  15.455  1.00  0.00    -0.282 N 
ATOM     13  H6  UNL     1     -36.479  19.729  15.564  1.00  0.00     0.188 HD
HETATM   14  N7  UNL     1     -37.975  20.676  16.528  1.00  0.00    -0.289 N 
ATOM     15  H7  UNL     1     -37.513  20.581  17.433  1.00  0.00     0.188 HD
ENDROOT
BRANCH   8  16
HETATM   16  N3  UNL     1     -38.485  20.019  10.878  1.00  0.00    -0.112 N 
ATOM     17  H3  UNL     1     -39.238  19.472  10.461  1.00  0.00     0.207 HD
BRANCH  16  18
HETATM   18  N4  UNL     1     -37.478  20.531  10.063  1.00  0.00    -0.196 N 
ATOM     19  H4  UNL     1     -37.101  19.933   9.328  1.00  0.00     0.216 HD
BRANCH  18  20
HETATM   20  O1  UNL     1     -37.011  21.683  10.184  1.00  0.00    -0.274 OA
ATOM     21  H1  UNL     1     -36.169  21.948   9.834  1.00  0.00     0.246 HD
ENDBRANCH  18  20
ENDBRANCH  16  18
ENDBRANCH   8  16
TORSDOF 3
ENDMDL
MODEL 5
REMARK VINA RESULT: -6.140295503      2.757      5.465
REMARK  3 active torsions:
REMARK  status: ('A' for Active; 'I' for Inactive)
REMARK    1  A    between atoms: C5_8  and  N3_9 
REMARK    2  A    between atoms: N3_9  and  N4_11 
REMARK    3  A    between atoms: N4_11  and  O1_13 
ROOT
HETATM    1  N1  UNL     1     -42.497  22.895   9.068  1.00  0.00    -0.190 NA
HETATM    2  C1  UNL     1     -41.640  22.390   9.657  1.00  0.00     0.119 C 
HETATM    3  C2  UNL     1     -40.548  21.765  10.380  1.00  0.00     0.130 A 
HETATM    4  C3  UNL     1     -40.597  21.691  11.749  1.00  0.00     0.076 A 
HETATM    5  C4  UNL     1     -39.549  21.094  12.412  1.00  0.00     0.098 A 
HETATM    6  N2  UNL     1     -39.276  20.856  13.712  1.00  0.00    -0.186 N 
ATOM      7  H2  UNL     1     -39.874  21.113  14.497  1.00  0.00     0.184 HD
HETATM    8  C5  UNL     1     -38.089  20.226  13.809  1.00  0.00     0.700 A 
HETATM    9  N5  UNL     1     -37.568  20.041  12.586  1.00  0.00    -0.172 N 
ATOM     10  H5  UNL     1     -36.681  19.593  12.358  1.00  0.00     0.186 HD
HETATM   11  C6  UNL     1     -38.453  20.568  11.723  1.00  0.00     0.163 A 
HETATM   12  N6  UNL     1     -38.488  20.683  10.386  1.00  0.00    -0.282 N 
ATOM     13  H6  UNL     1     -37.707  20.311   9.846  1.00  0.00     0.188 HD
HETATM   14  N7  UNL     1     -39.485  21.253   9.740  1.00  0.00    -0.289 N 
ATOM     15  H7  UNL     1     -39.448  21.307   8.722  1.00  0.00     0.188 HD
ENDROOT
BRANCH   8  16
HETATM   16  N3  UNL     1     -37.549  19.862  14.929  1.00  0.00    -0.112 N 
ATOM     17  H3  UNL     1     -37.068  18.964  14.986  1.00  0.00     0.207 HD
BRANCH  16  18
HETATM   18  N4  UNL     1     -37.614  20.676  16.058  1.00  0.00    -0.196 N 
ATOM     19  H4  UNL     1     -36.760  21.136  16.371  1.00  0.00     0.216 HD
BRANCH  18  20
HETATM   20  O1  UNL     1     -38.663  20.872  16.707  1.00  0.00    -0.274 OA
ATOM     21  H1  UNL     1     -38.838  21.668  17.195  1.00  0.00     0.246 HD
ENDBRANCH  18  20
ENDBRANCH  16  18
ENDBRANCH   8  16
TORSDOF 3
ENDMDL
