MODEL 1
REMARK VINA RESULT: -5.771859885      0.000      0.000
REMARK  9 active torsions:
REMARK  status: ('A' for Active; 'I' for Inactive)
REMARK    1  A    between atoms: C2_2  and  C3_3 
REMARK    2  A    between atoms: C3_3  and  N1_4 
REMARK    3  A    between atoms: C6_7  and  N2_8 
REMARK    4  A    between atoms: N2_8  and  C7_11 
REMARK    5  A    between atoms: C7_11  and  C8_12 
REMARK    6  A    between atoms: C8_12  and  C9_13 
REMARK    7  A    between atoms: C9_13  and  N3_14 
REMARK    8  A    between atoms: C10_16  and  C11_17 
REMARK    9  A    between atoms: C11_17  and  N4_18 
ROOT
HETATM    1  N2  UNL     1      79.363  20.868   2.030  1.00  0.00    -0.071 N 
ATOM      2  H21 UNL     1      78.578  21.150   2.618  1.00  0.00     0.277 HD
ATOM      3  H22 UNL     1      79.676  20.067   2.577  1.00  0.00     0.277 HD
ENDROOT
BRANCH   1   4
HETATM    4  C6  UNL     1      80.386  21.908   1.941  1.00  0.00     0.189 C 
HETATM    5  C5  UNL     1      79.629  23.218   1.842  1.00  0.00     0.052 C 
HETATM    6  C4  UNL     1      80.264  24.320   2.651  1.00  0.00     0.119 C 
HETATM    7  N1  UNL     1      81.677  24.241   2.755  1.00  0.00    -0.409 N 
HETATM    8  C13 UNL     1      82.254  22.982   3.051  1.00  0.00     0.119 C 
HETATM    9  C12 UNL     1      81.147  21.939   3.233  1.00  0.00     0.052 C 
BRANCH   7  10
HETATM   10  C3  UNL     1      82.205  25.357   3.485  1.00  0.00     0.143 C 
BRANCH  10  11
HETATM   11  C2  UNL     1      81.790  26.658   2.886  1.00  0.00    -0.018 C 
HETATM   12  C1  UNL     1      82.587  27.411   2.166  1.00  0.00     0.008 C 
ENDBRANCH  10  11
ENDBRANCH   7  10
ENDBRANCH   1   4
BRANCH   1  13
HETATM   13  C7  UNL     1      78.934  20.484   0.688  1.00  0.00     0.234 C 
BRANCH  13  14
HETATM   14  C8  UNL     1      80.068  19.818  -0.039  1.00  0.00     0.047 C 
BRANCH  14  15
HETATM   15  C9  UNL     1      79.674  19.202  -1.355  1.00  0.00     0.120 C 
BRANCH  15  16
HETATM   16  N3  UNL     1      79.506  17.780  -1.069  1.00  0.00    -0.401 N 
HETATM   17  C10 UNL     1      80.488  17.197  -0.488  1.00  0.00     0.082 C 
ATOM     18  H3  UNL     1      78.654  17.278  -1.318  1.00  0.00     0.158 HD
BRANCH  17  19
HETATM   19  C11 UNL     1      80.468  15.754  -0.131  1.00  0.00     0.273 C 
BRANCH  19  20
HETATM   20  N4  UNL     1      80.765  15.664   1.300  1.00  0.00    -0.075 N 
ATOM     21  H43 UNL     1      80.628  14.728   1.680  1.00  0.00     0.274 HD
ATOM     22  H42 UNL     1      81.760  15.744   1.508  1.00  0.00     0.274 HD
ATOM     23  H41 UNL     1      80.200  16.375   1.765  1.00  0.00     0.274 HD
ENDBRANCH  19  20
ENDBRANCH  17  19
ENDBRANCH  15  16
ENDBRANCH  14  15
ENDBRANCH  13  14
ENDBRANCH   1  13
TORSDOF 9
ENDMDL
MODEL 2
REMARK VINA RESULT: -5.669556654      0.966      1.365
REMARK  9 active torsions:
REMARK  status: ('A' for Active; 'I' for Inactive)
REMARK    1  A    between atoms: C2_2  and  C3_3 
REMARK    2  A    between atoms: C3_3  and  N1_4 
REMARK    3  A    between atoms: C6_7  and  N2_8 
REMARK    4  A    between atoms: N2_8  and  C7_11 
REMARK    5  A    between atoms: C7_11  and  C8_12 
REMARK    6  A    between atoms: C8_12  and  C9_13 
REMARK    7  A    between atoms: C9_13  and  N3_14 
REMARK    8  A    between atoms: C10_16  and  C11_17 
REMARK    9  A    between atoms: C11_17  and  N4_18 
ROOT
HETATM    1  N2  UNL     1      79.320  21.890   1.030  1.00  0.00    -0.071 N 
ATOM      2  H21 UNL     1      79.556  22.215   0.092  1.00  0.00     0.277 HD
ATOM      3  H22 UNL     1      78.366  22.249   1.075  1.00  0.00     0.277 HD
ENDROOT
BRANCH   1   4
HETATM    4  C6  UNL     1      80.180  22.485   2.052  1.00  0.00     0.189 C 
HETATM    5  C5  UNL     1      81.564  22.547   1.434  1.00  0.00     0.052 C 
HETATM    6  C4  UNL     1      82.291  23.825   1.764  1.00  0.00     0.119 C 
HETATM    7  N1  UNL     1      81.978  24.374   3.035  1.00  0.00    -0.409 N 
HETATM    8  C13 UNL     1      80.615  24.442   3.414  1.00  0.00     0.119 C 
HETATM    9  C12 UNL     1      79.739  23.900   2.280  1.00  0.00     0.052 C 
BRANCH   7  10
HETATM   10  C3  UNL     1      82.757  25.550   3.296  1.00  0.00     0.143 C 
BRANCH  10  11
HETATM   11  C2  UNL     1      82.132  26.770   2.709  1.00  0.00    -0.018 C 
HETATM   12  C1  UNL     1      82.772  27.608   1.928  1.00  0.00     0.008 C 
ENDBRANCH  10  11
ENDBRANCH   7  10
ENDBRANCH   1   4
BRANCH   1  13
HETATM   13  C7  UNL     1      79.365  20.435   1.136  1.00  0.00     0.234 C 
BRANCH  13  14
HETATM   14  C8  UNL     1      79.577  19.831  -0.225  1.00  0.00     0.047 C 
BRANCH  14  15
HETATM   15  C9  UNL     1      81.005  19.456  -0.513  1.00  0.00     0.120 C 
BRANCH  15  16
HETATM   16  N3  UNL     1      81.149  18.098   0.005  1.00  0.00    -0.401 N 
HETATM   17  C10 UNL     1      80.392  17.207  -0.518  1.00  0.00     0.082 C 
ATOM     18  H3  UNL     1      81.816  17.872   0.743  1.00  0.00     0.158 HD
BRANCH  17  19
HETATM   19  C11 UNL     1      80.420  15.781  -0.097  1.00  0.00     0.273 C 
BRANCH  19  20
HETATM   20  N4  UNL     1      80.765  15.764   1.325  1.00  0.00    -0.075 N 
ATOM     21  H43 UNL     1      80.462  16.602   1.822  1.00  0.00     0.274 HD
ATOM     22  H42 UNL     1      80.218  15.091   1.862  1.00  0.00     0.274 HD
ATOM     23  H41 UNL     1      81.771  15.602   1.385  1.00  0.00     0.274 HD
ENDBRANCH  19  20
ENDBRANCH  17  19
ENDBRANCH  15  16
ENDBRANCH  14  15
ENDBRANCH  13  14
ENDBRANCH   1  13
TORSDOF 9
ENDMDL
MODEL 3
REMARK VINA RESULT: -5.649550793      1.145      1.569
REMARK  9 active torsions:
REMARK  status: ('A' for Active; 'I' for Inactive)
REMARK    1  A    between atoms: C2_2  and  C3_3 
REMARK    2  A    between atoms: C3_3  and  N1_4 
REMARK    3  A    between atoms: C6_7  and  N2_8 
REMARK    4  A    between atoms: N2_8  and  C7_11 
REMARK    5  A    between atoms: C7_11  and  C8_12 
REMARK    6  A    between atoms: C8_12  and  C9_13 
REMARK    7  A    between atoms: C9_13  and  N3_14 
REMARK    8  A    between atoms: C10_16  and  C11_17 
REMARK    9  A    between atoms: C11_17  and  N4_18 
ROOT
HETATM    1  N2  UNL     1      80.342  20.048   1.801  1.00  0.00    -0.071 N 
ATOM      2  H21 UNL     1      79.817  19.451   2.441  1.00  0.00     0.277 HD
ATOM      3  H22 UNL     1      81.205  19.506   1.770  1.00  0.00     0.277 HD
ENDROOT
BRANCH   1   4
HETATM    4  C6  UNL     1      80.551  21.388   2.345  1.00  0.00     0.189 C 
HETATM    5  C5  UNL     1      81.925  21.813   1.864  1.00  0.00     0.052 C 
HETATM    6  C4  UNL     1      81.974  23.260   1.446  1.00  0.00     0.119 C 
HETATM    7  N1  UNL     1      81.099  24.116   2.167  1.00  0.00    -0.409 N 
HETATM    8  C13 UNL     1      79.768  23.682   2.379  1.00  0.00     0.119 C 
HETATM    9  C12 UNL     1      79.560  22.319   1.712  1.00  0.00     0.052 C 
BRANCH   7  10
HETATM   10  C3  UNL     1      81.252  25.480   1.752  1.00  0.00     0.143 C 
BRANCH  10  11
HETATM   11  C2  UNL     1      81.670  26.360   2.881  1.00  0.00    -0.018 C 
HETATM   12  C1  UNL     1      82.596  27.283   2.777  1.00  0.00     0.008 C 
ENDBRANCH  10  11
ENDBRANCH   7  10
ENDBRANCH   1   4
BRANCH   1  13
HETATM   13  C7  UNL     1      79.706  20.142   0.490  1.00  0.00     0.234 C 
BRANCH  13  14
HETATM   14  C8  UNL     1      80.517  19.388  -0.526  1.00  0.00     0.047 C 
BRANCH  14  15
HETATM   15  C9  UNL     1      79.691  18.631  -1.530  1.00  0.00     0.120 C 
BRANCH  15  16
HETATM   16  N3  UNL     1      79.459  17.326  -0.917  1.00  0.00    -0.401 N 
HETATM   17  C10 UNL     1      80.502  16.651  -0.603  1.00  0.00     0.082 C 
ATOM     18  H3  UNL     1      78.518  16.970  -0.748  1.00  0.00     0.158 HD
BRANCH  17  19
HETATM   19  C11 UNL     1      80.430  15.307   0.027  1.00  0.00     0.273 C 
BRANCH  19  20
HETATM   20  N4  UNL     1      80.668  14.326  -1.033  1.00  0.00    -0.075 N 
ATOM     21  H43 UNL     1      79.807  13.959  -1.440  1.00  0.00     0.274 HD
ATOM     22  H42 UNL     1      81.047  14.739  -1.884  1.00  0.00     0.274 HD
ATOM     23  H41 UNL     1      81.267  13.601  -0.638  1.00  0.00     0.274 HD
ENDBRANCH  19  20
ENDBRANCH  17  19
ENDBRANCH  15  16
ENDBRANCH  14  15
ENDBRANCH  13  14
ENDBRANCH   1  13
TORSDOF 9
ENDMDL
MODEL 4
REMARK VINA RESULT: -5.598880428      1.650      7.454
REMARK  9 active torsions:
REMARK  status: ('A' for Active; 'I' for Inactive)
REMARK    1  A    between atoms: C2_2  and  C3_3 
REMARK    2  A    between atoms: C3_3  and  N1_4 
REMARK    3  A    between atoms: C6_7  and  N2_8 
REMARK    4  A    between atoms: N2_8  and  C7_11 
REMARK    5  A    between atoms: C7_11  and  C8_12 
REMARK    6  A    between atoms: C8_12  and  C9_13 
REMARK    7  A    between atoms: C9_13  and  N3_14 
REMARK    8  A    between atoms: C10_16  and  C11_17 
REMARK    9  A    between atoms: C11_17  and  N4_18 
ROOT
HETATM    1  N2  UNL     1      81.729  21.911   3.011  1.00  0.00    -0.071 N 
ATOM      2  H21 UNL     1      82.309  22.579   2.501  1.00  0.00     0.277 HD
ATOM      3  H22 UNL     1      82.358  21.739   3.795  1.00  0.00     0.277 HD
ENDROOT
BRANCH   1   4
HETATM    4  C6  UNL     1      81.471  20.700   2.235  1.00  0.00     0.189 C 
HETATM    5  C5  UNL     1      79.964  20.621   2.090  1.00  0.00     0.052 C 
HETATM    6  C4  UNL     1      79.534  20.169   0.719  1.00  0.00     0.119 C 
HETATM    7  N1  UNL     1      80.427  19.267   0.084  1.00  0.00    -0.409 N 
HETATM    8  C13 UNL     1      81.812  19.564   0.121  1.00  0.00     0.119 C 
HETATM    9  C12 UNL     1      82.033  20.889   0.857  1.00  0.00     0.052 C 
BRANCH   7  10
HETATM   10  C3  UNL     1      79.914  18.840  -1.186  1.00  0.00     0.143 C 
BRANCH  10  11
HETATM   11  C2  UNL     1      80.423  17.489  -1.562  1.00  0.00    -0.018 C 
HETATM   12  C1  UNL     1      80.454  16.470  -0.737  1.00  0.00     0.008 C 
ENDBRANCH  10  11
ENDBRANCH   7  10
ENDBRANCH   1   4
BRANCH   1  13
HETATM   13  C7  UNL     1      80.464  22.499   3.441  1.00  0.00     0.234 C 
BRANCH  13  14
HETATM   14  C8  UNL     1      80.494  23.987   3.229  1.00  0.00     0.047 C 
BRANCH  14  15
HETATM   15  C9  UNL     1      80.317  24.406   1.794  1.00  0.00     0.120 C 
BRANCH  15  16
HETATM   16  N3  UNL     1      81.034  25.673   1.682  1.00  0.00    -0.401 N 
HETATM   17  C10 UNL     1      81.678  26.057   2.721  1.00  0.00     0.082 C 
ATOM     18  H3  UNL     1      81.023  26.223   0.823  1.00  0.00     0.158 HD
BRANCH  17  19
HETATM   19  C11 UNL     1      82.456  27.323   2.762  1.00  0.00     0.273 C 
BRANCH  19  20
HETATM   20  N4  UNL     1      82.783  27.667   1.377  1.00  0.00    -0.075 N 
ATOM     21  H43 UNL     1      83.323  26.945   0.902  1.00  0.00     0.274 HD
ATOM     22  H42 UNL     1      81.973  27.652   0.758  1.00  0.00     0.274 HD
ATOM     23  H41 UNL     1      83.253  28.572   1.400  1.00  0.00     0.274 HD
ENDBRANCH  19  20
ENDBRANCH  17  19
ENDBRANCH  15  16
ENDBRANCH  14  15
ENDBRANCH  13  14
ENDBRANCH   1  13
TORSDOF 9
ENDMDL
MODEL 5
REMARK VINA RESULT: -5.583443183      2.088      6.988
REMARK  9 active torsions:
REMARK  status: ('A' for Active; 'I' for Inactive)
REMARK    1  A    between atoms: C2_2  and  C3_3 
REMARK    2  A    between atoms: C3_3  and  N1_4 
REMARK    3  A    between atoms: C6_7  and  N2_8 
REMARK    4  A    between atoms: N2_8  and  C7_11 
REMARK    5  A    between atoms: C7_11  and  C8_12 
REMARK    6  A    between atoms: C8_12  and  C9_13 
REMARK    7  A    between atoms: C9_13  and  N3_14 
REMARK    8  A    between atoms: C10_16  and  C11_17 
REMARK    9  A    between atoms: C11_17  and  N4_18 
ROOT
HETATM    1  N2  UNL     1      81.112  22.304   3.013  1.00  0.00    -0.071 N 
ATOM      2  H21 UNL     1      82.132  22.312   3.049  1.00  0.00     0.277 HD
ATOM      3  H22 UNL     1      80.944  21.638   3.766  1.00  0.00     0.277 HD
ENDROOT
BRANCH   1   4
HETATM    4  C6  UNL     1      80.610  21.822   1.728  1.00  0.00     0.189 C 
HETATM    5  C5  UNL     1      81.762  21.065   1.097  1.00  0.00     0.052 C 
HETATM    6  C4  UNL     1      81.319  19.804   0.403  1.00  0.00     0.119 C 
HETATM    7  N1  UNL     1      80.020  19.864  -0.166  1.00  0.00    -0.409 N 
HETATM    8  C13 UNL     1      78.976  20.421   0.613  1.00  0.00     0.119 C 
HETATM    9  C12 UNL     1      79.520  20.824   1.987  1.00  0.00     0.052 C 
BRANCH   7  10
HETATM   10  C3  UNL     1      79.702  18.649  -0.858  1.00  0.00     0.143 C 
BRANCH  10  11
HETATM   11  C2  UNL     1      80.777  17.627  -0.708  1.00  0.00    -0.018 C 
HETATM   12  C1  UNL     1      80.545  16.341  -0.600  1.00  0.00     0.008 C 
ENDBRANCH  10  11
ENDBRANCH   7  10
ENDBRANCH   1   4
BRANCH   1  13
HETATM   13  C7  UNL     1      80.542  23.617   3.304  1.00  0.00     0.234 C 
BRANCH  13  14
HETATM   14  C8  UNL     1      80.504  24.445   2.050  1.00  0.00     0.047 C 
BRANCH  14  15
HETATM   15  C9  UNL     1      81.471  25.598   2.047  1.00  0.00     0.120 C 
BRANCH  15  16
HETATM   16  N3  UNL     1      82.232  25.447   0.810  1.00  0.00    -0.401 N 
HETATM   17  C10 UNL     1      83.173  24.577   0.824  1.00  0.00     0.082 C 
ATOM     18  H3  UNL     1      82.026  26.003  -0.019  1.00  0.00     0.158 HD
BRANCH  17  19
HETATM   19  C11 UNL     1      84.036  24.307  -0.356  1.00  0.00     0.273 C 
BRANCH  19  20
HETATM   20  N4  UNL     1      83.683  25.296  -1.376  1.00  0.00    -0.075 N 
ATOM     21  H43 UNL     1      82.890  25.013  -1.952  1.00  0.00     0.274 HD
ATOM     22  H42 UNL     1      83.265  26.141  -0.987  1.00  0.00     0.274 HD
ATOM     23  H41 UNL     1      84.528  25.480  -1.917  1.00  0.00     0.274 HD
ENDBRANCH  19  20
ENDBRANCH  17  19
ENDBRANCH  15  16
ENDBRANCH  14  15
ENDBRANCH  13  14
ENDBRANCH   1  13
TORSDOF 9
ENDMDL
