MODEL 1
REMARK VINA RESULT: -3.353428206      0.000      0.000
REMARK  10 active torsions:
REMARK  status: ('A' for Active; 'I' for Inactive)
REMARK    1  A    between atoms: N1_1  and  C1_4 
REMARK    2  A    between atoms: C4_12  and  C5_13 
REMARK    3  A    between atoms: C5_13  and  N4_14 
REMARK    4  A    between atoms: C5_13  and  N5_18 
REMARK    5  A    between atoms: N6_22  and  C6_23 
REMARK    6  A    between atoms: C7_24  and  N7_25 
REMARK    7  A    between atoms: C8_29  and  O2_30 
REMARK    8  A    between atoms: C9_32  and  O3_33 
REMARK    9  A    between atoms: C10_35  and  N8_36 
REMARK   10  A    between atoms: C11_39  and  N9_40 
ROOT
HETATM    1  C1  UNL     1      19.071  51.312  14.333  1.00  0.00     0.680 A 
HETATM    2  N2  UNL     1      20.084  50.742  15.032  1.00  0.00    -0.154 N 
ATOM      3  H2  UNL     1      20.295  51.092  15.967  1.00  0.00     0.187 HD
HETATM    4  C2  UNL     1      20.813  49.737  14.538  1.00  0.00     0.290 A 
HETATM    5  O1  UNL     1      21.737  49.243  15.223  1.00  0.00    -0.265 OA
HETATM    6  C3  UNL     1      20.499  49.288  13.274  1.00  0.00     0.148 A 
HETATM    7  N3  UNL     1      20.974  48.354  12.480  1.00  0.00    -0.335 N 
ATOM      8  H3  UNL     1      21.750  47.733  12.708  1.00  0.00     0.167 HD
HETATM    9  C4  UNL     1      20.272  48.335  11.301  1.00  0.00     0.149 A 
HETATM   10  N6  UNL     1      19.336  49.271  11.343  1.00  0.00    -0.284 N 
HETATM   11  C12 UNL     1      19.467  49.877  12.575  1.00  0.00     0.161 A 
HETATM   12  N10 UNL     1      18.755  50.893  13.113  1.00  0.00    -0.174 N 
ATOM     13  H10 UNL     1      17.992  51.328  12.593  1.00  0.00     0.186 HD
ENDROOT
BRANCH  10  14
HETATM   14  C6  UNL     1      18.388  49.593  10.320  1.00  0.00     0.063 C 
HETATM   15  C7  UNL     1      16.966  49.217  10.643  1.00  0.00     0.262 C 
HETATM   16  C8  UNL     1      16.221  49.189   9.300  1.00  0.00     0.185 C 
HETATM   17  C9  UNL     1      16.259  50.499   8.606  1.00  0.00     0.180 C 
HETATM   18  C10 UNL     1      17.319  51.451   9.030  1.00  0.00     0.223 C 
HETATM   19  C11 UNL     1      18.577  50.853   9.569  1.00  0.00     0.263 C 
BRANCH  15  20
HETATM   20  N7  UNL     1      16.231  50.022  11.516  1.00  0.00    -0.067 N 
ATOM     21  H73 UNL     1      16.824  50.277  12.306  1.00  0.00     0.275 HD
ATOM     22  H72 UNL     1      16.082  50.931  11.077  1.00  0.00     0.275 HD
ATOM     23  H71 UNL     1      15.338  49.681  11.874  1.00  0.00     0.275 HD
ENDBRANCH  15  20
BRANCH  16  24
HETATM   24  O2  UNL     1      16.833  48.200   8.534  1.00  0.00    -0.390 OA
ATOM     25  H2  UNL     1      17.746  48.450   8.455  1.00  0.00     0.210 HD
ENDBRANCH  16  24
BRANCH  17  26
HETATM   26  O3  UNL     1      16.297  50.246   7.232  1.00  0.00    -0.391 OA
ATOM     27  H3  UNL     1      16.119  51.066   6.785  1.00  0.00     0.210 HD
ENDBRANCH  17  26
BRANCH  18  28
HETATM   28  N8  UNL     1      17.646  52.298   7.913  1.00  0.00    -0.145 N 
HETATM   29  O4  UNL     1      17.886  53.499   8.081  1.00  0.00    -0.536 OA
HETATM   30  O5  UNL     1      17.701  51.801   6.640  1.00  0.00    -0.536 OA
ENDBRANCH  18  28
BRANCH  19  31
HETATM   31  N9  UNL     1      19.484  50.591   8.430  1.00  0.00    -0.068 N 
ATOM     32  H93 UNL     1      20.447  50.431   8.726  1.00  0.00     0.275 HD
ATOM     33  H92 UNL     1      19.317  49.682   7.998  1.00  0.00     0.275 HD
ATOM     34  H91 UNL     1      19.401  51.360   7.765  1.00  0.00     0.275 HD
ENDBRANCH  19  31
ENDBRANCH  10  14
BRANCH   9  35
HETATM   35  C5  UNL     1      20.635  47.376  10.270  1.00  0.00     0.445 C 
BRANCH  35  36
HETATM   36  N4  UNL     1      21.445  47.983   9.201  1.00  0.00    -0.043 N 
ATOM     37  H43 UNL     1      21.002  48.828   8.839  1.00  0.00     0.277 HD
ATOM     38  H42 UNL     1      22.300  48.395   9.575  1.00  0.00     0.277 HD
ATOM     39  H41 UNL     1      21.651  47.325   8.450  1.00  0.00     0.277 HD
ENDBRANCH  35  36
BRANCH  35  40
HETATM   40  N5  UNL     1      21.616  46.453  10.897  1.00  0.00    -0.043 N 
ATOM     41  H53 UNL     1      21.841  46.693  11.862  1.00  0.00     0.277 HD
ATOM     42  H52 UNL     1      21.238  45.525  11.085  1.00  0.00     0.277 HD
ATOM     43  H51 UNL     1      22.428  46.445  10.280  1.00  0.00     0.277 HD
ENDBRANCH  35  40
ENDBRANCH   9  35
BRANCH   1  44
HETATM   44  N1  UNL     1      18.383  52.293  14.852  1.00  0.00    -0.234 N 
ATOM     45  H12 UNL     1      18.740  53.243  14.753  1.00  0.00     0.174 HD
ATOM     46  H11 UNL     1      17.510  52.104  15.344  1.00  0.00     0.174 HD
ENDBRANCH   1  44
TORSDOF 10
ENDMDL
MODEL 2
REMARK VINA RESULT: -2.917363776      1.981      6.082
REMARK  10 active torsions:
REMARK  status: ('A' for Active; 'I' for Inactive)
REMARK    1  A    between atoms: N1_1  and  C1_4 
REMARK    2  A    between atoms: C4_12  and  C5_13 
REMARK    3  A    between atoms: C5_13  and  N4_14 
REMARK    4  A    between atoms: C5_13  and  N5_18 
REMARK    5  A    between atoms: N6_22  and  C6_23 
REMARK    6  A    between atoms: C7_24  and  N7_25 
REMARK    7  A    between atoms: C8_29  and  O2_30 
REMARK    8  A    between atoms: C9_32  and  O3_33 
REMARK    9  A    between atoms: C10_35  and  N8_36 
REMARK   10  A    between atoms: C11_39  and  N9_40 
ROOT
HETATM    1  C1  UNL     1      17.653  51.908   8.313  1.00  0.00     0.680 A 
HETATM    2  N2  UNL     1      16.656  51.534   7.473  1.00  0.00    -0.154 N 
ATOM      3  H2  UNL     1      16.364  52.178   6.737  1.00  0.00     0.187 HD
HETATM    4  C2  UNL     1      16.043  50.351   7.578  1.00  0.00     0.290 A 
HETATM    5  O1  UNL     1      15.128  50.052   6.778  1.00  0.00    -0.265 OA
HETATM    6  C3  UNL     1      16.463  49.507   8.582  1.00  0.00     0.148 A 
HETATM    7  N3  UNL     1      16.114  48.305   8.986  1.00  0.00    -0.335 N 
ATOM      8  H3  UNL     1      15.382  47.736   8.561  1.00  0.00     0.167 HD
HETATM    9  C4  UNL     1      16.879  47.928  10.061  1.00  0.00     0.149 A 
HETATM   10  N6  UNL     1      17.728  48.904  10.348  1.00  0.00    -0.284 N 
HETATM   11  C12 UNL     1      17.478  49.900   9.428  1.00  0.00     0.161 A 
HETATM   12  N10 UNL     1      18.071  51.108   9.287  1.00  0.00    -0.174 N 
ATOM     13  H10 UNL     1      18.821  51.397   9.914  1.00  0.00     0.186 HD
ENDROOT
BRANCH  10  14
HETATM   14  C6  UNL     1      18.700  48.923  11.398  1.00  0.00     0.063 C 
HETATM   15  C7  UNL     1      20.084  48.501  10.979  1.00  0.00     0.262 C 
HETATM   16  C8  UNL     1      20.822  48.130  12.274  1.00  0.00     0.185 C 
HETATM   17  C9  UNL     1      20.899  49.267  13.224  1.00  0.00     0.180 C 
HETATM   18  C10 UNL     1      19.929  50.375  13.024  1.00  0.00     0.223 C 
HETATM   19  C11 UNL     1      18.623  50.012  12.395  1.00  0.00     0.263 C 
BRANCH  15  20
HETATM   20  N7  UNL     1      20.888  49.401  10.278  1.00  0.00    -0.067 N 
ATOM     21  H73 UNL     1      21.247  48.939   9.443  1.00  0.00     0.275 HD
ATOM     22  H72 UNL     1      20.293  50.121   9.868  1.00  0.00     0.275 HD
ATOM     23  H71 UNL     1      21.665  49.854  10.761  1.00  0.00     0.275 HD
ENDBRANCH  15  20
BRANCH  16  24
HETATM   24  O2  UNL     1      20.124  47.061  12.831  1.00  0.00    -0.390 OA
ATOM     25  H2  UNL     1      19.245  47.376  13.003  1.00  0.00     0.210 HD
ENDBRANCH  16  24
BRANCH  17  26
HETATM   26  O3  UNL     1      20.839  48.740  14.517  1.00  0.00    -0.391 OA
ATOM     27  H3  UNL     1      19.958  48.884  14.844  1.00  0.00     0.210 HD
ENDBRANCH  17  26
BRANCH  18  28
HETATM   28  N8  UNL     1      19.678  50.997  14.297  1.00  0.00    -0.145 N 
HETATM   29  O4  UNL     1      20.317  50.661  15.301  1.00  0.00    -0.536 OA
HETATM   30  O5  UNL     1      18.730  51.974  14.434  1.00  0.00    -0.536 OA
ENDBRANCH  18  28
BRANCH  19  31
HETATM   31  N9  UNL     1      17.696  49.600  13.472  1.00  0.00    -0.068 N 
ATOM     32  H93 UNL     1      17.263  48.695  13.290  1.00  0.00     0.275 HD
ATOM     33  H92 UNL     1      18.183  49.353  14.334  1.00  0.00     0.275 HD
ATOM     34  H91 UNL     1      17.009  50.342  13.611  1.00  0.00     0.275 HD
ENDBRANCH  19  31
ENDBRANCH  10  14
BRANCH   9  35
HETATM   35  C5  UNL     1      16.656  46.629  10.674  1.00  0.00     0.445 C 
BRANCH  35  36
HETATM   36  N4  UNL     1      17.377  46.480  11.949  1.00  0.00    -0.043 N 
ATOM     37  H43 UNL     1      16.766  46.108  12.676  1.00  0.00     0.277 HD
ATOM     38  H42 UNL     1      18.055  45.719  11.901  1.00  0.00     0.277 HD
ATOM     39  H41 UNL     1      17.818  47.349  12.248  1.00  0.00     0.277 HD
ENDBRANCH  35  36
BRANCH  35  40
HETATM   40  N5  UNL     1      15.243  46.628  11.131  1.00  0.00    -0.043 N 
ATOM     41  H53 UNL     1      15.097  46.119  12.003  1.00  0.00     0.277 HD
ATOM     42  H52 UNL     1      14.922  47.538  11.463  1.00  0.00     0.277 HD
ATOM     43  H51 UNL     1      14.696  46.264  10.351  1.00  0.00     0.277 HD
ENDBRANCH  35  40
ENDBRANCH   9  35
BRANCH   1  44
HETATM   44  N1  UNL     1      18.226  53.075   8.177  1.00  0.00    -0.234 N 
ATOM     45  H12 UNL     1      18.478  53.386   7.240  1.00  0.00     0.174 HD
ATOM     46  H11 UNL     1      18.413  53.653   8.996  1.00  0.00     0.174 HD
ENDBRANCH   1  44
TORSDOF 10
ENDMDL
MODEL 3
REMARK VINA RESULT: -2.888702086      2.123      6.033
REMARK  10 active torsions:
REMARK  status: ('A' for Active; 'I' for Inactive)
REMARK    1  A    between atoms: N1_1  and  C1_4 
REMARK    2  A    between atoms: C4_12  and  C5_13 
REMARK    3  A    between atoms: C5_13  and  N4_14 
REMARK    4  A    between atoms: C5_13  and  N5_18 
REMARK    5  A    between atoms: N6_22  and  C6_23 
REMARK    6  A    between atoms: C7_24  and  N7_25 
REMARK    7  A    between atoms: C8_29  and  O2_30 
REMARK    8  A    between atoms: C9_32  and  O3_33 
REMARK    9  A    between atoms: C10_35  and  N8_36 
REMARK   10  A    between atoms: C11_39  and  N9_40 
ROOT
HETATM    1  C1  UNL     1      17.511  52.258   8.437  1.00  0.00     0.680 A 
HETATM    2  N2  UNL     1      16.750  51.636   7.503  1.00  0.00    -0.154 N 
ATOM      3  H2  UNL     1      16.517  52.135   6.644  1.00  0.00     0.187 HD
HETATM    4  C2  UNL     1      16.295  50.390   7.669  1.00  0.00     0.290 A 
HETATM    5  O1  UNL     1      15.596  49.859   6.777  1.00  0.00    -0.265 OA
HETATM    6  C3  UNL     1      16.629  49.745   8.839  1.00  0.00     0.148 A 
HETATM    7  N3  UNL     1      16.377  48.557   9.344  1.00  0.00    -0.335 N 
ATOM      8  H3  UNL     1      15.823  47.833   8.887  1.00  0.00     0.167 HD
HETATM    9  C4  UNL     1      16.970  48.433  10.576  1.00  0.00     0.149 A 
HETATM   10  N6  UNL     1      17.609  49.558  10.861  1.00  0.00    -0.284 N 
HETATM   11  C12 UNL     1      17.404  50.389   9.780  1.00  0.00     0.161 A 
HETATM   12  N10 UNL     1      17.843  51.652   9.571  1.00  0.00    -0.174 N 
ATOM     13  H10 UNL     1      18.415  52.127  10.269  1.00  0.00     0.186 HD
ENDROOT
BRANCH  10  14
HETATM   14  C6  UNL     1      18.354  49.853  12.047  1.00  0.00     0.063 C 
HETATM   15  C7  UNL     1      17.518  50.016  13.288  1.00  0.00     0.262 C 
HETATM   16  C8  UNL     1      18.397  50.776  14.293  1.00  0.00     0.185 C 
HETATM   17  C9  UNL     1      19.649  50.046  14.612  1.00  0.00     0.180 C 
HETATM   18  C10 UNL     1      20.078  49.000  13.647  1.00  0.00     0.223 C 
HETATM   19  C11 UNL     1      19.666  49.194  12.224  1.00  0.00     0.263 C 
BRANCH  15  20
HETATM   20  N7  UNL     1      17.027  48.879  13.933  1.00  0.00    -0.067 N 
ATOM     21  H73 UNL     1      17.625  48.672  14.733  1.00  0.00     0.275 HD
ATOM     22  H72 UNL     1      16.150  49.117  14.395  1.00  0.00     0.275 HD
ATOM     23  H71 UNL     1      16.891  48.022  13.395  1.00  0.00     0.275 HD
ENDBRANCH  15  20
BRANCH  16  24
HETATM   24  O2  UNL     1      18.673  52.012  13.715  1.00  0.00    -0.390 OA
ATOM     25  H2  UNL     1      18.020  52.143  13.038  1.00  0.00     0.210 HD
ENDBRANCH  16  24
BRANCH  17  26
HETATM   26  O3  UNL     1      20.646  51.000  14.834  1.00  0.00    -0.391 OA
ATOM     27  H3  UNL     1      20.526  51.693  14.196  1.00  0.00     0.210 HD
ENDBRANCH  17  26
BRANCH  18  28
HETATM   28  N8  UNL     1      21.512  48.884  13.707  1.00  0.00    -0.145 N 
HETATM   29  O4  UNL     1      22.127  49.199  14.732  1.00  0.00    -0.536 OA
HETATM   30  O5  UNL     1      22.231  48.426  12.638  1.00  0.00    -0.536 OA
ENDBRANCH  18  28
BRANCH  19  31
HETATM   31  N9  UNL     1      20.700  50.015  11.557  1.00  0.00    -0.068 N 
ATOM     32  H93 UNL     1      20.833  50.920  12.010  1.00  0.00     0.275 HD
ATOM     33  H92 UNL     1      21.642  49.649  11.698  1.00  0.00     0.275 HD
ATOM     34  H91 UNL     1      20.459  50.103  10.570  1.00  0.00     0.275 HD
ENDBRANCH  19  31
ENDBRANCH  10  14
BRANCH   9  35
HETATM   35  C5  UNL     1      16.814  47.194  11.321  1.00  0.00     0.445 C 
BRANCH  35  36
HETATM   36  N4  UNL     1      16.349  46.086  10.471  1.00  0.00    -0.043 N 
ATOM     37  H43 UNL     1      16.735  45.195  10.783  1.00  0.00     0.277 HD
ATOM     38  H42 UNL     1      15.358  45.895  10.624  1.00  0.00     0.277 HD
ATOM     39  H41 UNL     1      16.545  46.246   9.483  1.00  0.00     0.277 HD
ENDBRANCH  35  36
BRANCH  35  40
HETATM   40  N5  UNL     1      18.188  46.747  11.664  1.00  0.00    -0.043 N 
ATOM     41  H53 UNL     1      18.334  45.745  11.540  1.00  0.00     0.277 HD
ATOM     42  H52 UNL     1      18.896  47.058  10.999  1.00  0.00     0.277 HD
ATOM     43  H51 UNL     1      18.358  47.068  12.618  1.00  0.00     0.277 HD
ENDBRANCH  35  40
ENDBRANCH   9  35
BRANCH   1  44
HETATM   44  N1  UNL     1      17.935  53.477   8.236  1.00  0.00    -0.234 N 
ATOM     45  H12 UNL     1      17.263  54.241   8.298  1.00  0.00     0.174 HD
ATOM     46  H11 UNL     1      18.916  53.651   8.022  1.00  0.00     0.174 HD
ENDBRANCH   1  44
TORSDOF 10
ENDMDL
MODEL 4
REMARK VINA RESULT: -1.461977643      1.196      2.405
REMARK  10 active torsions:
REMARK  status: ('A' for Active; 'I' for Inactive)
REMARK    1  A    between atoms: N1_1  and  C1_4 
REMARK    2  A    between atoms: C4_12  and  C5_13 
REMARK    3  A    between atoms: C5_13  and  N4_14 
REMARK    4  A    between atoms: C5_13  and  N5_18 
REMARK    5  A    between atoms: N6_22  and  C6_23 
REMARK    6  A    between atoms: C7_24  and  N7_25 
REMARK    7  A    between atoms: C8_29  and  O2_30 
REMARK    8  A    between atoms: C9_32  and  O3_33 
REMARK    9  A    between atoms: C10_35  and  N8_36 
REMARK   10  A    between atoms: C11_39  and  N9_40 
ROOT
HETATM    1  C1  UNL     1      18.934  51.486  14.243  1.00  0.00     0.680 A 
HETATM    2  N2  UNL     1      19.729  50.690  15.001  1.00  0.00    -0.154 N 
ATOM      3  H2  UNL     1      19.864  50.923  15.985  1.00  0.00     0.187 HD
HETATM    4  C2  UNL     1      20.340  49.611  14.502  1.00  0.00     0.290 A 
HETATM    5  O1  UNL     1      21.063  48.908  15.242  1.00  0.00    -0.265 OA
HETATM    6  C3  UNL     1      20.134  49.326  13.170  1.00  0.00     0.148 A 
HETATM    7  N3  UNL     1      20.551  48.386  12.351  1.00  0.00    -0.335 N 
ATOM      8  H3  UNL     1      21.172  47.619  12.609  1.00  0.00     0.167 HD
HETATM    9  C4  UNL     1      20.027  48.586  11.098  1.00  0.00     0.149 A 
HETATM   10  N6  UNL     1      19.265  49.670  11.119  1.00  0.00    -0.284 N 
HETATM   11  C12 UNL     1      19.324  50.144  12.412  1.00  0.00     0.161 A 
HETATM   12  N10 UNL     1      18.725  51.227  12.957  1.00  0.00    -0.174 N 
ATOM     13  H10 UNL     1      18.126  51.831  12.394  1.00  0.00     0.186 HD
ENDROOT
BRANCH  10  14
HETATM   14  C6  UNL     1      18.537  50.235  10.024  1.00  0.00     0.063 C 
HETATM   15  C7  UNL     1      19.346  51.142   9.134  1.00  0.00     0.262 C 
HETATM   16  C8  UNL     1      18.328  51.991   8.359  1.00  0.00     0.185 C 
HETATM   17  C9  UNL     1      17.406  51.163   7.543  1.00  0.00     0.180 C 
HETATM   18  C10 UNL     1      17.288  49.729   7.916  1.00  0.00     0.223 C 
HETATM   19  C11 UNL     1      17.527  49.390   9.352  1.00  0.00     0.263 C 
BRANCH  15  20
HETATM   20  N7  UNL     1      20.221  50.578   8.203  1.00  0.00    -0.067 N 
ATOM     21  H73 UNL     1      21.127  51.039   8.283  1.00  0.00     0.275 HD
ATOM     22  H72 UNL     1      20.451  49.631   8.502  1.00  0.00     0.275 HD
ATOM     23  H71 UNL     1      19.952  50.554   7.219  1.00  0.00     0.275 HD
ENDBRANCH  15  20
BRANCH  16  24
HETATM   24  O2  UNL     1      17.627  52.728   9.310  1.00  0.00    -0.390 OA
ATOM     25  H2  UNL     1      18.112  52.646  10.123  1.00  0.00     0.210 HD
ENDBRANCH  16  24
BRANCH  17  26
HETATM   26  O3  UNL     1      16.167  51.808   7.525  1.00  0.00    -0.391 OA
ATOM     27  H3  UNL     1      16.241  52.555   6.942  1.00  0.00     0.210 HD
ENDBRANCH  17  26
BRANCH  18  28
HETATM   28  N8  UNL     1      15.978  49.267   7.539  1.00  0.00    -0.145 N 
HETATM   29  O4  UNL     1      15.109  49.064   8.396  1.00  0.00    -0.536 OA
HETATM   30  O5  UNL     1      15.656  49.039   6.230  1.00  0.00    -0.536 OA
ENDBRANCH  18  28
BRANCH  19  31
HETATM   31  N9  UNL     1      16.243  49.526  10.073  1.00  0.00    -0.068 N 
ATOM     32  H93 UNL     1      15.950  48.654  10.516  1.00  0.00     0.275 HD
ATOM     33  H92 UNL     1      16.327  50.090  10.919  1.00  0.00     0.275 HD
ATOM     34  H91 UNL     1      15.544  49.892   9.427  1.00  0.00     0.275 HD
ENDBRANCH  19  31
ENDBRANCH  10  14
BRANCH   9  35
HETATM   35  C5  UNL     1      20.363  47.660  10.029  1.00  0.00     0.445 C 
BRANCH  35  36
HETATM   36  N4  UNL     1      21.588  48.053   9.313  1.00  0.00    -0.043 N 
ATOM     37  H43 UNL     1      21.385  48.735   8.582  1.00  0.00     0.277 HD
ATOM     38  H42 UNL     1      22.193  48.623   9.904  1.00  0.00     0.277 HD
ATOM     39  H41 UNL     1      22.091  47.250   8.937  1.00  0.00     0.277 HD
ENDBRANCH  35  36
BRANCH  35  40
HETATM   40  N5  UNL     1      20.798  46.406  10.695  1.00  0.00    -0.043 N 
ATOM     41  H53 UNL     1      21.044  45.662  10.041  1.00  0.00     0.277 HD
ATOM     42  H52 UNL     1      21.709  46.480  11.146  1.00  0.00     0.277 HD
ATOM     43  H51 UNL     1      20.046  46.153  11.335  1.00  0.00     0.277 HD
ENDBRANCH  35  40
ENDBRANCH   9  35
BRANCH   1  44
HETATM   44  N1  UNL     1      18.356  52.532  14.769  1.00  0.00    -0.234 N 
ATOM     45  H12 UNL     1      18.073  52.490  15.748  1.00  0.00     0.174 HD
ATOM     46  H11 UNL     1      18.193  53.367  14.207  1.00  0.00     0.174 HD
ENDBRANCH   1  44
TORSDOF 10
ENDMDL
MODEL 5
REMARK VINA RESULT: 0.151475854      2.477      3.919
REMARK  10 active torsions:
REMARK  status: ('A' for Active; 'I' for Inactive)
REMARK    1  A    between atoms: N1_1  and  C1_4 
REMARK    2  A    between atoms: C4_12  and  C5_13 
REMARK    3  A    between atoms: C5_13  and  N4_14 
REMARK    4  A    between atoms: C5_13  and  N5_18 
REMARK    5  A    between atoms: N6_22  and  C6_23 
REMARK    6  A    between atoms: C7_24  and  N7_25 
REMARK    7  A    between atoms: C8_29  and  O2_30 
REMARK    8  A    between atoms: C9_32  and  O3_33 
REMARK    9  A    between atoms: C10_35  and  N8_36 
REMARK   10  A    between atoms: C11_39  and  N9_40 
ROOT
HETATM    1  C1  UNL     1      20.507  49.282  12.154  1.00  0.00     0.680 A 
HETATM    2  N2  UNL     1      19.757  48.656  13.095  1.00  0.00    -0.154 N 
ATOM      3  H2  UNL     1      20.208  48.333  13.952  1.00  0.00     0.187 HD
HETATM    4  C2  UNL     1      18.445  48.448  12.938  1.00  0.00     0.290 A 
HETATM    5  O1  UNL     1      17.796  47.866  13.836  1.00  0.00    -0.265 OA
HETATM    6  C3  UNL     1      17.868  48.897  11.771  1.00  0.00     0.148 A 
HETATM    7  N3  UNL     1      16.651  48.877  11.274  1.00  0.00    -0.335 N 
ATOM      8  H3  UNL     1      15.838  48.472  11.737  1.00  0.00     0.167 HD
HETATM    9  C4  UNL     1      16.635  49.480  10.041  1.00  0.00     0.149 A 
HETATM   10  N6  UNL     1      17.860  49.890   9.747  1.00  0.00    -0.284 N 
HETATM   11  C12 UNL     1      18.643  49.532  10.824  1.00  0.00     0.161 A 
HETATM   12  N10 UNL     1      19.968  49.721  11.023  1.00  0.00    -0.174 N 
ATOM     13  H10 UNL     1      20.539  50.190  10.320  1.00  0.00     0.186 HD
ENDROOT
BRANCH  10  14
HETATM   14  C6  UNL     1      18.284  50.563   8.557  1.00  0.00     0.063 C 
HETATM   15  C7  UNL     1      18.430  49.671   7.352  1.00  0.00     0.262 C 
HETATM   16  C8  UNL     1      19.320  50.439   6.363  1.00  0.00     0.185 C 
HETATM   17  C9  UNL     1      18.730  51.742   5.968  1.00  0.00     0.180 C 
HETATM   18  C10 UNL     1      17.681  52.300   6.861  1.00  0.00     0.223 C 
HETATM   19  C11 UNL     1      17.763  51.923   8.305  1.00  0.00     0.263 C 
BRANCH  15  20
HETATM   20  N7  UNL     1      17.286  49.266   6.662  1.00  0.00    -0.067 N 
ATOM     21  H73 UNL     1      16.711  50.087   6.470  1.00  0.00     0.275 HD
ATOM     22  H72 UNL     1      17.554  48.985   5.719  1.00  0.00     0.275 HD
ATOM     23  H71 UNL     1      16.694  48.539   7.065  1.00  0.00     0.275 HD
ENDBRANCH  15  20
BRANCH  16  24
HETATM   24  O2  UNL     1      20.546  50.619   6.998  1.00  0.00    -0.390 OA
ATOM     25  H2  UNL     1      20.696  51.556   7.029  1.00  0.00     0.210 HD
ENDBRANCH  16  24
BRANCH  17  26
HETATM   26  O3  UNL     1      19.784  52.637   5.767  1.00  0.00    -0.391 OA
ATOM     27  H3  UNL     1      19.404  53.490   5.586  1.00  0.00     0.210 HD
ENDBRANCH  17  26
BRANCH  18  28
HETATM   28  N8  UNL     1      17.706  53.736   6.752  1.00  0.00    -0.145 N 
HETATM   29  O4  UNL     1      18.471  54.295   5.957  1.00  0.00    -0.536 OA
HETATM   30  O5  UNL     1      16.889  54.519   7.519  1.00  0.00    -0.536 OA
ENDBRANCH  18  28
BRANCH  19  31
HETATM   31  N9  UNL     1      18.644  52.899   8.983  1.00  0.00    -0.068 N 
ATOM     32  H93 UNL     1      19.542  52.495   9.249  1.00  0.00     0.275 HD
ATOM     33  H92 UNL     1      18.994  53.617   8.349  1.00  0.00     0.275 HD
ATOM     34  H91 UNL     1      18.141  53.292   9.778  1.00  0.00     0.275 HD
ENDBRANCH  19  31
ENDBRANCH  10  14
BRANCH   9  35
HETATM   35  C5  UNL     1      15.384  49.563   9.305  1.00  0.00     0.445 C 
BRANCH  35  36
HETATM   36  N4  UNL     1      15.420  50.595   8.255  1.00  0.00    -0.043 N 
ATOM     37  H43 UNL     1      15.766  50.213   7.375  1.00  0.00     0.277 HD
ATOM     38  H42 UNL     1      14.478  50.853   7.961  1.00  0.00     0.277 HD
ATOM     39  H41 UNL     1      15.956  51.415   8.537  1.00  0.00     0.277 HD
ENDBRANCH  35  36
BRANCH  35  40
HETATM   40  N5  UNL     1      15.301  48.320   8.496  1.00  0.00    -0.043 N 
ATOM     41  H53 UNL     1      15.262  47.470   9.059  1.00  0.00     0.277 HD
ATOM     42  H52 UNL     1      14.404  48.199   8.026  1.00  0.00     0.277 HD
ATOM     43  H51 UNL     1      16.095  48.348   7.856  1.00  0.00     0.277 HD
ENDBRANCH  35  40
ENDBRANCH   9  35
BRANCH   1  44
HETATM   44  N1  UNL     1      21.786  49.464  12.346  1.00  0.00    -0.234 N 
ATOM     45  H12 UNL     1      22.352  49.798  11.566  1.00  0.00     0.174 HD
ATOM     46  H11 UNL     1      22.201  49.273  13.258  1.00  0.00     0.174 HD
ENDBRANCH   1  44
TORSDOF 10
ENDMDL
