MODEL 1
REMARK VINA RESULT: -0.639556409      0.000      0.000
REMARK  8 active torsions:
REMARK  status: ('A' for Active; 'I' for Inactive)
REMARK    1  A    between atoms: N1_1  and  N2_4 
REMARK       I    between atoms: N2_4  and  C1_6 
REMARK    2  A    between atoms: C1_6  and  C2_8 
REMARK    3  A    between atoms: C4_12  and  N4_13 
REMARK       I    between atoms: N4_13  and  C5_15 
REMARK       I    between atoms: C5_15  and  N5_16 
REMARK       I    between atoms: C5_15  and  N6_20 
REMARK    4  A    between atoms: N9_30  and  C8_31 
REMARK    5  A    between atoms: C9_32  and  N10_33 
REMARK    6  A    between atoms: C11_38  and  N11_39 
REMARK    7  A    between atoms: C12_43  and  O2_44 
REMARK    8  A    between atoms: C13_46  and  O3_47 
ROOT
HETATM    1  C2  UNL     1      17.856  48.698  10.796  1.00  0.00     0.185 A 
HETATM    2  N3  UNL     1      17.099  48.811   9.638  1.00  0.00    -0.331 N 
ATOM      3  H3  UNL     1      16.469  48.115   9.240  1.00  0.00     0.168 HD
HETATM    4  C3  UNL     1      17.372  50.025   9.161  1.00  0.00     0.123 A 
HETATM    5  C4  UNL     1      16.902  50.659   8.012  1.00  0.00     0.136 A 
HETATM    6  N7  UNL     1      17.325  51.882   7.713  1.00  0.00    -0.337 N 
ATOM      7  H7  UNL     1      16.984  52.350   6.873  1.00  0.00     0.168 HD
HETATM    8  C6  UNL     1      18.201  52.498   8.518  1.00  0.00     0.183 A 
HETATM    9  N8  UNL     1      18.637  51.882   9.605  1.00  0.00    -0.336 N 
ATOM     10  H8  UNL     1      19.304  52.379  10.195  1.00  0.00     0.168 HD
HETATM   11  C7  UNL     1      18.266  50.654   9.984  1.00  0.00     0.145 A 
HETATM   12  N9  UNL     1      18.553  49.787  11.017  1.00  0.00    -0.280 N 
ENDROOT
BRANCH  12  13
HETATM   13  C8  UNL     1      19.444  50.247  12.049  1.00  0.00     0.059 C 
HETATM   14  C9  UNL     1      20.801  49.757  12.163  1.00  0.00     0.234 C 
HETATM   15  C10 UNL     1      21.439  50.642  13.302  1.00  0.00     0.074 C 
HETATM   16  C11 UNL     1      20.920  50.147  14.622  1.00  0.00     0.217 C 
HETATM   17  C12 UNL     1      19.466  49.826  14.586  1.00  0.00     0.183 C 
HETATM   18  C13 UNL     1      18.739  50.353  13.392  1.00  0.00     0.197 C 
BRANCH  14  19
HETATM   19  N10 UNL     1      21.095  48.451  12.594  1.00  0.00    -0.070 N 
ATOM     20 3H10 UNL     1      20.281  47.869  12.396  1.00  0.00     0.275 HD
ATOM     21 2H10 UNL     1      21.795  48.065  11.958  1.00  0.00     0.275 HD
ATOM     22 1H10 UNL     1      21.397  48.245  13.546  1.00  0.00     0.275 HD
ENDBRANCH  14  19
BRANCH  16  23
HETATM   23  N11 UNL     1      21.696  48.994  15.011  1.00  0.00    -0.072 N 
ATOM     24 3H11 UNL     1      21.113  48.187  15.235  1.00  0.00     0.274 HD
ATOM     25 2H11 UNL     1      22.207  48.584  14.231  1.00  0.00     0.274 HD
ATOM     26 1H11 UNL     1      22.307  49.263  15.782  1.00  0.00     0.274 HD
ENDBRANCH  16  23
BRANCH  17  27
HETATM   27  O2  UNL     1      19.182  48.507  14.895  1.00  0.00    -0.391 OA
ATOM     28  H2  UNL     1      18.483  48.408  15.530  1.00  0.00     0.210 HD
ENDBRANCH  17  27
BRANCH  18  29
HETATM   29  O3  UNL     1      18.445  51.703  13.705  1.00  0.00    -0.387 OA
ATOM     30  H3  UNL     1      18.106  51.781  14.589  1.00  0.00     0.210 HD
ENDBRANCH  18  29
ENDBRANCH  12  13
BRANCH   1  31
HETATM   31  C1  UNL     1      17.739  47.468  11.513  1.00  0.00     0.304 C 
HETATM   32  N2  UNL     1      18.559  47.102  12.580  1.00  0.00    -0.270 N 
ATOM     33  H2  UNL     1      19.283  47.758  12.873  1.00  0.00     0.189 HD
HETATM   34  O1  UNL     1      16.852  46.652  11.159  1.00  0.00    -0.263 OA
BRANCH  32  35
HETATM   35  N1  UNL     1      18.449  45.899  13.268  1.00  0.00    -0.342 N 
ATOM     36  H12 UNL     1      17.985  45.927  14.175  1.00  0.00     0.176 HD
ATOM     37  H11 UNL     1      18.803  45.008  12.918  1.00  0.00     0.176 HD
ENDBRANCH  32  35
ENDBRANCH   1  31
BRANCH   5  38
HETATM   38  N4  UNL     1      16.057  49.994   7.289  1.00  0.00    -0.325 N 
HETATM   39  C5  UNL     1      16.379  49.423   6.026  1.00  0.00     0.481 C 
HETATM   40  N5  UNL     1      16.948  48.090   6.131  1.00  0.00    -0.033 N 
HETATM   41  N6  UNL     1      15.130  49.271   5.275  1.00  0.00    -0.033 N 
ATOM     42  H53 UNL     1      17.761  48.090   6.747  1.00  0.00     0.278 HD
ATOM     43  H52 UNL     1      16.335  47.473   6.664  1.00  0.00     0.278 HD
ATOM     44  H51 UNL     1      17.179  47.681   5.226  1.00  0.00     0.278 HD
ATOM     45  H63 UNL     1      14.424  48.738   5.783  1.00  0.00     0.278 HD
ATOM     46  H62 UNL     1      14.608  50.143   5.194  1.00  0.00     0.278 HD
ATOM     47  H61 UNL     1      15.360  48.861   4.370  1.00  0.00     0.278 HD
ATOM     48  H4  UNL     1      15.109  49.873   7.646  1.00  0.00     0.165 HD
ENDBRANCH   5  38
TORSDOF 8
ENDMDL
MODEL 2
REMARK VINA RESULT: 0.252957343      3.372      4.944
REMARK  8 active torsions:
REMARK  status: ('A' for Active; 'I' for Inactive)
REMARK    1  A    between atoms: N1_1  and  N2_4 
REMARK       I    between atoms: N2_4  and  C1_6 
REMARK    2  A    between atoms: C1_6  and  C2_8 
REMARK    3  A    between atoms: C4_12  and  N4_13 
REMARK       I    between atoms: N4_13  and  C5_15 
REMARK       I    between atoms: C5_15  and  N5_16 
REMARK       I    between atoms: C5_15  and  N6_20 
REMARK    4  A    between atoms: N9_30  and  C8_31 
REMARK    5  A    between atoms: C9_32  and  N10_33 
REMARK    6  A    between atoms: C11_38  and  N11_39 
REMARK    7  A    between atoms: C12_43  and  O2_44 
REMARK    8  A    between atoms: C13_46  and  O3_47 
ROOT
HETATM    1  C2  UNL     1      20.049  50.527   7.293  1.00  0.00     0.185 A 
HETATM    2  N3  UNL     1      20.073  51.262   6.116  1.00  0.00    -0.331 N 
ATOM      3  H3  UNL     1      20.615  51.066   5.274  1.00  0.00     0.168 HD
HETATM    4  C3  UNL     1      19.236  52.279   6.323  1.00  0.00     0.123 A 
HETATM    5  C4  UNL     1      18.890  53.335   5.483  1.00  0.00     0.136 A 
HETATM    6  N7  UNL     1      18.036  54.262   5.905  1.00  0.00    -0.337 N 
ATOM      7  H7  UNL     1      17.779  55.037   5.294  1.00  0.00     0.168 HD
HETATM    8  C6  UNL     1      17.516  54.175   7.136  1.00  0.00     0.183 A 
HETATM    9  N8  UNL     1      17.856  53.166   7.922  1.00  0.00    -0.336 N 
ATOM     10  H8  UNL     1      17.442  53.130   8.853  1.00  0.00     0.168 HD
HETATM   11  C7  UNL     1      18.704  52.189   7.581  1.00  0.00     0.145 A 
HETATM   12  N9  UNL     1      19.237  51.063   8.172  1.00  0.00    -0.280 N 
ENDROOT
BRANCH  12  13
HETATM   13  C8  UNL     1      18.786  50.726   9.497  1.00  0.00     0.059 C 
HETATM   14  C9  UNL     1      19.592  49.931  10.399  1.00  0.00     0.234 C 
HETATM   15  C10 UNL     1      18.793  49.958  11.759  1.00  0.00     0.074 C 
HETATM   16  C11 UNL     1      17.625  49.022  11.631  1.00  0.00     0.217 C 
HETATM   17  C12 UNL     1      16.947  49.122  10.309  1.00  0.00     0.183 C 
HETATM   18  C13 UNL     1      17.320  50.326   9.506  1.00  0.00     0.197 C 
BRANCH  14  19
HETATM   19  N10 UNL     1      19.807  48.555  10.202  1.00  0.00    -0.070 N 
ATOM     20 3H10 UNL     1      18.894  48.106  10.139  1.00  0.00     0.275 HD
ATOM     21 2H10 UNL     1      20.174  48.432   9.258  1.00  0.00     0.275 HD
ATOM     22 1H10 UNL     1      20.384  47.997  10.832  1.00  0.00     0.275 HD
ENDBRANCH  14  19
BRANCH  16  23
HETATM   23  N11 UNL     1      18.093  47.677  11.872  1.00  0.00    -0.072 N 
ATOM     24 3H11 UNL     1      19.039  47.522  11.523  1.00  0.00     0.274 HD
ATOM     25 2H11 UNL     1      18.278  47.498  12.859  1.00  0.00     0.274 HD
ATOM     26 1H11 UNL     1      17.416  47.026  11.475  1.00  0.00     0.274 HD
ENDBRANCH  16  23
BRANCH  17  27
HETATM   27  O2  UNL     1      16.942  47.936   9.596  1.00  0.00    -0.391 OA
ATOM     28  H2  UNL     1      16.086  47.696   9.263  1.00  0.00     0.210 HD
ENDBRANCH  17  27
BRANCH  18  29
HETATM   29  O3  UNL     1      16.511  51.373  10.013  1.00  0.00    -0.387 OA
ATOM     30  H3  UNL     1      16.362  51.266  10.945  1.00  0.00     0.210 HD
ENDBRANCH  18  29
ENDBRANCH  12  13
BRANCH   1  31
HETATM   31  C1  UNL     1      20.873  49.360   7.329  1.00  0.00     0.304 C 
HETATM   32  N2  UNL     1      21.337  48.694   6.196  1.00  0.00    -0.270 N 
ATOM     33  H2  UNL     1      21.079  49.067   5.282  1.00  0.00     0.189 HD
HETATM   34  O1  UNL     1      21.195  48.891   8.449  1.00  0.00    -0.263 OA
BRANCH  32  35
HETATM   35  N1  UNL     1      22.129  47.553   6.235  1.00  0.00    -0.342 N 
ATOM     36  H12 UNL     1      22.288  47.131   7.150  1.00  0.00     0.176 HD
ATOM     37  H11 UNL     1      22.552  47.124   5.412  1.00  0.00     0.176 HD
ENDBRANCH  32  35
ENDBRANCH   1  31
BRANCH   5  38
HETATM   38  N4  UNL     1      19.437  53.344   4.310  1.00  0.00    -0.325 N 
HETATM   39  C5  UNL     1      20.612  54.082   3.993  1.00  0.00     0.481 C 
HETATM   40  N5  UNL     1      21.837  53.355   4.279  1.00  0.00    -0.033 N 
HETATM   41  N6  UNL     1      20.612  54.322   2.548  1.00  0.00    -0.033 N 
ATOM     42  H53 UNL     1      21.855  53.042   5.250  1.00  0.00     0.278 HD
ATOM     43  H52 UNL     1      21.840  52.449   3.810  1.00  0.00     0.278 HD
ATOM     44  H51 UNL     1      22.679  53.884   4.053  1.00  0.00     0.278 HD
ATOM     45  H63 UNL     1      20.525  53.464   2.003  1.00  0.00     0.278 HD
ATOM     46  H62 UNL     1      19.760  54.776   2.222  1.00  0.00     0.278 HD
ATOM     47  H61 UNL     1      21.454  54.851   2.322  1.00  0.00     0.278 HD
ATOM     48  H4  UNL     1      19.002  52.791   3.571  1.00  0.00     0.165 HD
ENDBRANCH   5  38
TORSDOF 8
ENDMDL
MODEL 3
REMARK VINA RESULT: 0.664824530      0.992      1.115
REMARK  8 active torsions:
REMARK  status: ('A' for Active; 'I' for Inactive)
REMARK    1  A    between atoms: N1_1  and  N2_4 
REMARK       I    between atoms: N2_4  and  C1_6 
REMARK    2  A    between atoms: C1_6  and  C2_8 
REMARK    3  A    between atoms: C4_12  and  N4_13 
REMARK       I    between atoms: N4_13  and  C5_15 
REMARK       I    between atoms: C5_15  and  N5_16 
REMARK       I    between atoms: C5_15  and  N6_20 
REMARK    4  A    between atoms: N9_30  and  C8_31 
REMARK    5  A    between atoms: C9_32  and  N10_33 
REMARK    6  A    between atoms: C11_38  and  N11_39 
REMARK    7  A    between atoms: C12_43  and  O2_44 
REMARK    8  A    between atoms: C13_46  and  O3_47 
ROOT
HETATM    1  C2  UNL     1      17.678  48.995  10.183  1.00  0.00     0.185 A 
HETATM    2  N3  UNL     1      17.162  49.273   8.924  1.00  0.00    -0.331 N 
ATOM      3  H3  UNL     1      16.413  48.780   8.439  1.00  0.00     0.168 HD
HETATM    4  C3  UNL     1      17.858  50.324   8.488  1.00  0.00     0.123 A 
HETATM    5  C4  UNL     1      17.771  51.011   7.279  1.00  0.00     0.136 A 
HETATM    6  N7  UNL     1      18.585  52.034   7.042  1.00  0.00    -0.337 N 
ATOM      7  H7  UNL     1      18.526  52.541   6.159  1.00  0.00     0.168 HD
HETATM    8  C6  UNL     1      19.484  52.397   7.967  1.00  0.00     0.183 A 
HETATM    9  N8  UNL     1      19.553  51.733   9.110  1.00  0.00    -0.336 N 
ATOM     10  H8  UNL     1      20.249  52.034   9.791  1.00  0.00     0.168 HD
HETATM   11  C7  UNL     1      18.775  50.694   9.433  1.00  0.00     0.145 A 
HETATM   12  N9  UNL     1      18.635  49.833  10.501  1.00  0.00    -0.280 N 
ENDROOT
BRANCH  12  13
HETATM   13  C8  UNL     1      19.468  50.054  11.654  1.00  0.00     0.059 C 
HETATM   14  C9  UNL     1      20.710  49.338  11.848  1.00  0.00     0.234 C 
HETATM   15  C10 UNL     1      21.350  50.011  13.123  1.00  0.00     0.074 C 
HETATM   16  C11 UNL     1      20.618  49.504  14.334  1.00  0.00     0.217 C 
HETATM   17  C12 UNL     1      19.144  49.433  14.129  1.00  0.00     0.183 C 
HETATM   18  C13 UNL     1      18.645  50.168  12.927  1.00  0.00     0.197 C 
BRANCH  14  19
HETATM   19  N10 UNL     1      20.747  47.971  12.177  1.00  0.00    -0.070 N 
ATOM     20 3H10 UNL     1      19.831  47.717  12.547  1.00  0.00     0.275 HD
ATOM     21 2H10 UNL     1      20.780  47.443  11.304  1.00  0.00     0.275 HD
ATOM     22 1H10 UNL     1      21.452  47.578  12.801  1.00  0.00     0.275 HD
ENDBRANCH  14  19
BRANCH  16  23
HETATM   23  N11 UNL     1      21.156  48.211  14.682  1.00  0.00    -0.072 N 
ATOM     24 3H11 UNL     1      22.058  48.029  14.241  1.00  0.00     0.274 HD
ATOM     25 2H11 UNL     1      21.463  48.162  15.653  1.00  0.00     0.274 HD
ATOM     26 1H11 UNL     1      20.458  47.502  14.456  1.00  0.00     0.274 HD
ENDBRANCH  16  23
BRANCH  17  27
HETATM   27  O2  UNL     1      18.625  48.160  14.279  1.00  0.00    -0.391 OA
ATOM     28  H2  UNL     1      17.734  48.073  13.961  1.00  0.00     0.210 HD
ENDBRANCH  17  27
BRANCH  18  29
HETATM   29  O3  UNL     1      18.534  51.519  13.341  1.00  0.00    -0.387 OA
ATOM     30  H3  UNL     1      17.635  51.733  13.562  1.00  0.00     0.210 HD
ENDBRANCH  18  29
ENDBRANCH  12  13
BRANCH   1  31
HETATM   31  C1  UNL     1      17.090  47.894  10.880  1.00  0.00     0.304 C 
HETATM   32  N2  UNL     1      17.777  47.082  11.781  1.00  0.00    -0.270 N 
ATOM     33  H2  UNL     1      18.759  47.292  11.962  1.00  0.00     0.189 HD
HETATM   34  O1  UNL     1      15.882  47.626  10.663  1.00  0.00    -0.263 OA
BRANCH  32  35
HETATM   35  N1  UNL     1      17.205  46.005  12.449  1.00  0.00    -0.342 N 
ATOM     36  H12 UNL     1      16.504  46.220  13.158  1.00  0.00     0.176 HD
ATOM     37  H11 UNL     1      17.445  45.030  12.268  1.00  0.00     0.176 HD
ENDBRANCH  32  35
ENDBRANCH   1  31
BRANCH   5  38
HETATM   38  N4  UNL     1      16.876  50.597   6.441  1.00  0.00    -0.325 N 
HETATM   39  C5  UNL     1      15.956  49.548   6.723  1.00  0.00     0.481 C 
HETATM   40  N5  UNL     1      14.751  50.009   7.391  1.00  0.00    -0.033 N 
HETATM   41  N6  UNL     1      15.519  48.982   5.445  1.00  0.00    -0.033 N 
ATOM     42  H53 UNL     1      14.982  50.528   8.238  1.00  0.00     0.278 HD
ATOM     43  H52 UNL     1      14.301  50.752   6.857  1.00  0.00     0.278 HD
ATOM     44  H51 UNL     1      14.093  49.257   7.594  1.00  0.00     0.278 HD
ATOM     45  H63 UNL     1      15.137  49.684   4.811  1.00  0.00     0.278 HD
ATOM     46  H62 UNL     1      16.297  48.681   4.859  1.00  0.00     0.278 HD
ATOM     47  H61 UNL     1      14.861  48.231   5.647  1.00  0.00     0.278 HD
ATOM     48  H4  UNL     1      16.826  51.048   5.528  1.00  0.00     0.165 HD
ENDBRANCH   5  38
TORSDOF 8
ENDMDL
MODEL 4
REMARK VINA RESULT: 0.821379889      2.313      3.440
REMARK  8 active torsions:
REMARK  status: ('A' for Active; 'I' for Inactive)
REMARK    1  A    between atoms: N1_1  and  N2_4 
REMARK       I    between atoms: N2_4  and  C1_6 
REMARK    2  A    between atoms: C1_6  and  C2_8 
REMARK    3  A    between atoms: C4_12  and  N4_13 
REMARK       I    between atoms: N4_13  and  C5_15 
REMARK       I    between atoms: C5_15  and  N5_16 
REMARK       I    between atoms: C5_15  and  N6_20 
REMARK    4  A    between atoms: N9_30  and  C8_31 
REMARK    5  A    between atoms: C9_32  and  N10_33 
REMARK    6  A    between atoms: C11_38  and  N11_39 
REMARK    7  A    between atoms: C12_43  and  O2_44 
REMARK    8  A    between atoms: C13_46  and  O3_47 
ROOT
HETATM    1  C2  UNL     1      19.297  49.494   9.617  1.00  0.00     0.185 A 
HETATM    2  N3  UNL     1      19.119  50.070   8.366  1.00  0.00    -0.331 N 
ATOM      3  H3  UNL     1      19.831  50.240   7.656  1.00  0.00     0.168 HD
HETATM    4  C3  UNL     1      17.818  50.352   8.295  1.00  0.00     0.123 A 
HETATM    5  C4  UNL     1      17.091  50.954   7.270  1.00  0.00     0.136 A 
HETATM    6  N7  UNL     1      15.787  51.159   7.419  1.00  0.00    -0.337 N 
ATOM      7  H7  UNL     1      15.249  51.599   6.672  1.00  0.00     0.168 HD
HETATM    8  C6  UNL     1      15.180  50.785   8.553  1.00  0.00     0.183 A 
HETATM    9  N8  UNL     1      15.886  50.215   9.517  1.00  0.00    -0.336 N 
ATOM     10  H8  UNL     1      15.393  49.944  10.368  1.00  0.00     0.168 HD
HETATM   11  C7  UNL     1      17.199  49.970   9.454  1.00  0.00     0.145 A 
HETATM   12  N9  UNL     1      18.164  49.424  10.274  1.00  0.00    -0.280 N 
ENDROOT
BRANCH  12  13
HETATM   13  C8  UNL     1      17.743  48.899  11.546  1.00  0.00     0.059 C 
HETATM   14  C9  UNL     1      17.906  49.647  12.774  1.00  0.00     0.234 C 
HETATM   15  C10 UNL     1      17.167  48.775  13.861  1.00  0.00     0.074 C 
HETATM   16  C11 UNL     1      18.050  47.608  14.200  1.00  0.00     0.217 C 
HETATM   17  C12 UNL     1      18.694  47.003  13.001  1.00  0.00     0.183 C 
HETATM   18  C13 UNL     1      18.107  47.431  11.695  1.00  0.00     0.197 C 
BRANCH  14  19
HETATM   19  N10 UNL     1      19.166  49.861  13.363  1.00  0.00    -0.070 N 
ATOM     20 3H10 UNL     1      19.337  50.866  13.370  1.00  0.00     0.275 HD
ATOM     21 2H10 UNL     1      19.082  49.650  14.358  1.00  0.00     0.275 HD
ATOM     22 1H10 UNL     1      20.012  49.406  13.022  1.00  0.00     0.275 HD
ENDBRANCH  14  19
BRANCH  16  23
HETATM   23  N11 UNL     1      19.041  48.049  15.153  1.00  0.00    -0.072 N 
ATOM     24 3H11 UNL     1      19.418  48.970  14.928  1.00  0.00     0.274 HD
ATOM     25 2H11 UNL     1      18.636  48.283  16.059  1.00  0.00     0.274 HD
ATOM     26 1H11 UNL     1      19.764  47.334  15.219  1.00  0.00     0.274 HD
ENDBRANCH  16  23
BRANCH  17  27
HETATM   27  O2  UNL     1      20.077  47.028  13.043  1.00  0.00    -0.391 OA
ATOM     28  H2  UNL     1      20.479  46.200  12.807  1.00  0.00     0.210 HD
ENDBRANCH  17  27
BRANCH  18  29
HETATM   29  O3  UNL     1      16.970  46.604  11.514  1.00  0.00    -0.387 OA
ATOM     30  H3  UNL     1      17.160  45.890  10.917  1.00  0.00     0.210 HD
ENDBRANCH  18  29
ENDBRANCH  12  13
BRANCH   1  31
HETATM   31  C1  UNL     1      20.627  49.090   9.946  1.00  0.00     0.304 C 
HETATM   32  N2  UNL     1      21.093  48.916  11.248  1.00  0.00    -0.270 N 
ATOM     33  H2  UNL     1      20.442  49.079  12.015  1.00  0.00     0.189 HD
HETATM   34  O1  UNL     1      21.440  48.889   9.008  1.00  0.00    -0.263 OA
BRANCH  32  35
HETATM   35  N1  UNL     1      22.392  48.534  11.564  1.00  0.00    -0.342 N 
ATOM     36  H12 UNL     1      23.143  49.156  11.264  1.00  0.00     0.176 HD
ATOM     37  H11 UNL     1      22.628  47.681  12.072  1.00  0.00     0.176 HD
ENDBRANCH  32  35
ENDBRANCH   1  31
BRANCH   5  38
HETATM   38  N4  UNL     1      17.753  51.284   6.208  1.00  0.00    -0.325 N 
HETATM   39  C5  UNL     1      18.728  52.320   6.176  1.00  0.00     0.481 C 
HETATM   40  N5  UNL     1      20.056  51.867   6.553  1.00  0.00    -0.033 N 
HETATM   41  N6  UNL     1      18.838  52.787   4.791  1.00  0.00    -0.033 N 
ATOM     42  H53 UNL     1      20.038  51.412   7.466  1.00  0.00     0.278 HD
ATOM     43  H52 UNL     1      20.347  51.076   5.977  1.00  0.00     0.278 HD
ATOM     44  H51 UNL     1      20.754  52.609   6.530  1.00  0.00     0.278 HD
ATOM     45  H63 UNL     1      19.039  52.033   4.134  1.00  0.00     0.278 HD
ATOM     46  H62 UNL     1      17.942  53.073   4.398  1.00  0.00     0.278 HD
ATOM     47  H61 UNL     1      19.536  53.529   4.769  1.00  0.00     0.278 HD
ATOM     48  H4  UNL     1      17.565  50.772   5.345  1.00  0.00     0.165 HD
ENDBRANCH   5  38
TORSDOF 8
ENDMDL
MODEL 5
REMARK VINA RESULT: 0.944097111      2.505      3.371
REMARK  8 active torsions:
REMARK  status: ('A' for Active; 'I' for Inactive)
REMARK    1  A    between atoms: N1_1  and  N2_4 
REMARK       I    between atoms: N2_4  and  C1_6 
REMARK    2  A    between atoms: C1_6  and  C2_8 
REMARK    3  A    between atoms: C4_12  and  N4_13 
REMARK       I    between atoms: N4_13  and  C5_15 
REMARK       I    between atoms: C5_15  and  N5_16 
REMARK       I    between atoms: C5_15  and  N6_20 
REMARK    4  A    between atoms: N9_30  and  C8_31 
REMARK    5  A    between atoms: C9_32  and  N10_33 
REMARK    6  A    between atoms: C11_38  and  N11_39 
REMARK    7  A    between atoms: C12_43  and  O2_44 
REMARK    8  A    between atoms: C13_46  and  O3_47 
ROOT
HETATM    1  C2  UNL     1      19.653  49.944   9.074  1.00  0.00     0.185 A 
HETATM    2  N3  UNL     1      19.618  50.529   7.815  1.00  0.00    -0.331 N 
ATOM      3  H3  UNL     1      20.155  50.258   6.991  1.00  0.00     0.168 HD
HETATM    4  C3  UNL     1      18.730  51.517   7.915  1.00  0.00     0.123 A 
HETATM    5  C4  UNL     1      18.311  52.441   6.959  1.00  0.00     0.136 A 
HETATM    6  N7  UNL     1      17.415  53.367   7.283  1.00  0.00    -0.337 N 
ATOM      7  H7  UNL     1      17.105  54.045   6.587  1.00  0.00     0.168 HD
HETATM    8  C6  UNL     1      16.921  53.406   8.527  1.00  0.00     0.183 A 
HETATM    9  N8  UNL     1      17.329  52.522   9.424  1.00  0.00    -0.336 N 
ATOM     10  H8  UNL     1      16.933  52.580  10.362  1.00  0.00     0.168 HD
HETATM   11  C7  UNL     1      18.224  51.557   9.186  1.00  0.00     0.145 A 
HETATM   12  N9  UNL     1      18.828  50.543   9.899  1.00  0.00    -0.280 N 
ENDROOT
BRANCH  12  13
HETATM   13  C8  UNL     1      18.418  50.349  11.265  1.00  0.00     0.059 C 
HETATM   14  C9  UNL     1      19.292  50.659  12.376  1.00  0.00     0.234 C 
HETATM   15  C10 UNL     1      18.385  50.457  13.651  1.00  0.00     0.074 C 
HETATM   16  C11 UNL     1      18.245  48.980  13.893  1.00  0.00     0.217 C 
HETATM   17  C12 UNL     1      18.034  48.208  12.637  1.00  0.00     0.183 C 
HETATM   18  C13 UNL     1      17.674  49.037  11.447  1.00  0.00     0.197 C 
BRANCH  14  19
HETATM   19  N10 UNL     1      20.424  49.882  12.683  1.00  0.00    -0.070 N 
ATOM     20 3H10 UNL     1      20.968  50.390  13.381  1.00  0.00     0.275 HD
ATOM     21 2H10 UNL     1      20.106  49.068  13.210  1.00  0.00     0.275 HD
ATOM     22 1H10 UNL     1      21.071  49.553  11.967  1.00  0.00     0.275 HD
ENDBRANCH  14  19
BRANCH  16  23
HETATM   23  N11 UNL     1      19.422  48.521  14.592  1.00  0.00    -0.072 N 
ATOM     24 3H11 UNL     1      20.145  48.177  13.960  1.00  0.00     0.274 HD
ATOM     25 2H11 UNL     1      19.953  49.284  15.009  1.00  0.00     0.274 HD
ATOM     26 1H11 UNL     1      19.135  47.822  15.278  1.00  0.00     0.274 HD
ENDBRANCH  16  23
BRANCH  17  27
HETATM   27  O2  UNL     1      19.012  47.258  12.400  1.00  0.00    -0.391 OA
ATOM     28  H2  UNL     1      19.861  47.490  12.757  1.00  0.00     0.210 HD
ENDBRANCH  17  27
BRANCH  18  29
HETATM   29  O3  UNL     1      16.278  49.256  11.560  1.00  0.00    -0.387 OA
ATOM     30  H3  UNL     1      15.996  49.193  12.465  1.00  0.00     0.210 HD
ENDBRANCH  18  29
ENDBRANCH  12  13
BRANCH   1  31
HETATM   31  C1  UNL     1      20.542  48.837   9.235  1.00  0.00     0.304 C 
HETATM   32  N2  UNL     1      20.508  47.957  10.315  1.00  0.00    -0.270 N 
ATOM     33  H2  UNL     1      19.799  48.107  11.033  1.00  0.00     0.189 HD
HETATM   34  O1  UNL     1      21.420  48.644   8.358  1.00  0.00    -0.263 OA
BRANCH  32  35
HETATM   35  N1  UNL     1      21.381  46.887  10.474  1.00  0.00    -0.342 N 
ATOM     36  H12 UNL     1      21.146  46.201  11.191  1.00  0.00     0.176 HD
ATOM     37  H11 UNL     1      22.228  46.755   9.921  1.00  0.00     0.176 HD
ENDBRANCH  32  35
ENDBRANCH   1  31
BRANCH   5  38
HETATM   38  N4  UNL     1      18.838  52.333   5.781  1.00  0.00    -0.325 N 
HETATM   39  C5  UNL     1      19.960  53.094   5.346  1.00  0.00     0.481 C 
HETATM   40  N5  UNL     1      21.232  52.483   5.692  1.00  0.00    -0.033 N 
HETATM   41  N6  UNL     1      19.921  53.147   3.883  1.00  0.00    -0.033 N 
ATOM     42  H53 UNL     1      21.285  52.298   6.694  1.00  0.00     0.278 HD
ATOM     43  H52 UNL     1      21.284  51.527   5.342  1.00  0.00     0.278 HD
ATOM     44  H51 UNL     1      22.036  53.028   5.381  1.00  0.00     0.278 HD
ATOM     45  H63 UNL     1      19.879  52.223   3.453  1.00  0.00     0.278 HD
ATOM     46  H62 UNL     1      19.037  53.504   3.523  1.00  0.00     0.278 HD
ATOM     47  H61 UNL     1      20.725  53.692   3.572  1.00  0.00     0.278 HD
ATOM     48  H4  UNL     1      18.427  51.665   5.129  1.00  0.00     0.165 HD
ENDBRANCH   5  38
TORSDOF 8
ENDMDL
