MODEL 1
REMARK VINA RESULT: -7.711068742      0.000      0.000
REMARK  8 active torsions:
REMARK  status: ('A' for Active; 'I' for Inactive)
REMARK    1  A    between atoms: O1_2  and  C2_3 
REMARK    2  A    between atoms: C4_5  and  C5_6 
REMARK    3  A    between atoms: N2_14  and  C9_15 
REMARK    4  A    between atoms: C9_15  and  C10_16 
REMARK    5  A    between atoms: C11_17  and  C12_18 
REMARK    6  A    between atoms: C13_19  and  C14_20 
REMARK    7  A    between atoms: C14_20  and  C15_21 
REMARK    8  A    between atoms: N3_27  and  C19_28 
ROOT
HETATM    1  C15 UNL     1      10.958  22.759  47.112  1.00  0.00    -0.082 C 
HETATM    2  C16 UNL     1      10.609  23.878  46.834  1.00  0.00    -0.023 C 
HETATM    3 BR1  UNL     1      10.093  25.640  46.400  1.00  0.00     0.010 Br
ENDROOT
BRANCH   1   4
HETATM    4  C14 UNL     1      11.403  21.407  47.455  1.00  0.00     0.189 C 
BRANCH   4   5
HETATM    5  C13 UNL     1      10.791  20.933  48.709  1.00  0.00    -0.090 C 
HETATM    6  C12 UNL     1      10.307  20.530  49.739  1.00  0.00    -0.078 C 
BRANCH   6   7
HETATM    7  C11 UNL     1       9.755  20.037  50.961  1.00  0.00     0.062 C 
HETATM    8  C10 UNL     1       8.665  20.478  51.509  1.00  0.00     0.002 C 
BRANCH   8   9
HETATM    9  C9  UNL     1       7.864  21.554  50.914  1.00  0.00     0.165 C 
BRANCH   9  10
HETATM   10  N2  UNL     1       6.476  21.152  50.692  1.00  0.00    -0.262 N 
HETATM   11  C8  UNL     1       5.483  21.522  51.620  1.00  0.00     0.332 A 
HETATM   12  N1  UNL     1       4.106  21.160  51.432  1.00  0.00    -0.274 N 
HETATM   13  O3  UNL     1       5.764  22.179  52.640  1.00  0.00    -0.246 OA
HETATM   14  C7  UNL     1       3.735  20.396  50.263  1.00  0.00     0.265 A 
ATOM     15  H1  UNL     1       3.400  21.437  52.114  1.00  0.00     0.173 HD
HETATM   16  C6  UNL     1       4.736  20.002  49.296  1.00  0.00     0.101 A 
HETATM   17  O2  UNL     1       2.524  20.094  50.119  1.00  0.00    -0.267 OA
HETATM   18  C5  UNL     1       4.473  19.294  48.245  1.00  0.00     0.035 C 
HETATM   19  C17 UNL     1       6.155  20.400  49.529  1.00  0.00     0.267 A 
HETATM   20  O4  UNL     1       7.035  20.066  48.698  1.00  0.00    -0.267 OA
BRANCH  18  21
HETATM   21  C4  UNL     1       3.260  18.718  47.734  1.00  0.00    -0.015 A 
HETATM   22  C3  UNL     1       2.301  19.150  46.843  1.00  0.00     0.069 A 
HETATM   23  C2  UNL     1       1.345  18.156  46.710  1.00  0.00     0.145 A 
HETATM   24  N3  UNL     1       1.686  17.118  47.497  1.00  0.00    -0.324 N 
HETATM   25  C18 UNL     1       2.829  17.431  48.121  1.00  0.00     0.105 A 
BRANCH  23  26
HETATM   26  O1  UNL     1       0.203  18.192  45.900  1.00  0.00    -0.341 OA
HETATM   27  C1  UNL     1       0.351  18.567  44.533  1.00  0.00     0.211 C 
ENDBRANCH  23  26
BRANCH  24  28
HETATM   28  C19 UNL     1       0.962  15.857  47.666  1.00  0.00     0.254 C 
HETATM   29  C20 UNL     1       0.655  15.628  49.089  1.00  0.00     0.079 C 
HETATM   30  N4  UNL     1       0.422  15.443  50.215  1.00  0.00    -0.196 NA
ENDBRANCH  24  28
ENDBRANCH  18  21
ENDBRANCH   9  10
ENDBRANCH   8   9
ENDBRANCH   6   7
ENDBRANCH   4   5
ENDBRANCH   1   4
TORSDOF 8
ENDMDL
MODEL 2
REMARK VINA RESULT: -7.692098677      1.157      2.324
REMARK  8 active torsions:
REMARK  status: ('A' for Active; 'I' for Inactive)
REMARK    1  A    between atoms: O1_2  and  C2_3 
REMARK    2  A    between atoms: C4_5  and  C5_6 
REMARK    3  A    between atoms: N2_14  and  C9_15 
REMARK    4  A    between atoms: C9_15  and  C10_16 
REMARK    5  A    between atoms: C11_17  and  C12_18 
REMARK    6  A    between atoms: C13_19  and  C14_20 
REMARK    7  A    between atoms: C14_20  and  C15_21 
REMARK    8  A    between atoms: N3_27  and  C19_28 
ROOT
HETATM    1  C15 UNL     1      11.004  22.730  47.093  1.00  0.00    -0.082 C 
HETATM    2  C16 UNL     1      10.640  23.849  46.833  1.00  0.00    -0.023 C 
HETATM    3 BR1  UNL     1      10.100  25.612  46.434  1.00  0.00     0.010 Br
ENDROOT
BRANCH   1   4
HETATM    4  C14 UNL     1      11.465  21.379  47.417  1.00  0.00     0.189 C 
BRANCH   4   5
HETATM    5  C13 UNL     1      10.861  20.881  48.666  1.00  0.00    -0.090 C 
HETATM    6  C12 UNL     1      10.382  20.456  49.689  1.00  0.00    -0.078 C 
BRANCH   6   7
HETATM    7  C11 UNL     1       9.833  19.935  50.902  1.00  0.00     0.062 C 
HETATM    8  C10 UNL     1       8.755  20.375  51.473  1.00  0.00     0.002 C 
BRANCH   8   9
HETATM    9  C9  UNL     1       7.963  21.479  50.916  1.00  0.00     0.165 C 
BRANCH   9  10
HETATM   10  N2  UNL     1       6.548  21.135  50.786  1.00  0.00    -0.262 N 
HETATM   11  C8  UNL     1       5.630  21.566  51.764  1.00  0.00     0.332 A 
HETATM   12  N1  UNL     1       4.230  21.262  51.666  1.00  0.00    -0.274 N 
HETATM   13  O3  UNL     1       6.000  22.230  52.750  1.00  0.00    -0.246 OA
HETATM   14  C7  UNL     1       3.757  20.493  50.537  1.00  0.00     0.265 A 
ATOM     15  H1  UNL     1       3.579  21.583  52.382  1.00  0.00     0.173 HD
HETATM   16  C6  UNL     1       4.680  20.037  49.522  1.00  0.00     0.101 A 
HETATM   17  O2  UNL     1       2.527  20.243  50.472  1.00  0.00    -0.267 OA
HETATM   18  C5  UNL     1       4.324  19.321  48.503  1.00  0.00     0.035 C 
HETATM   19  C17 UNL     1       6.126  20.376  49.661  1.00  0.00     0.267 A 
HETATM   20  O4  UNL     1       6.939  19.987  48.787  1.00  0.00    -0.267 OA
BRANCH  18  21
HETATM   21  C4  UNL     1       3.058  18.790  48.078  1.00  0.00    -0.015 A 
HETATM   22  C3  UNL     1       2.234  17.793  48.554  1.00  0.00     0.069 A 
HETATM   23  C2  UNL     1       1.111  17.727  47.746  1.00  0.00     0.145 A 
HETATM   24  N3  UNL     1       1.217  18.658  46.778  1.00  0.00    -0.324 N 
HETATM   25  C18 UNL     1       2.376  19.307  46.956  1.00  0.00     0.105 A 
BRANCH  23  26
HETATM   26  O1  UNL     1       0.026  16.851  47.883  1.00  0.00    -0.341 OA
HETATM   27  C1  UNL     1       0.269  15.450  47.791  1.00  0.00     0.211 C 
ENDBRANCH  23  26
BRANCH  24  28
HETATM   28  C19 UNL     1       0.260  18.939  45.708  1.00  0.00     0.254 C 
HETATM   29  C20 UNL     1       0.941  19.565  44.561  1.00  0.00     0.079 C 
HETATM   30  N4  UNL     1       1.479  20.069  43.659  1.00  0.00    -0.196 NA
ENDBRANCH  24  28
ENDBRANCH  18  21
ENDBRANCH   9  10
ENDBRANCH   8   9
ENDBRANCH   6   7
ENDBRANCH   4   5
ENDBRANCH   1   4
TORSDOF 8
ENDMDL
MODEL 3
REMARK VINA RESULT: -7.182820260      1.556      1.814
REMARK  8 active torsions:
REMARK  status: ('A' for Active; 'I' for Inactive)
REMARK    1  A    between atoms: O1_2  and  C2_3 
REMARK    2  A    between atoms: C4_5  and  C5_6 
REMARK    3  A    between atoms: N2_14  and  C9_15 
REMARK    4  A    between atoms: C9_15  and  C10_16 
REMARK    5  A    between atoms: C11_17  and  C12_18 
REMARK    6  A    between atoms: C13_19  and  C14_20 
REMARK    7  A    between atoms: C14_20  and  C15_21 
REMARK    8  A    between atoms: N3_27  and  C19_28 
ROOT
HETATM    1  C15 UNL     1      10.357  22.515  48.206  1.00  0.00    -0.082 C 
HETATM    2  C16 UNL     1      10.445  23.498  47.514  1.00  0.00    -0.023 C 
HETATM    3 BR1  UNL     1      10.551  25.034  46.424  1.00  0.00     0.010 Br
ENDROOT
BRANCH   1   4
HETATM    4  C14 UNL     1      10.229  21.319  49.039  1.00  0.00     0.189 C 
BRANCH   4   5
HETATM    5  C13 UNL     1       9.561  21.613  50.319  1.00  0.00    -0.090 C 
HETATM    6  C12 UNL     1       9.018  21.877  51.364  1.00  0.00    -0.078 C 
BRANCH   6   7
HETATM    7  C11 UNL     1       8.377  22.214  52.597  1.00  0.00     0.062 C 
HETATM    8  C10 UNL     1       7.602  21.419  53.267  1.00  0.00     0.002 C 
BRANCH   8   9
HETATM    9  C9  UNL     1       7.297  20.054  52.820  1.00  0.00     0.165 C 
BRANCH   9  10
HETATM   10  N2  UNL     1       6.099  20.001  51.984  1.00  0.00    -0.262 N 
HETATM   11  C8  UNL     1       4.895  20.570  52.447  1.00  0.00     0.332 A 
HETATM   12  N1  UNL     1       3.700  20.551  51.652  1.00  0.00    -0.274 N 
HETATM   13  O3  UNL     1       4.825  21.111  53.567  1.00  0.00    -0.246 OA
HETATM   14  C7  UNL     1       3.736  19.932  50.346  1.00  0.00     0.265 A 
ATOM     15  H1  UNL     1       2.838  20.969  52.002  1.00  0.00     0.173 HD
HETATM   16  C6  UNL     1       4.958  19.340  49.849  1.00  0.00     0.101 A 
HETATM   17  O2  UNL     1       2.679  19.932  49.668  1.00  0.00    -0.267 OA
HETATM   18  C5  UNL     1       5.048  18.746  48.702  1.00  0.00     0.035 C 
HETATM   19  C17 UNL     1       6.178  19.381  50.707  1.00  0.00     0.267 A 
HETATM   20  O4  UNL     1       7.246  18.872  50.288  1.00  0.00    -0.267 OA
BRANCH  18  21
HETATM   21  C4  UNL     1       4.094  18.491  47.657  1.00  0.00    -0.015 A 
HETATM   22  C3  UNL     1       3.811  19.102  46.455  1.00  0.00     0.069 A 
HETATM   23  C2  UNL     1       2.786  18.404  45.838  1.00  0.00     0.145 A 
HETATM   24  N3  UNL     1       2.425  17.374  46.627  1.00  0.00    -0.324 N 
HETATM   25  C18 UNL     1       3.194  17.406  47.723  1.00  0.00     0.105 A 
BRANCH  23  26
HETATM   26  O1  UNL     1       2.200  18.692  44.599  1.00  0.00    -0.341 OA
HETATM   27  C1  UNL     1       1.523  19.936  44.441  1.00  0.00     0.211 C 
ENDBRANCH  23  26
BRANCH  24  28
HETATM   28  C19 UNL     1       1.384  16.379  46.366  1.00  0.00     0.254 C 
HETATM   29  C20 UNL     1       0.075  16.872  46.828  1.00  0.00     0.079 C 
HETATM   30  N4  UNL     1      -0.958  17.260  47.203  1.00  0.00    -0.196 NA
ENDBRANCH  24  28
ENDBRANCH  18  21
ENDBRANCH   9  10
ENDBRANCH   8   9
ENDBRANCH   6   7
ENDBRANCH   4   5
ENDBRANCH   1   4
TORSDOF 8
ENDMDL
MODEL 4
REMARK VINA RESULT: -6.990492133      1.625      2.663
REMARK  8 active torsions:
REMARK  status: ('A' for Active; 'I' for Inactive)
REMARK    1  A    between atoms: O1_2  and  C2_3 
REMARK    2  A    between atoms: C4_5  and  C5_6 
REMARK    3  A    between atoms: N2_14  and  C9_15 
REMARK    4  A    between atoms: C9_15  and  C10_16 
REMARK    5  A    between atoms: C11_17  and  C12_18 
REMARK    6  A    between atoms: C13_19  and  C14_20 
REMARK    7  A    between atoms: C14_20  and  C15_21 
REMARK    8  A    between atoms: N3_27  and  C19_28 
ROOT
HETATM    1  C15 UNL     1      10.441  22.687  48.011  1.00  0.00    -0.082 C 
HETATM    2  C16 UNL     1      10.449  23.679  47.327  1.00  0.00    -0.023 C 
HETATM    3 BR1  UNL     1      10.466  25.250  46.281  1.00  0.00     0.010 Br
ENDROOT
BRANCH   1   4
HETATM    4  C14 UNL     1      10.430  21.496  48.861  1.00  0.00     0.189 C 
BRANCH   4   5
HETATM    5  C13 UNL     1       9.695  21.727  50.117  1.00  0.00    -0.090 C 
HETATM    6  C12 UNL     1       9.108  21.933  51.151  1.00  0.00    -0.078 C 
BRANCH   6   7
HETATM    7  C11 UNL     1       8.429  22.196  52.381  1.00  0.00     0.062 C 
HETATM    8  C10 UNL     1       7.576  21.394  52.940  1.00  0.00     0.002 C 
BRANCH   8   9
HETATM    9  C9  UNL     1       7.213  20.098  52.353  1.00  0.00     0.165 C 
BRANCH   9  10
HETATM   10  N2  UNL     1       5.823  20.067  51.899  1.00  0.00    -0.262 N 
HETATM   11  C8  UNL     1       4.839  20.787  52.606  1.00  0.00     0.332 A 
HETATM   12  N1  UNL     1       3.466  20.793  52.186  1.00  0.00    -0.274 N 
HETATM   13  O3  UNL     1       5.126  21.445  53.624  1.00  0.00    -0.246 OA
HETATM   14  C7  UNL     1       3.089  20.042  51.010  1.00  0.00     0.265 A 
ATOM     15  H1  UNL     1       2.767  21.321  52.709  1.00  0.00     0.173 HD
HETATM   16  C6  UNL     1       4.080  19.293  50.269  1.00  0.00     0.101 A 
HETATM   17  O2  UNL     1       1.882  20.066  50.661  1.00  0.00    -0.267 OA
HETATM   18  C5  UNL     1       3.801  18.578  49.227  1.00  0.00     0.035 C 
HETATM   19  C17 UNL     1       5.495  19.314  50.739  1.00  0.00     0.267 A 
HETATM   20  O4  UNL     1       6.366  18.670  50.105  1.00  0.00    -0.267 OA
BRANCH  18  21
HETATM   21  C4  UNL     1       2.573  18.303  48.531  1.00  0.00    -0.015 A 
HETATM   22  C3  UNL     1       1.608  17.327  48.651  1.00  0.00     0.069 A 
HETATM   23  C2  UNL     1       0.618  17.571  47.713  1.00  0.00     0.145 A 
HETATM   24  N3  UNL     1       0.944  18.675  47.014  1.00  0.00    -0.324 N 
HETATM   25  C18 UNL     1       2.112  19.131  47.485  1.00  0.00     0.105 A 
BRANCH  23  26
HETATM   26  O1  UNL     1      -0.544  16.817  47.501  1.00  0.00    -0.341 OA
HETATM   27  C1  UNL     1      -0.476  15.404  47.674  1.00  0.00     0.211 C 
ENDBRANCH  23  26
BRANCH  24  28
HETATM   28  C19 UNL     1       0.184  19.294  45.927  1.00  0.00     0.254 C 
HETATM   29  C20 UNL     1       1.067  19.586  44.785  1.00  0.00     0.079 C 
HETATM   30  N4  UNL     1       1.768  19.825  43.885  1.00  0.00    -0.196 NA
ENDBRANCH  24  28
ENDBRANCH  18  21
ENDBRANCH   9  10
ENDBRANCH   8   9
ENDBRANCH   6   7
ENDBRANCH   4   5
ENDBRANCH   1   4
TORSDOF 8
ENDMDL
MODEL 5
REMARK VINA RESULT: -6.940767896      2.099      3.012
REMARK  8 active torsions:
REMARK  status: ('A' for Active; 'I' for Inactive)
REMARK    1  A    between atoms: O1_2  and  C2_3 
REMARK    2  A    between atoms: C4_5  and  C5_6 
REMARK    3  A    between atoms: N2_14  and  C9_15 
REMARK    4  A    between atoms: C9_15  and  C10_16 
REMARK    5  A    between atoms: C11_17  and  C12_18 
REMARK    6  A    between atoms: C13_19  and  C14_20 
REMARK    7  A    between atoms: C14_20  and  C15_21 
REMARK    8  A    between atoms: N3_27  and  C19_28 
ROOT
HETATM    1  C15 UNL     1       9.724  20.510  50.169  1.00  0.00    -0.082 C 
HETATM    2  C16 UNL     1       9.875  21.542  49.565  1.00  0.00    -0.023 C 
HETATM    3 BR1  UNL     1      10.127  23.142  48.598  1.00  0.00     0.010 Br
ENDROOT
BRANCH   1   4
HETATM    4  C14 UNL     1       9.556  19.246  50.887  1.00  0.00     0.189 C 
BRANCH   4   5
HETATM    5  C13 UNL     1       8.539  19.352  51.948  1.00  0.00    -0.090 C 
HETATM    6  C12 UNL     1       7.721  19.432  52.832  1.00  0.00    -0.078 C 
BRANCH   6   7
HETATM    7  C11 UNL     1       6.771  19.519  53.896  1.00  0.00     0.062 C 
HETATM    8  C10 UNL     1       5.761  20.333  53.920  1.00  0.00     0.002 C 
BRANCH   8   9
HETATM    9  C9  UNL     1       5.481  21.271  52.825  1.00  0.00     0.165 C 
BRANCH   9  10
HETATM   10  N2  UNL     1       4.403  20.801  51.957  1.00  0.00    -0.262 N 
HETATM   11  C8  UNL     1       3.076  20.787  52.432  1.00  0.00     0.332 A 
HETATM   12  N1  UNL     1       1.987  20.346  51.607  1.00  0.00    -0.274 N 
HETATM   13  O3  UNL     1       2.800  21.157  53.589  1.00  0.00    -0.246 OA
HETATM   14  C7  UNL     1       2.262  19.906  50.258  1.00  0.00     0.265 A 
ATOM     15  H1  UNL     1       1.033  20.343  51.967  1.00  0.00     0.173 HD
HETATM   16  C6  UNL     1       3.615  19.909  49.748  1.00  0.00     0.101 A 
HETATM   17  O2  UNL     1       1.292  19.529  49.555  1.00  0.00    -0.267 OA
HETATM   18  C5  UNL     1       3.931  19.501  48.560  1.00  0.00     0.035 C 
HETATM   19  C17 UNL     1       4.718  20.376  50.638  1.00  0.00     0.267 A 
HETATM   20  O4  UNL     1       5.897  20.385  50.208  1.00  0.00    -0.267 OA
BRANCH  18  21
HETATM   21  C4  UNL     1       3.157  18.965  47.474  1.00  0.00    -0.015 A 
HETATM   22  C3  UNL     1       2.549  19.523  46.371  1.00  0.00     0.069 A 
HETATM   23  C2  UNL     1       1.948  18.510  45.641  1.00  0.00     0.145 A 
HETATM   24  N3  UNL     1       2.167  17.337  46.264  1.00  0.00    -0.324 N 
HETATM   25  C18 UNL     1       2.889  17.584  47.366  1.00  0.00     0.105 A 
BRANCH  23  26
HETATM   26  O1  UNL     1       1.226  18.648  44.448  1.00  0.00    -0.341 OA
HETATM   27  C1  UNL     1       1.379  19.849  43.697  1.00  0.00     0.211 C 
ENDBRANCH  23  26
BRANCH  24  28
HETATM   28  C19 UNL     1       1.714  16.010  45.844  1.00  0.00     0.254 C 
HETATM   29  C20 UNL     1       2.667  15.422  44.886  1.00  0.00     0.079 C 
HETATM   30  N4  UNL     1       3.417  14.962  44.122  1.00  0.00    -0.196 NA
ENDBRANCH  24  28
ENDBRANCH  18  21
ENDBRANCH   9  10
ENDBRANCH   8   9
ENDBRANCH   6   7
ENDBRANCH   4   5
ENDBRANCH   1   4
TORSDOF 8
ENDMDL
