MODEL 1
REMARK VINA RESULT: -9.660239118      0.000      0.000
REMARK  7 active torsions:
REMARK  status: ('A' for Active; 'I' for Inactive)
REMARK    1  A    between atoms: C1_2  and  C2_3 
REMARK       I    between atoms: C1_2  and  N2_18 
REMARK    2  A    between atoms: C2_3  and  C3_4 
REMARK    3  A    between atoms: C3_4  and  C4_5 
REMARK    4  A    between atoms: C4_5  and  N1_6 
REMARK    5  A    between atoms: N2_18  and  C13_20 
REMARK    6  A    between atoms: C13_20  and  C14_21 
REMARK    7  A    between atoms: C14_21  and  N3_22 
ROOT
HETATM    1  O1  UNL     1       4.614  21.077  52.808  1.00  0.00    -0.274 OA
HETATM    2  C1  UNL     1       4.390  20.543  51.699  1.00  0.00     0.217 C 
HETATM    3  N2  UNL     1       5.432  19.712  51.143  1.00  0.00    -0.359 N 
ATOM      4  H2  UNL     1       5.290  19.259  50.241  1.00  0.00     0.162 HD
ENDROOT
BRANCH   2   5
HETATM    5  C2  UNL     1       3.152  20.707  50.942  1.00  0.00     0.104 C 
BRANCH   5   6
HETATM    6  C3  UNL     1       2.052  19.804  51.416  1.00  0.00     0.029 C 
BRANCH   6   7
HETATM    7  C4  UNL     1       2.013  18.472  50.770  1.00  0.00     0.136 C 
BRANCH   7   8
HETATM    8  N1  UNL     1       2.296  18.506  49.353  1.00  0.00    -0.280 N 
HETATM    9  C5  UNL     1       3.455  18.130  48.626  1.00  0.00     0.261 A 
HETATM   10  O2  UNL     1       4.500  17.671  49.146  1.00  0.00    -0.267 OA
HETATM   11  C6  UNL     1       3.250  18.356  47.199  1.00  0.00     0.048 A 
HETATM   12  C7  UNL     1       4.054  18.158  46.095  1.00  0.00     0.021 A 
HETATM   13  C11 UNL     1       1.978  18.863  47.070  1.00  0.00     0.051 A 
HETATM   14  C8  UNL     1       3.587  18.468  44.831  1.00  0.00     0.043 A 
HETATM   15  C9  UNL     1       2.314  18.977  44.686  1.00  0.00     0.117 A 
HETATM   16  F1  UNL     1       1.797  19.303  43.460  1.00  0.00    -0.206 F 
HETATM   17  C10 UNL     1       1.534  19.165  45.806  1.00  0.00     0.060 A 
HETATM   18  C12 UNL     1       1.354  18.969  48.395  1.00  0.00     0.261 A 
HETATM   19  O3  UNL     1       0.180  19.406  48.589  1.00  0.00    -0.267 OA
ENDBRANCH   7   8
ENDBRANCH   6   7
ENDBRANCH   5   6
ENDBRANCH   2   5
BRANCH   3  20
HETATM   20  C13 UNL     1       6.671  19.517  51.851  1.00  0.00     0.143 C 
BRANCH  20  21
HETATM   21  C14 UNL     1       7.813  19.031  51.043  1.00  0.00     0.165 C 
BRANCH  21  22
HETATM   22  N3  UNL     1       8.481  19.978  50.217  1.00  0.00    -0.235 N 
HETATM   23  C15 UNL     1       9.444  19.785  49.229  1.00  0.00     0.269 A 
HETATM   24  O4  UNL     1       9.875  18.623  48.939  1.00  0.00    -0.266 OA
HETATM   25  C16 UNL     1       9.892  20.995  48.584  1.00  0.00     0.056 A 
HETATM   26  C17 UNL     1      10.829  21.124  47.551  1.00  0.00     0.018 A 
HETATM   27  C21 UNL     1       9.322  22.141  49.028  1.00  0.00     0.095 A 
HETATM   28  C18 UNL     1      11.154  22.348  47.014  1.00  0.00     0.001 A 
HETATM   29  C19 UNL     1      10.576  23.510  47.463  1.00  0.00     0.002 A 
HETATM   30  C20 UNL     1       9.656  23.372  48.479  1.00  0.00     0.026 A 
HETATM   31  S1  UNL     1       8.219  21.680  50.317  1.00  0.00     0.268 S 
HETATM   32  O5  UNL     1       8.727  22.258  51.592  1.00  0.00    -0.200 OA
HETATM   33  O6  UNL     1       6.813  22.058  50.017  1.00  0.00    -0.200 OA
ENDBRANCH  21  22
ENDBRANCH  20  21
ENDBRANCH   3  20
TORSDOF 7
ENDMDL
MODEL 2
REMARK VINA RESULT: -9.520846109      0.587      1.656
REMARK  7 active torsions:
REMARK  status: ('A' for Active; 'I' for Inactive)
REMARK    1  A    between atoms: C1_2  and  C2_3 
REMARK       I    between atoms: C1_2  and  N2_18 
REMARK    2  A    between atoms: C2_3  and  C3_4 
REMARK    3  A    between atoms: C3_4  and  C4_5 
REMARK    4  A    between atoms: C4_5  and  N1_6 
REMARK    5  A    between atoms: N2_18  and  C13_20 
REMARK    6  A    between atoms: C13_20  and  C14_21 
REMARK    7  A    between atoms: C14_21  and  N3_22 
ROOT
HETATM    1  O1  UNL     1       4.409  21.014  52.813  1.00  0.00    -0.274 OA
HETATM    2  C1  UNL     1       4.264  20.641  51.627  1.00  0.00     0.217 C 
HETATM    3  N2  UNL     1       5.330  19.862  51.044  1.00  0.00    -0.359 N 
ATOM      4  H2  UNL     1       5.251  19.539  50.080  1.00  0.00     0.162 HD
ENDROOT
BRANCH   2   5
HETATM    5  C2  UNL     1       3.094  20.944  50.807  1.00  0.00     0.104 C 
BRANCH   5   6
HETATM    6  C3  UNL     1       1.908  20.088  51.141  1.00  0.00     0.029 C 
BRANCH   6   7
HETATM    7  C4  UNL     1       1.980  18.696  50.639  1.00  0.00     0.136 C 
BRANCH   7   8
HETATM    8  N1  UNL     1       2.065  18.603  49.199  1.00  0.00    -0.280 N 
HETATM    9  C5  UNL     1       1.121  18.917  48.187  1.00  0.00     0.261 A 
HETATM   10  O2  UNL     1      -0.031  19.363  48.407  1.00  0.00    -0.267 OA
HETATM   11  C6  UNL     1       1.685  18.646  46.869  1.00  0.00     0.048 A 
HETATM   12  C7  UNL     1       1.184  18.780  45.591  1.00  0.00     0.021 A 
HETATM   13  C11 UNL     1       2.958  18.173  47.087  1.00  0.00     0.051 A 
HETATM   14  C8  UNL     1       1.961  18.439  44.500  1.00  0.00     0.043 A 
HETATM   15  C9  UNL     1       3.240  17.964  44.703  1.00  0.00     0.117 A 
HETATM   16  F1  UNL     1       4.057  17.610  43.661  1.00  0.00    -0.206 F 
HETATM   17  C10 UNL     1       3.714  17.840  45.990  1.00  0.00     0.060 A 
HETATM   18  C12 UNL     1       3.229  18.133  48.529  1.00  0.00     0.261 A 
HETATM   19  O3  UNL     1       4.323  17.740  49.032  1.00  0.00    -0.267 OA
ENDBRANCH   7   8
ENDBRANCH   6   7
ENDBRANCH   5   6
ENDBRANCH   2   5
BRANCH   3  20
HETATM   20  C13 UNL     1       6.505  19.535  51.812  1.00  0.00     0.143 C 
BRANCH  20  21
HETATM   21  C14 UNL     1       7.663  19.024  51.043  1.00  0.00     0.165 C 
BRANCH  21  22
HETATM   22  N3  UNL     1       8.387  19.960  50.251  1.00  0.00    -0.235 N 
HETATM   23  C15 UNL     1       9.295  19.746  49.216  1.00  0.00     0.269 A 
HETATM   24  O4  UNL     1       9.608  18.571  48.840  1.00  0.00    -0.266 OA
HETATM   25  C16 UNL     1       9.829  20.950  48.630  1.00  0.00     0.056 A 
HETATM   26  C17 UNL     1      10.740  21.062  47.572  1.00  0.00     0.018 A 
HETATM   27  C21 UNL     1       9.381  22.111  49.165  1.00  0.00     0.095 A 
HETATM   28  C18 UNL     1      11.156  22.284  47.099  1.00  0.00     0.001 A 
HETATM   29  C19 UNL     1      10.702  23.462  47.640  1.00  0.00     0.002 A 
HETATM   30  C20 UNL     1       9.808  23.341  48.680  1.00  0.00     0.026 A 
HETATM   31  S1  UNL     1       8.284  21.668  50.465  1.00  0.00     0.268 S 
HETATM   32  O5  UNL     1       8.885  22.115  51.753  1.00  0.00    -0.200 OA
HETATM   33  O6  UNL     1       6.909  22.188  50.244  1.00  0.00    -0.200 OA
ENDBRANCH  21  22
ENDBRANCH  20  21
ENDBRANCH   3  20
TORSDOF 7
ENDMDL
MODEL 3
REMARK VINA RESULT: -9.476551095      1.001      1.943
REMARK  7 active torsions:
REMARK  status: ('A' for Active; 'I' for Inactive)
REMARK    1  A    between atoms: C1_2  and  C2_3 
REMARK       I    between atoms: C1_2  and  N2_18 
REMARK    2  A    between atoms: C2_3  and  C3_4 
REMARK    3  A    between atoms: C3_4  and  C4_5 
REMARK    4  A    between atoms: C4_5  and  N1_6 
REMARK    5  A    between atoms: N2_18  and  C13_20 
REMARK    6  A    between atoms: C13_20  and  C14_21 
REMARK    7  A    between atoms: C14_21  and  N3_22 
ROOT
HETATM    1  O1  UNL     1       4.716  20.185  52.793  1.00  0.00    -0.274 OA
HETATM    2  C1  UNL     1       4.453  20.036  51.579  1.00  0.00     0.217 C 
HETATM    3  N2  UNL     1       5.307  19.152  50.822  1.00  0.00    -0.359 N 
ATOM      4  H2  UNL     1       5.128  19.003  49.829  1.00  0.00     0.162 HD
ENDROOT
BRANCH   2   5
HETATM    5  C2  UNL     1       3.348  20.695  50.889  1.00  0.00     0.104 C 
BRANCH   5   6
HETATM    6  C3  UNL     1       2.044  19.967  51.044  1.00  0.00     0.029 C 
BRANCH   6   7
HETATM    7  C4  UNL     1       1.989  18.636  50.396  1.00  0.00     0.136 C 
BRANCH   7   8
HETATM    8  N1  UNL     1       2.039  18.692  48.952  1.00  0.00    -0.280 N 
HETATM    9  C5  UNL     1       3.092  18.408  48.044  1.00  0.00     0.261 A 
HETATM   10  O2  UNL     1       4.239  18.032  48.385  1.00  0.00    -0.267 OA
HETATM   11  C6  UNL     1       2.644  18.618  46.672  1.00  0.00     0.048 A 
HETATM   12  C7  UNL     1       3.273  18.482  45.451  1.00  0.00     0.021 A 
HETATM   13  C11 UNL     1       1.332  19.024  46.754  1.00  0.00     0.051 A 
HETATM   14  C8  UNL     1       2.587  18.756  44.282  1.00  0.00     0.043 A 
HETATM   15  C9  UNL     1       1.272  19.163  44.349  1.00  0.00     0.117 A 
HETATM   16  F1  UNL     1       0.542  19.448  43.224  1.00  0.00    -0.206 F 
HETATM   17  C10 UNL     1       0.670  19.290  45.581  1.00  0.00     0.060 A 
HETATM   18  C12 UNL     1       0.922  19.081  48.162  1.00  0.00     0.261 A 
HETATM   19  O3  UNL     1      -0.235  19.424  48.547  1.00  0.00    -0.267 OA
ENDBRANCH   7   8
ENDBRANCH   6   7
ENDBRANCH   5   6
ENDBRANCH   2   5
BRANCH   3  20
HETATM   20  C13 UNL     1       6.411  18.477  51.456  1.00  0.00     0.143 C 
BRANCH  20  21
HETATM   21  C14 UNL     1       7.525  19.339  51.913  1.00  0.00     0.165 C 
BRANCH  21  22
HETATM   22  N3  UNL     1       8.235  20.073  50.921  1.00  0.00    -0.235 N 
HETATM   23  C15 UNL     1       8.030  21.365  50.444  1.00  0.00     0.269 A 
HETATM   24  O4  UNL     1       7.085  22.095  50.886  1.00  0.00    -0.266 OA
HETATM   25  C16 UNL     1       8.966  21.785  49.430  1.00  0.00     0.056 A 
HETATM   26  C17 UNL     1       9.030  23.022  48.775  1.00  0.00     0.018 A 
HETATM   27  C21 UNL     1       9.904  20.871  49.084  1.00  0.00     0.095 A 
HETATM   28  C18 UNL     1       9.992  23.295  47.832  1.00  0.00     0.001 A 
HETATM   29  C19 UNL     1      10.944  22.369  47.481  1.00  0.00     0.002 A 
HETATM   30  C20 UNL     1      10.872  21.157  48.130  1.00  0.00     0.026 A 
HETATM   31  S1  UNL     1       9.570  19.433  50.038  1.00  0.00     0.268 S 
HETATM   32  O5  UNL     1       9.165  18.342  49.108  1.00  0.00    -0.200 OA
HETATM   33  O6  UNL     1      10.711  19.063  50.917  1.00  0.00    -0.200 OA
ENDBRANCH  21  22
ENDBRANCH  20  21
ENDBRANCH   3  20
TORSDOF 7
ENDMDL
MODEL 4
REMARK VINA RESULT: -9.438818449      2.555      7.776
REMARK  7 active torsions:
REMARK  status: ('A' for Active; 'I' for Inactive)
REMARK    1  A    between atoms: C1_2  and  C2_3 
REMARK       I    between atoms: C1_2  and  N2_18 
REMARK    2  A    between atoms: C2_3  and  C3_4 
REMARK    3  A    between atoms: C3_4  and  C4_5 
REMARK    4  A    between atoms: C4_5  and  N1_6 
REMARK    5  A    between atoms: N2_18  and  C13_20 
REMARK    6  A    between atoms: C13_20  and  C14_21 
REMARK    7  A    between atoms: C14_21  and  N3_22 
ROOT
HETATM    1  O1  UNL     1       4.004  21.621  50.204  1.00  0.00    -0.274 OA
HETATM    2  C1  UNL     1       4.500  20.841  51.047  1.00  0.00     0.217 C 
HETATM    3  N2  UNL     1       3.661  19.773  51.534  1.00  0.00    -0.359 N 
ATOM      4  H2  UNL     1       4.027  19.116  52.223  1.00  0.00     0.162 HD
ENDROOT
BRANCH   2   5
HETATM    5  C2  UNL     1       5.862  20.947  51.563  1.00  0.00     0.104 C 
BRANCH   5   6
HETATM    6  C3  UNL     1       6.851  20.141  50.773  1.00  0.00     0.029 C 
BRANCH   6   7
HETATM    7  C4  UNL     1       8.274  20.436  51.063  1.00  0.00     0.136 C 
BRANCH   7   8
HETATM    8  N1  UNL     1       8.974  21.051  49.958  1.00  0.00    -0.280 N 
HETATM    9  C5  UNL     1       9.943  20.529  49.063  1.00  0.00     0.261 A 
HETATM   10  O2  UNL     1      10.376  19.351  49.095  1.00  0.00    -0.267 OA
HETATM   11  C6  UNL     1      10.355  21.555  48.110  1.00  0.00     0.048 A 
HETATM   12  C7  UNL     1      11.251  21.553  47.062  1.00  0.00     0.021 A 
HETATM   13  C11 UNL     1       9.639  22.685  48.431  1.00  0.00     0.051 A 
HETATM   14  C8  UNL     1      11.445  22.697  46.311  1.00  0.00     0.043 A 
HETATM   15  C9  UNL     1      10.735  23.837  46.620  1.00  0.00     0.117 A 
HETATM   16  F1  UNL     1      10.884  25.001  45.912  1.00  0.00    -0.206 F 
HETATM   17  C10 UNL     1       9.847  23.811  47.672  1.00  0.00     0.060 A 
HETATM   18  C12 UNL     1       8.768  22.406  49.579  1.00  0.00     0.261 A 
HETATM   19  O3  UNL     1       7.990  23.261  50.099  1.00  0.00    -0.267 OA
ENDBRANCH   7   8
ENDBRANCH   6   7
ENDBRANCH   5   6
ENDBRANCH   2   5
BRANCH   3  20
HETATM   20  C13 UNL     1       2.310  19.624  51.056  1.00  0.00     0.143 C 
BRANCH  20  21
HETATM   21  C14 UNL     1       2.035  18.415  50.247  1.00  0.00     0.165 C 
BRANCH  21  22
HETATM   22  N3  UNL     1       2.000  18.569  48.832  1.00  0.00    -0.235 N 
HETATM   23  C15 UNL     1       0.970  19.009  48.003  1.00  0.00     0.269 A 
HETATM   24  O4  UNL     1      -0.164  19.345  48.473  1.00  0.00    -0.266 OA
HETATM   25  C16 UNL     1       1.305  19.046  46.600  1.00  0.00     0.056 A 
HETATM   26  C17 UNL     1       0.496  19.454  45.532  1.00  0.00     0.018 A 
HETATM   27  C21 UNL     1       2.561  18.648  46.287  1.00  0.00     0.095 A 
HETATM   28  C18 UNL     1       0.952  19.453  44.235  1.00  0.00     0.001 A 
HETATM   29  C19 UNL     1       2.225  19.051  43.916  1.00  0.00     0.002 A 
HETATM   30  C20 UNL     1       3.012  18.651  44.974  1.00  0.00     0.026 A 
HETATM   31  S1  UNL     1       3.326  18.182  47.800  1.00  0.00     0.268 S 
HETATM   32  O5  UNL     1       3.598  16.718  47.751  1.00  0.00    -0.200 OA
HETATM   33  O6  UNL     1       4.535  18.995  48.094  1.00  0.00    -0.200 OA
ENDBRANCH  21  22
ENDBRANCH  20  21
ENDBRANCH   3  20
TORSDOF 7
ENDMDL
MODEL 5
REMARK VINA RESULT: -9.422407400      2.317      7.212
REMARK  7 active torsions:
REMARK  status: ('A' for Active; 'I' for Inactive)
REMARK    1  A    between atoms: C1_2  and  C2_3 
REMARK       I    between atoms: C1_2  and  N2_18 
REMARK    2  A    between atoms: C2_3  and  C3_4 
REMARK    3  A    between atoms: C3_4  and  C4_5 
REMARK    4  A    between atoms: C4_5  and  N1_6 
REMARK    5  A    between atoms: N2_18  and  C13_20 
REMARK    6  A    between atoms: C13_20  and  C14_21 
REMARK    7  A    between atoms: C14_21  and  N3_22 
ROOT
HETATM    1  O1  UNL     1       5.449  21.813  52.418  1.00  0.00    -0.274 OA
HETATM    2  C1  UNL     1       5.490  20.563  52.439  1.00  0.00     0.217 C 
HETATM    3  N2  UNL     1       4.328  19.855  51.958  1.00  0.00    -0.359 N 
ATOM      4  H2  UNL     1       4.320  18.835  51.959  1.00  0.00     0.162 HD
ENDROOT
BRANCH   2   5
HETATM    5  C2  UNL     1       6.630  19.786  52.917  1.00  0.00     0.104 C 
BRANCH   5   6
HETATM    6  C3  UNL     1       7.860  19.976  52.079  1.00  0.00     0.029 C 
BRANCH   6   7
HETATM    7  C4  UNL     1       7.706  19.617  50.650  1.00  0.00     0.136 C 
BRANCH   7   8
HETATM    8  N1  UNL     1       8.518  20.417  49.761  1.00  0.00    -0.280 N 
HETATM    9  C5  UNL     1       9.643  20.076  48.966  1.00  0.00     0.261 A 
HETATM   10  O2  UNL     1      10.148  18.929  48.908  1.00  0.00    -0.267 OA
HETATM   11  C6  UNL     1      10.118  21.246  48.235  1.00  0.00     0.048 A 
HETATM   12  C7  UNL     1      11.157  21.438  47.349  1.00  0.00     0.021 A 
HETATM   13  C11 UNL     1       9.284  22.282  48.588  1.00  0.00     0.051 A 
HETATM   14  C8  UNL     1      11.378  22.686  46.797  1.00  0.00     0.043 A 
HETATM   15  C9  UNL     1      10.552  23.734  47.141  1.00  0.00     0.117 A 
HETATM   16  F1  UNL     1      10.722  24.993  46.626  1.00  0.00    -0.206 F 
HETATM   17  C10 UNL     1       9.522  23.514  48.028  1.00  0.00     0.060 A 
HETATM   18  C12 UNL     1       8.275  21.801  49.538  1.00  0.00     0.261 A 
HETATM   19  O3  UNL     1       7.370  22.533  50.040  1.00  0.00    -0.267 OA
ENDBRANCH   7   8
ENDBRANCH   6   7
ENDBRANCH   5   6
ENDBRANCH   2   5
BRANCH   3  20
HETATM   20  C13 UNL     1       3.177  20.576  51.475  1.00  0.00     0.143 C 
BRANCH  20  21
HETATM   21  C14 UNL     1       2.156  19.771  50.766  1.00  0.00     0.165 C 
BRANCH  21  22
HETATM   22  N3  UNL     1       2.448  19.372  49.431  1.00  0.00    -0.235 N 
HETATM   23  C15 UNL     1       1.590  19.117  48.363  1.00  0.00     0.269 A 
HETATM   24  O4  UNL     1       0.327  19.217  48.487  1.00  0.00    -0.266 OA
HETATM   25  C16 UNL     1       2.253  18.740  47.139  1.00  0.00     0.056 A 
HETATM   26  C17 UNL     1       1.670  18.441  45.901  1.00  0.00     0.018 A 
HETATM   27  C21 UNL     1       3.605  18.684  47.198  1.00  0.00     0.095 A 
HETATM   28  C18 UNL     1       2.429  18.109  44.803  1.00  0.00     0.001 A 
HETATM   29  C19 UNL     1       3.800  18.052  44.862  1.00  0.00     0.002 A 
HETATM   30  C20 UNL     1       4.363  18.348  46.084  1.00  0.00     0.026 A 
HETATM   31  S1  UNL     1       4.047  19.082  48.853  1.00  0.00     0.268 S 
HETATM   32  O5  UNL     1       4.664  17.876  49.472  1.00  0.00    -0.200 OA
HETATM   33  O6  UNL     1       4.909  20.290  48.930  1.00  0.00    -0.200 OA
ENDBRANCH  21  22
ENDBRANCH  20  21
ENDBRANCH   3  20
TORSDOF 7
ENDMDL
