MODEL 1
REMARK VINA RESULT: -8.850610631      0.000      0.000
REMARK  9 active torsions:
REMARK  status: ('A' for Active; 'I' for Inactive)
REMARK    1  A    between atoms: C2_2  and  C4_4 
REMARK    2  A    between atoms: C4_4  and  C5_5 
REMARK    3  A    between atoms: C7_9  and  C8_10 
REMARK    4  A    between atoms: C8_10  and  N2_11 
REMARK    5  A    between atoms: C8_10  and  C16_21 
REMARK    6  A    between atoms: N2_11  and  C9_13 
REMARK    7  A    between atoms: C9_13  and  C10_14 
REMARK    8  A    between atoms: N4_28  and  C21_29 
REMARK    9  A    between atoms: C21_29  and  C22_30 
REMARK       I    between atoms: C22_30  and  N5_32 
ROOT
HETATM    1  C5  UNL     1       4.487  19.311  50.147  1.00  0.00     0.089 A 
HETATM    2  C6  UNL     1       5.297  19.002  49.108  1.00  0.00     0.115 A 
HETATM    3  N1  UNL     1       6.612  18.889  49.271  1.00  0.00    -0.349 N 
ATOM      4  H1  UNL     1       7.174  18.655  48.452  1.00  0.00     0.167 HD
HETATM    5  C7  UNL     1       7.274  19.067  50.482  1.00  0.00     0.138 A 
HETATM    6  N4  UNL     1       6.521  19.372  51.525  1.00  0.00    -0.288 N 
HETATM    7  C25 UNL     1       5.191  19.490  51.369  1.00  0.00     0.269 A 
HETATM    8  O2  UNL     1       4.509  19.779  52.378  1.00  0.00    -0.266 OA
ENDROOT
BRANCH   5   9
HETATM    9  C8  UNL     1       8.554  18.878  50.399  1.00  0.00     0.085 C 
BRANCH   9  10
HETATM   10  N2  UNL     1       9.310  20.093  50.019  1.00  0.00    -0.382 N 
ATOM     11  H2  UNL     1       9.156  20.963  50.528  1.00  0.00     0.160 HD
BRANCH  10  12
HETATM   12  C9  UNL     1      10.255  20.058  48.947  1.00  0.00     0.158 C 
BRANCH  12  13
HETATM   13  C10 UNL     1      10.250  21.418  48.331  1.00  0.00    -0.040 A 
HETATM   14  C11 UNL     1      11.106  21.670  47.280  1.00  0.00     0.012 A 
HETATM   15  C12 UNL     1      11.150  22.898  46.655  1.00  0.00     0.043 A 
HETATM   16  C13 UNL     1      10.322  23.891  47.096  1.00  0.00     0.116 A 
HETATM   17  F1  UNL     1      10.389  25.104  46.454  1.00  0.00    -0.206 F 
HETATM   18  C14 UNL     1       9.450  23.673  48.151  1.00  0.00     0.043 A 
HETATM   19  C15 UNL     1       9.432  22.432  48.752  1.00  0.00     0.012 A 
ENDBRANCH  12  13
ENDBRANCH  10  12
ENDBRANCH   9  10
BRANCH   9  20
HETATM   20  C16 UNL     1       9.446  17.789  50.581  1.00  0.00     0.009 A 
HETATM   21  C17 UNL     1      10.381  17.695  51.591  1.00  0.00     0.016 A 
HETATM   22  C18 UNL     1      11.262  16.655  51.665  1.00  0.00     0.018 A 
HETATM   23  C19 UNL     1      11.257  15.638  50.723  1.00  0.00     0.087 A 
HETATM   24  N3  UNL     1      10.334  15.763  49.754  1.00  0.00    -0.374 N 
HETATM   25  C20 UNL     1       9.463  16.747  49.638  1.00  0.00     0.101 A 
ATOM     26  H3  UNL     1      10.304  15.030  49.045  1.00  0.00     0.164 HD
ENDBRANCH   9  20
ENDBRANCH   5   9
BRANCH   6  27
HETATM   27  C21 UNL     1       7.064  19.618  52.831  1.00  0.00     0.236 C 
BRANCH  27  28
HETATM   28  C22 UNL     1       7.227  21.045  53.179  1.00  0.00     0.237 C 
HETATM   29  O1  UNL     1       7.759  21.818  52.372  1.00  0.00    -0.272 OA
HETATM   30  N5  UNL     1       6.772  21.516  54.431  1.00  0.00    -0.359 N 
HETATM   31  C23 UNL     1       6.157  20.553  55.328  1.00  0.00     0.152 C 
HETATM   32  C24 UNL     1       6.876  22.878  54.859  1.00  0.00     0.152 C 
ENDBRANCH  27  28
ENDBRANCH   6  27
BRANCH   1  33
HETATM   33  C4  UNL     1       3.204  19.409  50.260  1.00  0.00    -0.133 C 
BRANCH  33  34
HETATM   34  C2  UNL     1       1.833  19.510  50.387  1.00  0.00     0.049 C 
HETATM   35  C1  UNL     1       1.243  20.776  50.999  1.00  0.00     0.022 C 
HETATM   36  C3  UNL     1       1.190  19.330  48.962  1.00  0.00     0.022 C 
ENDBRANCH  33  34
ENDBRANCH   1  33
TORSDOF 9
ENDMDL
MODEL 2
REMARK VINA RESULT: -8.434498660      2.527      7.259
REMARK  9 active torsions:
REMARK  status: ('A' for Active; 'I' for Inactive)
REMARK    1  A    between atoms: C2_2  and  C4_4 
REMARK    2  A    between atoms: C4_4  and  C5_5 
REMARK    3  A    between atoms: C7_9  and  C8_10 
REMARK    4  A    between atoms: C8_10  and  N2_11 
REMARK    5  A    between atoms: C8_10  and  C16_21 
REMARK    6  A    between atoms: N2_11  and  C9_13 
REMARK    7  A    between atoms: C9_13  and  C10_14 
REMARK    8  A    between atoms: N4_28  and  C21_29 
REMARK    9  A    between atoms: C21_29  and  C22_30 
REMARK       I    between atoms: C22_30  and  N5_32 
ROOT
HETATM    1  C5  UNL     1       9.103  22.073  49.121  1.00  0.00     0.089 A 
HETATM    2  C6  UNL     1       7.999  22.683  49.612  1.00  0.00     0.115 A 
HETATM    3  N1  UNL     1       7.254  22.104  50.550  1.00  0.00    -0.349 N 
ATOM      4  H1  UNL     1       6.432  22.609  50.883  1.00  0.00     0.167 HD
HETATM    5  C7  UNL     1       7.517  20.856  51.107  1.00  0.00     0.138 A 
HETATM    6  N4  UNL     1       8.586  20.223  50.655  1.00  0.00    -0.288 N 
HETATM    7  C25 UNL     1       9.344  20.800  49.706  1.00  0.00     0.269 A 
HETATM    8  O2  UNL     1      10.349  20.173  49.302  1.00  0.00    -0.266 OA
ENDROOT
BRANCH   5   9
HETATM    9  C8  UNL     1       6.665  20.513  52.022  1.00  0.00     0.085 C 
BRANCH   9  10
HETATM   10  N2  UNL     1       5.447  19.863  51.486  1.00  0.00    -0.382 N 
ATOM     11  H2  UNL     1       5.508  18.925  51.091  1.00  0.00     0.160 HD
BRANCH  10  12
HETATM   12  C9  UNL     1       4.187  20.537  51.518  1.00  0.00     0.158 C 
BRANCH  12  13
HETATM   13  C10 UNL     1       3.387  19.998  50.379  1.00  0.00    -0.040 A 
HETATM   14  C11 UNL     1       4.014  19.797  49.167  1.00  0.00     0.012 A 
HETATM   15  C12 UNL     1       3.342  19.293  48.074  1.00  0.00     0.043 A 
HETATM   16  C13 UNL     1       2.017  18.988  48.200  1.00  0.00     0.116 A 
HETATM   17  F1  UNL     1       1.374  18.487  47.094  1.00  0.00    -0.206 F 
HETATM   18  C14 UNL     1       1.354  19.178  49.402  1.00  0.00     0.043 A 
HETATM   19  C15 UNL     1       2.059  19.684  50.475  1.00  0.00     0.012 A 
ENDBRANCH  12  13
ENDBRANCH  10  12
ENDBRANCH   9  10
BRANCH   9  20
HETATM   20  C16 UNL     1       6.587  20.596  53.438  1.00  0.00     0.009 A 
HETATM   21  C17 UNL     1       6.326  19.534  54.277  1.00  0.00     0.016 A 
HETATM   22  C18 UNL     1       6.188  19.696  55.625  1.00  0.00     0.018 A 
HETATM   23  C19 UNL     1       6.306  20.943  56.217  1.00  0.00     0.087 A 
HETATM   24  N3  UNL     1       6.560  21.954  55.369  1.00  0.00    -0.374 N 
HETATM   25  C20 UNL     1       6.701  21.850  54.061  1.00  0.00     0.101 A 
ATOM     26  H3  UNL     1       6.653  22.886  55.773  1.00  0.00     0.164 HD
ENDBRANCH   9  20
ENDBRANCH   5   9
BRANCH   6  27
HETATM   27  C21 UNL     1       8.967  18.916  51.110  1.00  0.00     0.236 C 
BRANCH  27  28
HETATM   28  C22 UNL     1       8.410  17.796  50.323  1.00  0.00     0.237 C 
HETATM   29  O1  UNL     1       7.225  17.824  49.967  1.00  0.00    -0.272 OA
HETATM   30  N5  UNL     1       9.236  16.702  49.982  1.00  0.00    -0.359 N 
HETATM   31  C23 UNL     1      10.617  16.736  50.434  1.00  0.00     0.152 C 
HETATM   32  C24 UNL     1       8.795  15.573  49.219  1.00  0.00     0.152 C 
ENDBRANCH  27  28
ENDBRANCH   6  27
BRANCH   1  33
HETATM   33  C4  UNL     1      10.009  22.445  48.279  1.00  0.00    -0.133 C 
BRANCH  33  34
HETATM   34  C2  UNL     1      10.973  22.849  47.377  1.00  0.00     0.049 C 
HETATM   35  C1  UNL     1      11.389  21.889  46.267  1.00  0.00     0.022 C 
HETATM   36  C3  UNL     1      10.485  24.179  46.694  1.00  0.00     0.022 C 
ENDBRANCH  33  34
ENDBRANCH   1  33
TORSDOF 9
ENDMDL
MODEL 3
REMARK VINA RESULT: -8.393147213      3.074      6.339
REMARK  9 active torsions:
REMARK  status: ('A' for Active; 'I' for Inactive)
REMARK    1  A    between atoms: C2_2  and  C4_4 
REMARK    2  A    between atoms: C4_4  and  C5_5 
REMARK    3  A    between atoms: C7_9  and  C8_10 
REMARK    4  A    between atoms: C8_10  and  N2_11 
REMARK    5  A    between atoms: C8_10  and  C16_21 
REMARK    6  A    between atoms: N2_11  and  C9_13 
REMARK    7  A    between atoms: C9_13  and  C10_14 
REMARK    8  A    between atoms: N4_28  and  C21_29 
REMARK    9  A    between atoms: C21_29  and  C22_30 
REMARK       I    between atoms: C22_30  and  N5_32 
ROOT
HETATM    1  C5  UNL     1       9.208  21.147  48.799  1.00  0.00     0.089 A 
HETATM    2  C6  UNL     1       9.268  19.797  48.721  1.00  0.00     0.115 A 
HETATM    3  N1  UNL     1       8.354  19.033  49.312  1.00  0.00    -0.349 N 
ATOM      4  H1  UNL     1       8.449  18.021  49.221  1.00  0.00     0.167 HD
HETATM    5  C7  UNL     1       7.275  19.518  50.046  1.00  0.00     0.138 A 
HETATM    6  N4  UNL     1       7.178  20.832  50.149  1.00  0.00    -0.288 N 
HETATM    7  C25 UNL     1       8.098  21.613  49.556  1.00  0.00     0.269 A 
HETATM    8  O2  UNL     1       7.975  22.853  49.674  1.00  0.00    -0.266 OA
ENDROOT
BRANCH   5   9
HETATM    9  C8  UNL     1       6.504  18.582  50.503  1.00  0.00     0.085 C 
BRANCH   9  10
HETATM   10  N2  UNL     1       5.186  18.518  49.831  1.00  0.00    -0.382 N 
ATOM     11  H2  UNL     1       4.360  18.245  50.364  1.00  0.00     0.160 HD
BRANCH  10  12
HETATM   12  C9  UNL     1       5.058  18.834  48.443  1.00  0.00     0.158 C 
BRANCH  12  13
HETATM   13  C10 UNL     1       3.595  18.915  48.157  1.00  0.00    -0.040 A 
HETATM   14  C11 UNL     1       2.716  18.974  49.218  1.00  0.00     0.012 A 
HETATM   15  C12 UNL     1       1.354  19.061  49.031  1.00  0.00     0.043 A 
HETATM   16  C13 UNL     1       0.865  19.086  47.756  1.00  0.00     0.116 A 
HETATM   17  F1  UNL     1      -0.497  19.173  47.601  1.00  0.00    -0.206 F 
HETATM   18  C14 UNL     1       1.719  19.027  46.666  1.00  0.00     0.043 A 
HETATM   19  C15 UNL     1       3.077  18.942  46.891  1.00  0.00     0.012 A 
ENDBRANCH  12  13
ENDBRANCH  10  12
ENDBRANCH   9  10
BRANCH   9  20
HETATM   20  C16 UNL     1       6.588  17.576  51.501  1.00  0.00     0.009 A 
HETATM   21  C17 UNL     1       7.068  17.771  52.779  1.00  0.00     0.016 A 
HETATM   22  C18 UNL     1       7.194  16.743  53.668  1.00  0.00     0.018 A 
HETATM   23  C19 UNL     1       6.843  15.447  53.325  1.00  0.00     0.087 A 
HETATM   24  N3  UNL     1       6.381  15.294  52.073  1.00  0.00    -0.374 N 
HETATM   25  C20 UNL     1       6.241  16.253  51.177  1.00  0.00     0.101 A 
ATOM     26  H3  UNL     1       6.113  14.351  51.789  1.00  0.00     0.164 HD
ENDBRANCH   9  20
ENDBRANCH   5   9
BRANCH   6  27
HETATM   27  C21 UNL     1       6.139  21.478  50.900  1.00  0.00     0.236 C 
BRANCH  27  28
HETATM   28  C22 UNL     1       6.295  21.407  52.368  1.00  0.00     0.237 C 
HETATM   29  O1  UNL     1       7.362  21.756  52.890  1.00  0.00    -0.272 OA
HETATM   30  N5  UNL     1       5.225  20.942  53.164  1.00  0.00    -0.359 N 
HETATM   31  C23 UNL     1       4.002  20.549  52.483  1.00  0.00     0.152 C 
HETATM   32  C24 UNL     1       5.274  20.842  54.592  1.00  0.00     0.152 C 
ENDBRANCH  27  28
ENDBRANCH   6  27
BRANCH   1  33
HETATM   33  C4  UNL     1       9.916  22.088  48.270  1.00  0.00    -0.133 C 
BRANCH  33  34
HETATM   34  C2  UNL     1      10.675  23.090  47.699  1.00  0.00     0.049 C 
HETATM   35  C1  UNL     1      11.495  22.771  46.453  1.00  0.00     0.022 C 
HETATM   36  C3  UNL     1       9.724  24.291  47.346  1.00  0.00     0.022 C 
ENDBRANCH  33  34
ENDBRANCH   1  33
TORSDOF 9
ENDMDL
MODEL 4
REMARK VINA RESULT: -8.308539897      1.435      1.886
REMARK  9 active torsions:
REMARK  status: ('A' for Active; 'I' for Inactive)
REMARK    1  A    between atoms: C2_2  and  C4_4 
REMARK    2  A    between atoms: C4_4  and  C5_5 
REMARK    3  A    between atoms: C7_9  and  C8_10 
REMARK    4  A    between atoms: C8_10  and  N2_11 
REMARK    5  A    between atoms: C8_10  and  C16_21 
REMARK    6  A    between atoms: N2_11  and  C9_13 
REMARK    7  A    between atoms: C9_13  and  C10_14 
REMARK    8  A    between atoms: N4_28  and  C21_29 
REMARK    9  A    between atoms: C21_29  and  C22_30 
REMARK       I    between atoms: C22_30  and  N5_32 
ROOT
HETATM    1  C5  UNL     1       4.503  19.278  48.931  1.00  0.00     0.089 A 
HETATM    2  C6  UNL     1       5.711  19.128  48.338  1.00  0.00     0.115 A 
HETATM    3  N1  UNL     1       6.832  19.124  49.054  1.00  0.00    -0.349 N 
ATOM      4  H1  UNL     1       7.714  19.009  48.554  1.00  0.00     0.167 HD
HETATM    5  C7  UNL     1       6.885  19.268  50.437  1.00  0.00     0.138 A 
HETATM    6  N4  UNL     1       5.728  19.419  51.058  1.00  0.00    -0.288 N 
HETATM    7  C25 UNL     1       4.589  19.425  50.343  1.00  0.00     0.269 A 
HETATM    8  O2  UNL     1       3.512  19.569  50.963  1.00  0.00    -0.266 OA
ENDROOT
BRANCH   5   9
HETATM    9  C8  UNL     1       8.089  19.205  50.913  1.00  0.00     0.085 C 
BRANCH   9  10
HETATM   10  N2  UNL     1       8.781  20.514  50.952  1.00  0.00    -0.382 N 
ATOM     11  H2  UNL     1       9.659  20.605  51.464  1.00  0.00     0.160 HD
BRANCH  10  12
HETATM   12  C9  UNL     1       8.233  21.649  50.280  1.00  0.00     0.158 C 
BRANCH  12  13
HETATM   13  C10 UNL     1       9.207  22.023  49.212  1.00  0.00    -0.040 A 
HETATM   14  C11 UNL     1       9.161  23.300  48.693  1.00  0.00     0.012 A 
HETATM   15  C12 UNL     1      10.034  23.720  47.713  1.00  0.00     0.043 A 
HETATM   16  C13 UNL     1      10.968  22.841  47.244  1.00  0.00     0.116 A 
HETATM   17  F1  UNL     1      11.825  23.288  46.267  1.00  0.00    -0.206 F 
HETATM   18  C14 UNL     1      11.043  21.550  47.741  1.00  0.00     0.043 A 
HETATM   19  C15 UNL     1      10.153  21.164  48.722  1.00  0.00     0.012 A 
ENDBRANCH  12  13
ENDBRANCH  10  12
ENDBRANCH   9  10
BRANCH   9  20
HETATM   20  C16 UNL     1       8.943  18.190  51.420  1.00  0.00     0.009 A 
HETATM   21  C17 UNL     1      10.252  17.994  51.032  1.00  0.00     0.016 A 
HETATM   22  C18 UNL     1      10.996  16.951  51.502  1.00  0.00     0.018 A 
HETATM   23  C19 UNL     1      10.467  16.035  52.398  1.00  0.00     0.087 A 
HETATM   24  N3  UNL     1       9.191  16.257  52.754  1.00  0.00    -0.374 N 
HETATM   25  C20 UNL     1       8.430  17.248  52.327  1.00  0.00     0.101 A 
ATOM     26  H3  UNL     1       8.772  15.601  53.413  1.00  0.00     0.164 HD
ENDBRANCH   9  20
ENDBRANCH   5   9
BRANCH   6  27
HETATM   27  C21 UNL     1       5.626  19.610  52.477  1.00  0.00     0.236 C 
BRANCH  27  28
HETATM   28  C22 UNL     1       5.741  21.014  52.926  1.00  0.00     0.237 C 
HETATM   29  O1  UNL     1       5.629  21.933  52.105  1.00  0.00    -0.272 OA
HETATM   30  N5  UNL     1       5.977  21.295  54.290  1.00  0.00    -0.359 N 
HETATM   31  C23 UNL     1       6.098  20.166  55.198  1.00  0.00     0.152 C 
HETATM   32  C24 UNL     1       6.097  22.617  54.825  1.00  0.00     0.152 C 
ENDBRANCH  27  28
ENDBRANCH   6  27
BRANCH   1  33
HETATM   33  C4  UNL     1       3.294  19.248  48.478  1.00  0.00    -0.133 C 
BRANCH  33  34
HETATM   34  C2  UNL     1       2.001  19.209  47.998  1.00  0.00     0.049 C 
HETATM   35  C1  UNL     1       1.775  19.255  46.490  1.00  0.00     0.022 C 
HETATM   36  C3  UNL     1       1.311  17.903  48.540  1.00  0.00     0.022 C 
ENDBRANCH  33  34
ENDBRANCH   1  33
TORSDOF 9
ENDMDL
MODEL 5
REMARK VINA RESULT: -8.252210010      3.054      7.741
REMARK  9 active torsions:
REMARK  status: ('A' for Active; 'I' for Inactive)
REMARK    1  A    between atoms: C2_2  and  C4_4 
REMARK    2  A    between atoms: C4_4  and  C5_5 
REMARK    3  A    between atoms: C7_9  and  C8_10 
REMARK    4  A    between atoms: C8_10  and  N2_11 
REMARK    5  A    between atoms: C8_10  and  C16_21 
REMARK    6  A    between atoms: N2_11  and  C9_13 
REMARK    7  A    between atoms: C9_13  and  C10_14 
REMARK    8  A    between atoms: N4_28  and  C21_29 
REMARK    9  A    between atoms: C21_29  and  C22_30 
REMARK       I    between atoms: C22_30  and  N5_32 
ROOT
HETATM    1  C5  UNL     1       8.854  22.145  48.891  1.00  0.00     0.089 A 
HETATM    2  C6  UNL     1       7.960  22.872  49.602  1.00  0.00     0.115 A 
HETATM    3  N1  UNL     1       7.018  22.281  50.331  1.00  0.00    -0.349 N 
ATOM      4  H1  UNL     1       6.371  22.879  50.846  1.00  0.00     0.167 HD
HETATM    5  C7  UNL     1       6.855  20.903  50.441  1.00  0.00     0.138 A 
HETATM    6  N4  UNL     1       7.705  20.154  49.762  1.00  0.00    -0.288 N 
HETATM    7  C25 UNL     1       8.660  20.742  49.021  1.00  0.00     0.269 A 
HETATM    8  O2  UNL     1       9.449  20.002  48.391  1.00  0.00    -0.266 OA
ENDROOT
BRANCH   5   9
HETATM    9  C8  UNL     1       5.884  20.564  51.232  1.00  0.00     0.085 C 
BRANCH   9  10
HETATM   10  N2  UNL     1       6.313  20.324  52.629  1.00  0.00    -0.382 N 
ATOM     11  H2  UNL     1       6.140  19.416  53.060  1.00  0.00     0.160 HD
BRANCH  10  12
HETATM   12  C9  UNL     1       6.966  21.351  53.378  1.00  0.00     0.158 C 
BRANCH  12  13
HETATM   13  C10 UNL     1       6.604  21.130  54.809  1.00  0.00    -0.040 A 
HETATM   14  C11 UNL     1       6.140  19.888  55.189  1.00  0.00     0.012 A 
HETATM   15  C12 UNL     1       5.797  19.608  56.494  1.00  0.00     0.043 A 
HETATM   16  C13 UNL     1       5.920  20.592  57.433  1.00  0.00     0.116 A 
HETATM   17  F1  UNL     1       5.570  20.283  58.726  1.00  0.00    -0.206 F 
HETATM   18  C14 UNL     1       6.382  21.851  57.087  1.00  0.00     0.043 A 
HETATM   19  C15 UNL     1       6.717  22.096  55.771  1.00  0.00     0.012 A 
ENDBRANCH  12  13
ENDBRANCH  10  12
ENDBRANCH   9  10
BRANCH   9  20
HETATM   20  C16 UNL     1       4.485  20.357  51.112  1.00  0.00     0.009 A 
HETATM   21  C17 UNL     1       3.579  20.470  52.146  1.00  0.00     0.016 A 
HETATM   22  C18 UNL     1       2.255  20.183  51.980  1.00  0.00     0.018 A 
HETATM   23  C19 UNL     1       1.756  19.762  50.758  1.00  0.00     0.087 A 
HETATM   24  N3  UNL     1       2.666  19.664  49.774  1.00  0.00    -0.374 N 
HETATM   25  C20 UNL     1       3.955  19.928  49.883  1.00  0.00     0.101 A 
ATOM     26  H3  UNL     1       2.331  19.357  48.861  1.00  0.00     0.164 HD
ENDBRANCH   9  20
ENDBRANCH   5   9
BRANCH   6  27
HETATM   27  C21 UNL     1       7.641  18.720  49.751  1.00  0.00     0.236 C 
BRANCH  27  28
HETATM   28  C22 UNL     1       8.493  18.051  50.758  1.00  0.00     0.237 C 
HETATM   29  O1  UNL     1       8.707  18.601  51.845  1.00  0.00    -0.272 OA
HETATM   30  N5  UNL     1       9.055  16.787  50.470  1.00  0.00    -0.359 N 
HETATM   31  C23 UNL     1       8.761  16.200  49.173  1.00  0.00     0.152 C 
HETATM   32  C24 UNL     1       9.886  16.055  51.378  1.00  0.00     0.152 C 
ENDBRANCH  27  28
ENDBRANCH   6  27
BRANCH   1  33
HETATM   33  C4  UNL     1       9.880  22.470  48.178  1.00  0.00    -0.133 C 
BRANCH  33  34
HETATM   34  C2  UNL     1      10.972  22.823  47.411  1.00  0.00     0.049 C 
HETATM   35  C1  UNL     1      11.487  21.837  46.368  1.00  0.00     0.022 C 
HETATM   36  C3  UNL     1      10.640  24.169  46.667  1.00  0.00     0.022 C 
ENDBRANCH  33  34
ENDBRANCH   1  33
TORSDOF 9
ENDMDL
