MODEL 1
REMARK VINA RESULT: -6.216838374      0.000      0.000
REMARK  3 active torsions:
REMARK  status: ('A' for Active; 'I' for Inactive)
REMARK    1  A    between atoms: N1_1  and  N2_4 
REMARK       I    between atoms: C1_6  and  N4_8 
REMARK    2  A    between atoms: N4_8  and  N5_10 
REMARK       I    between atoms: N5_10  and  C2_12 
REMARK    3  A    between atoms: C2_12  and  C3_14 
ROOT
HETATM    1  N2  UNL     1      23.902  49.383  68.765  1.00  0.00    -0.279 N 
ATOM      2  H2  UNL     1      24.029  50.338  68.428  1.00  0.00     0.189 HD
HETATM    3  C1  UNL     1      23.028  48.616  68.213  1.00  0.00     0.221 C 
HETATM    4  N3  UNL     1      22.885  47.294  68.713  1.00  0.00    -0.061 NA
HETATM    5  N4  UNL     1      22.222  49.084  67.124  1.00  0.00    -0.269 N 
ATOM      6  H4  UNL     1      22.645  49.318  66.225  1.00  0.00     0.190 HD
ENDROOT
BRANCH   5   7
HETATM    7  N5  UNL     1      20.855  49.211  67.320  1.00  0.00    -0.260 N 
HETATM    8  C2  UNL     1      19.957  49.521  66.280  1.00  0.00     0.325 C 
HETATM    9  O1  UNL     1      20.357  49.701  65.106  1.00  0.00    -0.261 OA
ATOM     10  H5  UNL     1      20.484  49.074  68.259  1.00  0.00     0.190 HD
BRANCH   8  11
HETATM   11  C3  UNL     1      18.528  49.649  66.518  1.00  0.00     0.324 C 
HETATM   12  N6  UNL     1      17.952  49.703  67.802  1.00  0.00    -0.053 NA
HETATM   13  O2  UNL     1      17.767  49.716  65.502  1.00  0.00    -0.266 OA
ENDBRANCH   8  11
ENDBRANCH   5   7
BRANCH   1  14
HETATM   14  N1  UNL     1      24.672  48.908  69.819  1.00  0.00    -0.343 N 
ATOM     15  H12 UNL     1      25.403  48.222  69.629  1.00  0.00     0.176 HD
ATOM     16  H11 UNL     1      24.502  49.246  70.766  1.00  0.00     0.176 HD
ENDBRANCH   1  14
TORSDOF 3
ENDMDL
MODEL 2
REMARK VINA RESULT: -6.149405064      5.363      7.158
REMARK  3 active torsions:
REMARK  status: ('A' for Active; 'I' for Inactive)
REMARK    1  A    between atoms: N1_1  and  N2_4 
REMARK       I    between atoms: C1_6  and  N4_8 
REMARK    2  A    between atoms: N4_8  and  N5_10 
REMARK       I    between atoms: N5_10  and  C2_12 
REMARK    3  A    between atoms: C2_12  and  C3_14 
ROOT
HETATM    1  N2  UNL     1      23.274  47.932  69.301  1.00  0.00    -0.279 N 
ATOM      2  H2  UNL     1      22.533  47.716  69.968  1.00  0.00     0.189 HD
HETATM    3  C1  UNL     1      23.791  46.994  68.586  1.00  0.00     0.221 C 
HETATM    4  N3  UNL     1      24.819  47.341  67.669  1.00  0.00    -0.061 NA
HETATM    5  N4  UNL     1      23.341  45.640  68.713  1.00  0.00    -0.269 N 
ATOM      6  H4  UNL     1      22.393  45.378  68.444  1.00  0.00     0.190 HD
ENDROOT
BRANCH   5   7
HETATM    7  N5  UNL     1      24.225  44.693  69.210  1.00  0.00    -0.260 N 
HETATM    8  C2  UNL     1      23.877  43.341  69.392  1.00  0.00     0.325 C 
HETATM    9  O1  UNL     1      22.731  42.919  69.110  1.00  0.00    -0.261 OA
ATOM     10  H5  UNL     1      25.169  44.990  69.454  1.00  0.00     0.190 HD
BRANCH   8  11
HETATM   11  C3  UNL     1      24.826  42.371  69.917  1.00  0.00     0.324 C 
HETATM   12  N6  UNL     1      26.051  42.063  69.293  1.00  0.00    -0.053 NA
HETATM   13  O2  UNL     1      24.523  41.777  70.999  1.00  0.00    -0.266 OA
ENDBRANCH   8  11
ENDBRANCH   5   7
BRANCH   1  14
HETATM   14  N1  UNL     1      23.725  49.238  69.161  1.00  0.00    -0.343 N 
ATOM     15  H12 UNL     1      23.624  49.704  68.259  1.00  0.00     0.176 HD
ATOM     16  H11 UNL     1      24.151  49.717  69.955  1.00  0.00     0.176 HD
ENDBRANCH   1  14
TORSDOF 3
ENDMDL
MODEL 3
REMARK VINA RESULT: -6.132668823      2.901      5.509
REMARK  3 active torsions:
REMARK  status: ('A' for Active; 'I' for Inactive)
REMARK    1  A    between atoms: N1_1  and  N2_4 
REMARK       I    between atoms: C1_6  and  N4_8 
REMARK    2  A    between atoms: N4_8  and  N5_10 
REMARK       I    between atoms: N5_10  and  C2_12 
REMARK    3  A    between atoms: C2_12  and  C3_14 
ROOT
HETATM    1  N2  UNL     1      19.067  49.704  67.268  1.00  0.00    -0.279 N 
ATOM      2  H2  UNL     1      18.815  49.515  68.238  1.00  0.00     0.189 HD
HETATM    3  C1  UNL     1      20.173  49.250  66.789  1.00  0.00     0.221 C 
HETATM    4  N3  UNL     1      20.483  49.537  65.432  1.00  0.00    -0.061 NA
HETATM    5  N4  UNL     1      21.063  48.476  67.602  1.00  0.00    -0.269 N 
ATOM      6  H4  UNL     1      20.788  47.557  67.949  1.00  0.00     0.190 HD
ENDROOT
BRANCH   5   7
HETATM    7  N5  UNL     1      22.308  49.006  67.908  1.00  0.00    -0.260 N 
HETATM    8  C2  UNL     1      23.346  48.246  68.480  1.00  0.00     0.325 C 
HETATM    9  O1  UNL     1      23.192  47.031  68.747  1.00  0.00    -0.261 OA
ATOM     10  H5  UNL     1      22.479  49.992  67.709  1.00  0.00     0.190 HD
BRANCH   8  11
HETATM   11  C3  UNL     1      24.641  48.831  68.790  1.00  0.00     0.324 C 
HETATM   12  N6  UNL     1      25.852  48.112  68.748  1.00  0.00    -0.053 NA
HETATM   13  O2  UNL     1      24.669  50.060  69.114  1.00  0.00    -0.266 OA
ENDBRANCH   8  11
ENDBRANCH   5   7
BRANCH   1  14
HETATM   14  N1  UNL     1      18.218  50.450  66.460  1.00  0.00    -0.343 N 
ATOM     15  H12 UNL     1      18.076  51.438  66.670  1.00  0.00     0.176 HD
ATOM     16  H11 UNL     1      17.748  50.008  65.671  1.00  0.00     0.176 HD
ENDBRANCH   1  14
TORSDOF 3
ENDMDL
MODEL 4
REMARK VINA RESULT: -6.066203367      5.167      7.024
REMARK  3 active torsions:
REMARK  status: ('A' for Active; 'I' for Inactive)
REMARK    1  A    between atoms: N1_1  and  N2_4 
REMARK       I    between atoms: C1_6  and  N4_8 
REMARK    2  A    between atoms: N4_8  and  N5_10 
REMARK       I    between atoms: N5_10  and  C2_12 
REMARK    3  A    between atoms: C2_12  and  C3_14 
ROOT
HETATM    1  N2  UNL     1      23.298  48.027  69.379  1.00  0.00    -0.279 N 
ATOM      2  H2  UNL     1      22.690  47.826  70.174  1.00  0.00     0.189 HD
HETATM    3  C1  UNL     1      23.674  47.075  68.598  1.00  0.00     0.221 C 
HETATM    4  N3  UNL     1      24.520  47.401  67.505  1.00  0.00    -0.061 NA
HETATM    5  N4  UNL     1      23.249  45.726  68.827  1.00  0.00    -0.269 N 
ATOM      6  H4  UNL     1      22.267  45.466  68.738  1.00  0.00     0.190 HD
ENDROOT
BRANCH   5   7
HETATM    7  N5  UNL     1      24.205  44.781  69.171  1.00  0.00    -0.260 N 
HETATM    8  C2  UNL     1      24.046  43.404  68.924  1.00  0.00     0.325 C 
HETATM    9  O1  UNL     1      23.013  42.956  68.373  1.00  0.00    -0.261 OA
ATOM     10  H5  UNL     1      25.062  45.099  69.624  1.00  0.00     0.190 HD
BRANCH   8  11
HETATM   11  C3  UNL     1      25.067  42.437  69.298  1.00  0.00     0.324 C 
HETATM   12  N6  UNL     1      24.921  41.520  70.358  1.00  0.00    -0.053 NA
HETATM   13  O2  UNL     1      26.143  42.428  68.624  1.00  0.00    -0.266 OA
ENDBRANCH   8  11
ENDBRANCH   5   7
BRANCH   1  14
HETATM   14  N1  UNL     1      23.721  49.328  69.138  1.00  0.00    -0.343 N 
ATOM     15  H12 UNL     1      23.676  50.012  69.893  1.00  0.00     0.176 HD
ATOM     16  H11 UNL     1      24.070  49.586  68.215  1.00  0.00     0.176 HD
ENDBRANCH   1  14
TORSDOF 3
ENDMDL
MODEL 5
REMARK VINA RESULT: -6.007373863      1.965      2.547
REMARK  3 active torsions:
REMARK  status: ('A' for Active; 'I' for Inactive)
REMARK    1  A    between atoms: N1_1  and  N2_4 
REMARK       I    between atoms: C1_6  and  N4_8 
REMARK    2  A    between atoms: N4_8  and  N5_10 
REMARK       I    between atoms: N5_10  and  C2_12 
REMARK    3  A    between atoms: C2_12  and  C3_14 
ROOT
HETATM    1  N2  UNL     1      24.000  46.065  68.871  1.00  0.00    -0.279 N 
ATOM      2  H2  UNL     1      23.445  45.747  69.665  1.00  0.00     0.189 HD
HETATM    3  C1  UNL     1      23.725  47.185  68.299  1.00  0.00     0.221 C 
HETATM    4  N3  UNL     1      24.525  47.589  67.196  1.00  0.00    -0.061 NA
HETATM    5  N4  UNL     1      22.643  48.001  68.764  1.00  0.00    -0.269 N 
ATOM      6  H4  UNL     1      22.674  48.433  69.687  1.00  0.00     0.190 HD
ENDROOT
BRANCH   5   7
HETATM    7  N5  UNL     1      21.551  48.190  67.929  1.00  0.00    -0.260 N 
HETATM    8  C2  UNL     1      21.400  49.326  67.110  1.00  0.00     0.325 C 
HETATM    9  O1  UNL     1      22.259  50.239  67.096  1.00  0.00    -0.261 OA
ATOM     10  H5  UNL     1      20.826  47.475  67.907  1.00  0.00     0.190 HD
BRANCH   8  11
HETATM   11  C3  UNL     1      20.243  49.497  66.245  1.00  0.00     0.324 C 
HETATM   12  N6  UNL     1      20.331  49.682  64.852  1.00  0.00    -0.053 NA
HETATM   13  O2  UNL     1      19.094  49.474  66.788  1.00  0.00    -0.266 OA
ENDBRANCH   8  11
ENDBRANCH   5   7
BRANCH   1  14
HETATM   14  N1  UNL     1      25.055  45.291  68.404  1.00  0.00    -0.343 N 
ATOM     15  H12 UNL     1      24.854  44.483  67.814  1.00  0.00     0.176 HD
ATOM     16  H11 UNL     1      26.013  45.534  68.654  1.00  0.00     0.176 HD
ENDBRANCH   1  14
TORSDOF 3
ENDMDL
