MODEL 1
REMARK VINA RESULT: -6.365412732      0.000      0.000
REMARK  6 active torsions:
REMARK  status: ('A' for Active; 'I' for Inactive)
REMARK    1  A    between atoms: C1_4  and  C2_5 
REMARK    2  A    between atoms: C1_4  and  N3_13 
REMARK    3  A    between atoms: C2_5  and  C3_6 
REMARK    4  A    between atoms: C3_6  and  C4_7 
REMARK    5  A    between atoms: C4_7  and  C5_8 
REMARK    6  A    between atoms: C5_8  and  N2_9 
ROOT
HETATM    1  N1  UNL     1     -17.503   2.524 -15.483  1.00  0.00    -0.389 N 
ATOM      2  H11 UNL     1     -16.553   2.266 -15.749  1.00  0.00     0.157 HD
ATOM      3  H12 UNL     1     -17.609   3.230 -14.755  1.00  0.00     0.157 HD
HETATM    4  C1  UNL     1     -18.567   2.060 -16.028  1.00  0.00     0.072 C 
ENDROOT
BRANCH   4   5
HETATM    5  C2  UNL     1     -19.927   2.429 -15.647  1.00  0.00     0.076 C 
BRANCH   5   6
HETATM    6  C3  UNL     1     -20.968   1.983 -16.587  1.00  0.00     0.009 C 
BRANCH   6   7
HETATM    7  C4  UNL     1     -21.944   0.967 -16.166  1.00  0.00     0.027 C 
BRANCH   7   8
HETATM    8  C5  UNL     1     -21.761   0.229 -14.902  1.00  0.00     0.229 C 
BRANCH   8   9
HETATM    9  N2  UNL     1     -23.046  -0.492 -14.668  1.00  0.00    -0.079 N 
ATOM     10  H23 UNL     1     -23.177  -0.792 -13.702  1.00  0.00     0.274 HD
ATOM     11  H22 UNL     1     -23.868   0.110 -14.720  1.00  0.00     0.274 HD
ATOM     12  H21 UNL     1     -23.057  -1.259 -15.340  1.00  0.00     0.274 HD
ENDBRANCH   8   9
ENDBRANCH   7   8
ENDBRANCH   6   7
ENDBRANCH   5   6
ENDBRANCH   4   5
BRANCH   4  13
HETATM   13  N3  UNL     1     -18.418   1.062 -17.056  1.00  0.00    -0.368 N 
HETATM   14  C6  UNL     1     -18.225  -0.293 -16.610  1.00  0.00     0.143 C 
HETATM   15  C7  UNL     1     -17.743  -1.127 -17.772  1.00  0.00     0.142 C 
HETATM   16  N4  UNL     1     -16.860  -0.447 -18.655  1.00  0.00    -0.386 N 
HETATM   17  C8  UNL     1     -16.133  -1.324 -19.460  1.00  0.00     0.058 C 
HETATM   18  C12 UNL     1     -17.307   0.775 -19.193  1.00  0.00     0.101 C 
HETATM   19  C9  UNL     1     -16.115  -1.125 -20.919  1.00  0.00     0.044 C 
HETATM   20  C10 UNL     1     -16.458   0.271 -21.376  1.00  0.00     0.007 C 
HETATM   21  C11 UNL     1     -17.735   0.658 -20.647  1.00  0.00     0.027 C 
HETATM   22  C13 UNL     1     -18.460   1.401 -18.447  1.00  0.00     0.149 C 
ENDBRANCH   4  13
TORSDOF 6
ENDMDL
MODEL 2
REMARK VINA RESULT: -6.235881644      1.604      5.823
REMARK  6 active torsions:
REMARK  status: ('A' for Active; 'I' for Inactive)
REMARK    1  A    between atoms: C1_4  and  C2_5 
REMARK    2  A    between atoms: C1_4  and  N3_13 
REMARK    3  A    between atoms: C2_5  and  C3_6 
REMARK    4  A    between atoms: C3_6  and  C4_7 
REMARK    5  A    between atoms: C4_7  and  C5_8 
REMARK    6  A    between atoms: C5_8  and  N2_9 
ROOT
HETATM    1  N1  UNL     1     -17.259   3.212 -18.524  1.00  0.00    -0.389 N 
ATOM      2  H11 UNL     1     -17.185   3.964 -17.839  1.00  0.00     0.157 HD
ATOM      3  H12 UNL     1     -16.768   3.337 -19.410  1.00  0.00     0.157 HD
HETATM    4  C1  UNL     1     -17.885   2.109 -18.335  1.00  0.00     0.072 C 
ENDROOT
BRANCH   4   5
HETATM    5  C2  UNL     1     -17.992   1.034 -19.316  1.00  0.00     0.076 C 
BRANCH   5   6
HETATM    6  C3  UNL     1     -17.305   1.299 -20.591  1.00  0.00     0.009 C 
BRANCH   6   7
HETATM    7  C4  UNL     1     -16.569   0.217 -21.262  1.00  0.00     0.027 C 
BRANCH   7   8
HETATM    8  C5  UNL     1     -16.870  -1.195 -20.959  1.00  0.00     0.229 C 
BRANCH   8   9
HETATM    9  N2  UNL     1     -15.748  -1.669 -20.097  1.00  0.00    -0.079 N 
ATOM     10  H23 UNL     1     -14.829  -1.373 -20.422  1.00  0.00     0.274 HD
ATOM     11  H22 UNL     1     -15.709  -1.209 -19.188  1.00  0.00     0.274 HD
ATOM     12  H21 UNL     1     -15.855  -2.682 -20.039  1.00  0.00     0.274 HD
ENDBRANCH   8   9
ENDBRANCH   7   8
ENDBRANCH   6   7
ENDBRANCH   5   6
ENDBRANCH   4   5
BRANCH   4  13
HETATM   13  N3  UNL     1     -18.578   1.933 -17.085  1.00  0.00    -0.368 N 
HETATM   14  C6  UNL     1     -17.760   1.662 -15.932  1.00  0.00     0.143 C 
HETATM   15  C7  UNL     1     -18.641   1.164 -14.812  1.00  0.00     0.142 C 
HETATM   16  N4  UNL     1     -19.716   0.336 -15.236  1.00  0.00    -0.386 N 
HETATM   17  C8  UNL     1     -20.252  -0.417 -14.192  1.00  0.00     0.058 C 
HETATM   18  C12 UNL     1     -20.574   0.855 -16.225  1.00  0.00     0.101 C 
HETATM   19  C9  UNL     1     -21.705  -0.393 -13.950  1.00  0.00     0.044 C 
HETATM   20  C10 UNL     1     -22.540   0.029 -15.133  1.00  0.00     0.007 C 
HETATM   21  C11 UNL     1     -21.912   1.308 -15.666  1.00  0.00     0.027 C 
HETATM   22  C13 UNL     1     -20.005   2.022 -16.995  1.00  0.00     0.149 C 
ENDBRANCH   4  13
TORSDOF 6
ENDMDL
MODEL 3
REMARK VINA RESULT: -6.143787702      1.406      5.978
REMARK  6 active torsions:
REMARK  status: ('A' for Active; 'I' for Inactive)
REMARK    1  A    between atoms: C1_4  and  C2_5 
REMARK    2  A    between atoms: C1_4  and  N3_13 
REMARK    3  A    between atoms: C2_5  and  C3_6 
REMARK    4  A    between atoms: C3_6  and  C4_7 
REMARK    5  A    between atoms: C4_7  and  C5_8 
REMARK    6  A    between atoms: C5_8  and  N2_9 
ROOT
HETATM    1  N1  UNL     1     -17.332   3.224 -18.392  1.00  0.00    -0.389 N 
ATOM      2  H11 UNL     1     -17.200   3.821 -17.576  1.00  0.00     0.157 HD
ATOM      3  H12 UNL     1     -16.948   3.553 -19.278  1.00  0.00     0.157 HD
HETATM    4  C1  UNL     1     -17.901   2.075 -18.374  1.00  0.00     0.072 C 
ENDROOT
BRANCH   4   5
HETATM    5  C2  UNL     1     -18.089   1.221 -19.543  1.00  0.00     0.076 C 
BRANCH   5   6
HETATM    6  C3  UNL     1     -17.108   1.435 -20.620  1.00  0.00     0.009 C 
BRANCH   6   7
HETATM    7  C4  UNL     1     -16.582   0.283 -21.367  1.00  0.00     0.027 C 
BRANCH   7   8
HETATM    8  C5  UNL     1     -16.945  -1.093 -20.978  1.00  0.00     0.229 C 
BRANCH   8   9
HETATM    9  N2  UNL     1     -15.831  -1.570 -20.106  1.00  0.00    -0.079 N 
ATOM     10  H23 UNL     1     -15.161  -2.167 -20.589  1.00  0.00     0.274 HD
ATOM     11  H22 UNL     1     -15.173  -0.836 -19.845  1.00  0.00     0.274 HD
ATOM     12  H21 UNL     1     -16.280  -2.021 -19.309  1.00  0.00     0.274 HD
ENDBRANCH   8   9
ENDBRANCH   7   8
ENDBRANCH   6   7
ENDBRANCH   5   6
ENDBRANCH   4   5
BRANCH   4  13
HETATM   13  N3  UNL     1     -18.443   1.610 -17.123  1.00  0.00    -0.368 N 
HETATM   14  C6  UNL     1     -18.309   0.202 -16.852  1.00  0.00     0.143 C 
HETATM   15  C7  UNL     1     -19.219  -0.164 -15.705  1.00  0.00     0.142 C 
HETATM   16  N4  UNL     1     -20.458   0.534 -15.693  1.00  0.00    -0.386 N 
HETATM   17  C8  UNL     1     -21.413  -0.091 -14.893  1.00  0.00     0.058 C 
HETATM   18  C12 UNL     1     -20.402   1.940 -15.732  1.00  0.00     0.101 C 
HETATM   19  C9  UNL     1     -22.126   0.690 -13.868  1.00  0.00     0.044 C 
HETATM   20  C10 UNL     1     -22.136   2.181 -14.096  1.00  0.00     0.007 C 
HETATM   21  C11 UNL     1     -20.697   2.579 -14.385  1.00  0.00     0.027 C 
HETATM   22  C13 UNL     1     -19.081   2.500 -16.201  1.00  0.00     0.149 C 
ENDBRANCH   4  13
TORSDOF 6
ENDMDL
MODEL 4
REMARK VINA RESULT: -6.135138702      1.268      2.072
REMARK  6 active torsions:
REMARK  status: ('A' for Active; 'I' for Inactive)
REMARK    1  A    between atoms: C1_4  and  C2_5 
REMARK    2  A    between atoms: C1_4  and  N3_13 
REMARK    3  A    between atoms: C2_5  and  C3_6 
REMARK    4  A    between atoms: C3_6  and  C4_7 
REMARK    5  A    between atoms: C4_7  and  C5_8 
REMARK    6  A    between atoms: C5_8  and  N2_9 
ROOT
HETATM    1  N1  UNL     1     -19.387  -0.089 -15.091  1.00  0.00    -0.389 N 
ATOM      2  H11 UNL     1     -18.483  -0.505 -14.868  1.00  0.00     0.157 HD
ATOM      3  H12 UNL     1     -20.144  -0.231 -14.421  1.00  0.00     0.157 HD
HETATM    4  C1  UNL     1     -19.626   0.632 -16.123  1.00  0.00     0.072 C 
ENDROOT
BRANCH   4   5
HETATM    5  C2  UNL     1     -20.920   1.227 -16.441  1.00  0.00     0.076 C 
BRANCH   5   6
HETATM    6  C3  UNL     1     -21.420   2.178 -15.434  1.00  0.00     0.009 C 
BRANCH   6   7
HETATM    7  C4  UNL     1     -22.628   1.855 -14.661  1.00  0.00     0.027 C 
BRANCH   7   8
HETATM    8  C5  UNL     1     -22.593   0.819 -13.611  1.00  0.00     0.229 C 
BRANCH   8   9
HETATM    9  N2  UNL     1     -23.177  -0.405 -14.233  1.00  0.00    -0.079 N 
ATOM     10  H23 UNL     1     -22.589  -1.232 -14.140  1.00  0.00     0.274 HD
ATOM     11  H22 UNL     1     -23.985  -0.773 -13.732  1.00  0.00     0.274 HD
ATOM     12  H21 UNL     1     -23.377  -0.152 -15.201  1.00  0.00     0.274 HD
ENDBRANCH   8   9
ENDBRANCH   7   8
ENDBRANCH   6   7
ENDBRANCH   5   6
ENDBRANCH   4   5
BRANCH   4  13
HETATM   13  N3  UNL     1     -18.558   0.831 -17.069  1.00  0.00    -0.368 N 
HETATM   14  C6  UNL     1     -18.399   2.168 -17.581  1.00  0.00     0.143 C 
HETATM   15  C7  UNL     1     -17.496   2.123 -18.791  1.00  0.00     0.142 C 
HETATM   16  N4  UNL     1     -17.668   0.973 -19.608  1.00  0.00    -0.386 N 
HETATM   17  C8  UNL     1     -17.137   1.145 -20.886  1.00  0.00     0.058 C 
HETATM   18  C12 UNL     1     -17.563  -0.282 -18.980  1.00  0.00     0.101 C 
HETATM   19  C9  UNL     1     -16.207   0.140 -21.428  1.00  0.00     0.044 C 
HETATM   20  C10 UNL     1     -16.292  -1.220 -20.781  1.00  0.00     0.007 C 
HETATM   21  C11 UNL     1     -16.248  -0.984 -19.280  1.00  0.00     0.027 C 
HETATM   22  C13 UNL     1     -17.703  -0.242 -17.477  1.00  0.00     0.149 C 
ENDBRANCH   4  13
TORSDOF 6
ENDMDL
MODEL 5
REMARK VINA RESULT: -6.130070192      1.758      5.564
REMARK  6 active torsions:
REMARK  status: ('A' for Active; 'I' for Inactive)
REMARK    1  A    between atoms: C1_4  and  C2_5 
REMARK    2  A    between atoms: C1_4  and  N3_13 
REMARK    3  A    between atoms: C2_5  and  C3_6 
REMARK    4  A    between atoms: C3_6  and  C4_7 
REMARK    5  A    between atoms: C4_7  and  C5_8 
REMARK    6  A    between atoms: C5_8  and  N2_9 
ROOT
HETATM    1  N1  UNL     1     -19.752   2.058 -20.210  1.00  0.00    -0.389 N 
ATOM      2  H11 UNL     1     -20.613   2.368 -19.758  1.00  0.00     0.157 HD
ATOM      3  H12 UNL     1     -19.722   2.093 -21.229  1.00  0.00     0.157 HD
HETATM    4  C1  UNL     1     -18.698   1.674 -19.590  1.00  0.00     0.072 C 
ENDROOT
BRANCH   4   5
HETATM    5  C2  UNL     1     -17.467   1.231 -20.238  1.00  0.00     0.076 C 
BRANCH   5   6
HETATM    6  C3  UNL     1     -17.576  -0.059 -20.940  1.00  0.00     0.009 C 
BRANCH   6   7
HETATM    7  C4  UNL     1     -16.533  -1.079 -20.757  1.00  0.00     0.027 C 
BRANCH   7   8
HETATM    8  C5  UNL     1     -15.903  -1.280 -19.438  1.00  0.00     0.229 C 
BRANCH   8   9
HETATM    9  N2  UNL     1     -16.935  -1.957 -18.599  1.00  0.00    -0.079 N 
ATOM     10  H23 UNL     1     -17.863  -1.544 -18.681  1.00  0.00     0.274 HD
ATOM     11  H22 UNL     1     -17.186  -2.887 -18.931  1.00  0.00     0.274 HD
ATOM     12  H21 UNL     1     -16.565  -1.947 -17.648  1.00  0.00     0.274 HD
ENDBRANCH   8   9
ENDBRANCH   7   8
ENDBRANCH   6   7
ENDBRANCH   5   6
ENDBRANCH   4   5
BRANCH   4  13
HETATM   13  N3  UNL     1     -18.741   1.624 -18.152  1.00  0.00    -0.368 N 
HETATM   14  C6  UNL     1     -17.481   1.438 -17.480  1.00  0.00     0.143 C 
HETATM   15  C7  UNL     1     -17.744   1.060 -16.042  1.00  0.00     0.142 C 
HETATM   16  N4  UNL     1     -18.877   0.222 -15.854  1.00  0.00    -0.386 N 
HETATM   17  C8  UNL     1     -18.863  -0.423 -14.618  1.00  0.00     0.058 C 
HETATM   18  C12 UNL     1     -20.102   0.672 -16.384  1.00  0.00     0.101 C 
HETATM   19  C9  UNL     1     -20.046  -0.346 -13.744  1.00  0.00     0.044 C 
HETATM   20  C10 UNL     1     -21.336  -0.010 -14.448  1.00  0.00     0.007 C 
HETATM   21  C11 UNL     1     -21.047   1.202 -15.319  1.00  0.00     0.027 C 
HETATM   22  C13 UNL     1     -19.971   1.753 -17.429  1.00  0.00     0.149 C 
ENDBRANCH   4  13
TORSDOF 6
ENDMDL
