MODEL 1
REMARK VINA RESULT: -5.825174728      0.000      0.000
REMARK  4 active torsions:
REMARK  status: ('A' for Active; 'I' for Inactive)
REMARK    1  A    between atoms: O1_2  and  C2_3 
REMARK       I    between atoms: N1_6  and  C5_7 
REMARK    2  A    between atoms: C7_13  and  O2_14 
REMARK    3  A    between atoms: O2_14  and  C8_15 
REMARK    4  A    between atoms: C8_15  and  C9_16 
ROOT
HETATM    1  C2  UNL     1     -18.285   1.688 -17.763  1.00  0.00     0.153 C 
HETATM    2  C3  UNL     1     -18.314   1.766 -19.242  1.00  0.00     0.054 C 
HETATM    3  C4  UNL     1     -17.757   0.612 -19.996  1.00  0.00     0.128 C 
HETATM    4  N1  UNL     1     -17.090  -0.379 -19.206  1.00  0.00    -0.353 N 
HETATM    5  C5  UNL     1     -16.154  -1.233 -19.842  1.00  0.00     0.184 C 
HETATM    6  N2  UNL     1     -16.470  -1.728 -20.976  1.00  0.00    -0.374 N 
ATOM      7  H21 UNL     1     -15.797  -2.343 -21.433  1.00  0.00     0.158 HD
ATOM      8  H22 UNL     1     -17.358  -1.536 -21.439  1.00  0.00     0.158 HD
HETATM    9  N3  UNL     1     -14.916  -1.500 -19.197  1.00  0.00    -0.064 NA
HETATM   10  C6  UNL     1     -17.306  -0.570 -17.789  1.00  0.00     0.160 C 
HETATM   11  C7  UNL     1     -18.495   0.212 -17.309  1.00  0.00     0.168 C 
ENDROOT
BRANCH  11  12
HETATM   12  O2  UNL     1     -18.695   0.170 -15.993  1.00  0.00    -0.381 OA
BRANCH  12  13
HETATM   13  C8  UNL     1     -19.527  -0.653 -15.372  1.00  0.00     0.172 C 
BRANCH  13  14
HETATM   14  C9  UNL     1     -20.615  -0.223 -14.504  1.00  0.00     0.009 A 
HETATM   15  C10 UNL     1     -21.972   0.121 -15.005  1.00  0.00     0.007 A 
HETATM   16  C11 UNL     1     -21.107   1.178 -14.304  1.00  0.00     0.007 A 
ENDBRANCH  13  14
ENDBRANCH  12  13
ENDBRANCH  11  12
BRANCH   1  17
HETATM   17  O1  UNL     1     -19.364   2.385 -17.232  1.00  0.00    -0.388 OA
HETATM   18  C1  UNL     1     -20.559   2.021 -17.899  1.00  0.00     0.202 C 
ENDBRANCH   1  17
TORSDOF 4
ENDMDL
MODEL 2
REMARK VINA RESULT: -5.746115461      0.881      1.063
REMARK  4 active torsions:
REMARK  status: ('A' for Active; 'I' for Inactive)
REMARK    1  A    between atoms: O1_2  and  C2_3 
REMARK       I    between atoms: N1_6  and  C5_7 
REMARK    2  A    between atoms: C7_13  and  O2_14 
REMARK    3  A    between atoms: O2_14  and  C8_15 
REMARK    4  A    between atoms: C8_15  and  C9_16 
ROOT
HETATM    1  C2  UNL     1     -18.312   1.766 -17.310  1.00  0.00     0.153 C 
HETATM    2  C3  UNL     1     -18.399   2.112 -18.748  1.00  0.00     0.054 C 
HETATM    3  C4  UNL     1     -18.005   1.063 -19.726  1.00  0.00     0.128 C 
HETATM    4  N1  UNL     1     -17.416  -0.115 -19.165  1.00  0.00    -0.353 N 
HETATM    5  C5  UNL     1     -16.608  -0.929 -19.999  1.00  0.00     0.184 C 
HETATM    6  N2  UNL     1     -17.026  -1.177 -21.179  1.00  0.00    -0.374 N 
ATOM      7  H21 UNL     1     -16.446  -1.763 -21.778  1.00  0.00     0.158 HD
ATOM      8  H22 UNL     1     -17.908  -0.818 -21.544  1.00  0.00     0.158 HD
HETATM    9  N3  UNL     1     -15.379  -1.430 -19.490  1.00  0.00    -0.064 NA
HETATM   10  C6  UNL     1     -17.588  -0.536 -17.792  1.00  0.00     0.160 C 
HETATM   11  C7  UNL     1     -18.661   0.261 -17.108  1.00  0.00     0.168 C 
ENDROOT
BRANCH  11  12
HETATM   12  O2  UNL     1     -18.806   0.003 -15.810  1.00  0.00    -0.381 OA
BRANCH  12  13
HETATM   13  C8  UNL     1     -19.874  -0.551 -15.255  1.00  0.00     0.172 C 
BRANCH  13  14
HETATM   14  C9  UNL     1     -21.055   0.188 -14.828  1.00  0.00     0.009 A 
HETATM   15  C10 UNL     1     -22.386  -0.446 -14.629  1.00  0.00     0.007 A 
HETATM   16  C11 UNL     1     -22.191   0.646 -15.691  1.00  0.00     0.007 A 
ENDBRANCH  13  14
ENDBRANCH  12  13
ENDBRANCH  11  12
BRANCH   1  17
HETATM   17  O1  UNL     1     -19.284   2.460 -16.598  1.00  0.00    -0.388 OA
HETATM   18  C1  UNL     1     -18.692   3.169 -15.525  1.00  0.00     0.202 C 
ENDBRANCH   1  17
TORSDOF 4
ENDMDL
MODEL 3
REMARK VINA RESULT: -5.569679833      3.059      5.325
REMARK  4 active torsions:
REMARK  status: ('A' for Active; 'I' for Inactive)
REMARK    1  A    between atoms: O1_2  and  C2_3 
REMARK       I    between atoms: N1_6  and  C5_7 
REMARK    2  A    between atoms: C7_13  and  O2_14 
REMARK    3  A    between atoms: O2_14  and  C8_15 
REMARK    4  A    between atoms: C8_15  and  C9_16 
ROOT
HETATM    1  C2  UNL     1     -18.799   1.544 -17.874  1.00  0.00     0.153 C 
HETATM    2  C3  UNL     1     -18.534   2.643 -16.916  1.00  0.00     0.054 C 
HETATM    3  C4  UNL     1     -18.171   2.261 -15.526  1.00  0.00     0.128 C 
HETATM    4  N1  UNL     1     -18.287   0.868 -15.217  1.00  0.00    -0.353 N 
HETATM    5  C5  UNL     1     -18.419   0.486 -13.858  1.00  0.00     0.184 C 
HETATM    6  N2  UNL     1     -17.665   1.055 -13.000  1.00  0.00    -0.374 N 
ATOM      7  H21 UNL     1     -17.759   0.780 -12.022  1.00  0.00     0.158 HD
ATOM      8  H22 UNL     1     -16.978   1.766 -13.248  1.00  0.00     0.158 HD
HETATM    9  N3  UNL     1     -19.377  -0.507 -13.512  1.00  0.00    -0.064 NA
HETATM   10  C6  UNL     1     -18.279  -0.188 -16.205  1.00  0.00     0.160 C 
HETATM   11  C7  UNL     1     -17.873   0.331 -17.554  1.00  0.00     0.168 C 
ENDROOT
BRANCH  11  12
HETATM   12  O2  UNL     1     -17.945  -0.561 -18.540  1.00  0.00    -0.381 OA
BRANCH  12  13
HETATM   13  C8  UNL     1     -16.910  -1.037 -19.215  1.00  0.00     0.172 C 
BRANCH  13  14
HETATM   14  C9  UNL     1     -16.807  -1.042 -20.669  1.00  0.00     0.009 A 
HETATM   15  C10 UNL     1     -16.539   0.181 -21.472  1.00  0.00     0.007 A 
HETATM   16  C11 UNL     1     -17.852  -0.597 -21.646  1.00  0.00     0.007 A 
ENDBRANCH  13  14
ENDBRANCH  12  13
ENDBRANCH  11  12
BRANCH   1  17
HETATM   17  O1  UNL     1     -18.442   1.941 -19.158  1.00  0.00    -0.388 OA
HETATM   18  C1  UNL     1     -19.594   2.061 -19.971  1.00  0.00     0.202 C 
ENDBRANCH   1  17
TORSDOF 4
ENDMDL
MODEL 4
REMARK VINA RESULT: -5.447319915      3.003      5.850
REMARK  4 active torsions:
REMARK  status: ('A' for Active; 'I' for Inactive)
REMARK    1  A    between atoms: O1_2  and  C2_3 
REMARK       I    between atoms: N1_6  and  C5_7 
REMARK    2  A    between atoms: C7_13  and  O2_14 
REMARK    3  A    between atoms: O2_14  and  C8_15 
REMARK    4  A    between atoms: C8_15  and  C9_16 
ROOT
HETATM    1  C2  UNL     1     -17.639   0.165 -17.097  1.00  0.00     0.153 C 
HETATM    2  C3  UNL     1     -18.595  -0.614 -16.274  1.00  0.00     0.054 C 
HETATM    3  C4  UNL     1     -19.873   0.050 -15.904  1.00  0.00     0.128 C 
HETATM    4  N1  UNL     1     -19.968   1.439 -16.238  1.00  0.00    -0.353 N 
HETATM    5  C5  UNL     1     -20.904   2.240 -15.536  1.00  0.00     0.184 C 
HETATM    6  N2  UNL     1     -22.072   1.764 -15.340  1.00  0.00    -0.374 N 
ATOM      7  H21 UNL     1     -22.745   2.340 -14.836  1.00  0.00     0.158 HD
ATOM      8  H22 UNL     1     -22.358   0.840 -15.664  1.00  0.00     0.158 HD
HETATM    9  N3  UNL     1     -20.505   3.528 -15.083  1.00  0.00    -0.064 NA
HETATM   10  C6  UNL     1     -19.167   2.089 -17.251  1.00  0.00     0.160 C 
HETATM   11  C7  UNL     1     -18.421   1.086 -18.082  1.00  0.00     0.168 C 
ENDROOT
BRANCH  11  12
HETATM   12  O2  UNL     1     -17.578   1.612 -18.969  1.00  0.00    -0.381 OA
BRANCH  12  13
HETATM   13  C8  UNL     1     -17.839   1.796 -20.255  1.00  0.00     0.172 C 
BRANCH  13  14
HETATM   14  C9  UNL     1     -17.385   0.912 -21.321  1.00  0.00     0.009 A 
HETATM   15  C10 UNL     1     -17.875  -0.482 -21.491  1.00  0.00     0.007 A 
HETATM   16  C11 UNL     1     -16.392  -0.204 -21.203  1.00  0.00     0.007 A 
ENDBRANCH  13  14
ENDBRANCH  12  13
ENDBRANCH  11  12
BRANCH   1  17
HETATM   17  O1  UNL     1     -16.906  -0.693 -17.908  1.00  0.00    -0.388 OA
HETATM   18  C1  UNL     1     -17.639  -1.879 -18.154  1.00  0.00     0.202 C 
ENDBRANCH   1  17
TORSDOF 4
ENDMDL
MODEL 5
REMARK VINA RESULT: -5.293982779      3.276      5.944
REMARK  4 active torsions:
REMARK  status: ('A' for Active; 'I' for Inactive)
REMARK    1  A    between atoms: O1_2  and  C2_3 
REMARK       I    between atoms: N1_6  and  C5_7 
REMARK    2  A    between atoms: C7_13  and  O2_14 
REMARK    3  A    between atoms: O2_14  and  C8_15 
REMARK    4  A    between atoms: C8_15  and  C9_16 
ROOT
HETATM    1  C2  UNL     1     -17.297   0.711 -16.786  1.00  0.00     0.153 C 
HETATM    2  C3  UNL     1     -18.016   0.157 -15.615  1.00  0.00     0.054 C 
HETATM    3  C4  UNL     1     -19.062   1.010 -14.992  1.00  0.00     0.128 C 
HETATM    4  N1  UNL     1     -19.142   2.351 -15.487  1.00  0.00    -0.353 N 
HETATM    5  C5  UNL     1     -19.751   3.338 -14.670  1.00  0.00     0.184 C 
HETATM    6  N2  UNL     1     -20.838   3.034 -14.075  1.00  0.00    -0.374 N 
ATOM      7  H21 UNL     1     -21.276   3.744 -13.488  1.00  0.00     0.158 HD
ATOM      8  H22 UNL     1     -21.283   2.121 -14.160  1.00  0.00     0.158 HD
HETATM    9  N3  UNL     1     -19.130   4.612 -14.551  1.00  0.00    -0.064 NA
HETATM   10  C6  UNL     1     -18.638   2.774 -16.774  1.00  0.00     0.160 C 
HETATM   11  C7  UNL     1     -18.265   1.597 -17.628  1.00  0.00     0.168 C 
ENDROOT
BRANCH  11  12
HETATM   12  O2  UNL     1     -17.694   1.908 -18.790  1.00  0.00    -0.381 OA
BRANCH  12  13
HETATM   13  C8  UNL     1     -18.231   1.708 -19.983  1.00  0.00     0.172 C 
BRANCH  13  14
HETATM   14  C9  UNL     1     -17.569   1.011 -21.078  1.00  0.00     0.009 A 
HETATM   15  C10 UNL     1     -17.891  -0.387 -21.470  1.00  0.00     0.007 A 
HETATM   16  C11 UNL     1     -16.488  -0.021 -20.964  1.00  0.00     0.007 A 
ENDBRANCH  13  14
ENDBRANCH  12  13
ENDBRANCH  11  12
BRANCH   1  17
HETATM   17  O1  UNL     1     -16.919  -0.320 -17.639  1.00  0.00    -0.388 OA
HETATM   18  C1  UNL     1     -17.947  -1.289 -17.722  1.00  0.00     0.202 C 
ENDBRANCH   1  17
TORSDOF 4
ENDMDL
