MODEL 1
REMARK VINA RESULT: -5.479910480      0.000      0.000
REMARK  3 active torsions:
REMARK  status: ('A' for Active; 'I' for Inactive)
REMARK    1  A    between atoms: S1_3  and  C2_4 
REMARK    2  A    between atoms: C2_4  and  C3_5 
REMARK    3  A    between atoms: C3_5  and  N2_6 
ROOT
HETATM    1  N1  UNL     1      53.182  23.863  36.954  1.00  0.00    -0.184 NA
HETATM    2  C1  UNL     1      52.787  24.213  37.977  1.00  0.00     0.133 C 
HETATM    3  S1  UNL     1      52.134  24.768  39.557  1.00  0.00    -0.049 SA
ENDROOT
BRANCH   3   4
HETATM    4  C2  UNL     1      51.787  23.268  40.540  1.00  0.00     0.120 C 
BRANCH   4   5
HETATM    5  C3  UNL     1      50.573  23.510  41.435  1.00  0.00     0.283 C 
BRANCH   5   6
HETATM    6  N2  UNL     1      49.587  24.349  40.826  1.00  0.00     0.089 N 
HETATM    7  C4  UNL     1      49.164  25.322  41.829  1.00  0.00     0.272 C 
HETATM    8  C5  UNL     1      47.700  25.665  41.690  1.00  0.00     0.030 C 
HETATM    9  C6  UNL     1      47.436  25.847  40.201  1.00  0.00     0.003 C 
HETATM   10  C7  UNL     1      47.500  24.452  39.585  1.00  0.00     0.030 C 
HETATM   11  C8  UNL     1      48.454  23.571  40.375  1.00  0.00     0.272 C 
ENDBRANCH   5   6
ENDBRANCH   4   5
ENDBRANCH   3   4
TORSDOF 3
ENDMDL
MODEL 2
REMARK VINA RESULT: -5.444110091      2.519      3.344
REMARK  3 active torsions:
REMARK  status: ('A' for Active; 'I' for Inactive)
REMARK    1  A    between atoms: S1_3  and  C2_4 
REMARK    2  A    between atoms: C2_4  and  C3_5 
REMARK    3  A    between atoms: C3_5  and  N2_6 
ROOT
HETATM    1  N1  UNL     1      50.890  22.385  43.223  1.00  0.00    -0.184 NA
HETATM    2  C1  UNL     1      51.174  22.787  42.182  1.00  0.00     0.133 C 
HETATM    3  S1  UNL     1      51.599  23.380  40.541  1.00  0.00    -0.049 SA
ENDROOT
BRANCH   3   4
HETATM    4  C2  UNL     1      50.415  24.712  40.138  1.00  0.00     0.120 C 
BRANCH   4   5
HETATM    5  C3  UNL     1      48.987  24.181  40.251  1.00  0.00     0.283 C 
BRANCH   5   6
HETATM    6  N2  UNL     1      48.175  24.945  41.148  1.00  0.00     0.089 N 
HETATM    7  C4  UNL     1      47.231  25.709  40.337  1.00  0.00     0.272 C 
HETATM    8  C5  UNL     1      46.938  27.058  40.947  1.00  0.00     0.030 C 
HETATM    9  C6  UNL     1      46.747  26.829  42.440  1.00  0.00     0.003 C 
HETATM   10  C7  UNL     1      48.131  26.515  43.002  1.00  0.00     0.030 C 
HETATM   11  C8  UNL     1      48.987  25.839  41.945  1.00  0.00     0.272 C 
ENDBRANCH   5   6
ENDBRANCH   4   5
ENDBRANCH   3   4
TORSDOF 3
ENDMDL
MODEL 3
REMARK VINA RESULT: -5.423629206      2.328      5.105
REMARK  3 active torsions:
REMARK  status: ('A' for Active; 'I' for Inactive)
REMARK    1  A    between atoms: S1_3  and  C2_4 
REMARK    2  A    between atoms: C2_4  and  C3_5 
REMARK    3  A    between atoms: C3_5  and  N2_6 
ROOT
HETATM    1  N1  UNL     1      47.022  21.175  41.013  1.00  0.00    -0.184 NA
HETATM    2  C1  UNL     1      47.217  22.173  40.473  1.00  0.00     0.133 C 
HETATM    3  S1  UNL     1      47.486  23.746  39.648  1.00  0.00    -0.049 SA
ENDROOT
BRANCH   3   4
HETATM    4  C2  UNL     1      48.822  24.597  40.558  1.00  0.00     0.120 C 
BRANCH   4   5
HETATM    5  C3  UNL     1      49.775  25.264  39.568  1.00  0.00     0.283 C 
BRANCH   5   6
HETATM    6  N2  UNL     1      51.133  24.845  39.729  1.00  0.00     0.089 N 
HETATM    7  C4  UNL     1      51.802  25.031  38.444  1.00  0.00     0.272 C 
HETATM    8  C5  UNL     1      52.837  23.961  38.196  1.00  0.00     0.030 C 
HETATM    9  C6  UNL     1      53.598  23.780  39.502  1.00  0.00     0.003 C 
HETATM   10  C7  UNL     1      52.636  23.080  40.459  1.00  0.00     0.030 C 
HETATM   11  C8  UNL     1      51.201  23.457  40.132  1.00  0.00     0.272 C 
ENDBRANCH   5   6
ENDBRANCH   4   5
ENDBRANCH   3   4
TORSDOF 3
ENDMDL
MODEL 4
REMARK VINA RESULT: -5.416566600      1.211      2.076
REMARK  3 active torsions:
REMARK  status: ('A' for Active; 'I' for Inactive)
REMARK    1  A    between atoms: S1_3  and  C2_4 
REMARK    2  A    between atoms: C2_4  and  C3_5 
REMARK    3  A    between atoms: C3_5  and  N2_6 
ROOT
HETATM    1  N1  UNL     1      53.191  23.916  37.168  1.00  0.00    -0.184 NA
HETATM    2  C1  UNL     1      52.747  23.916  38.230  1.00  0.00     0.133 C 
HETATM    3  S1  UNL     1      52.085  23.944  39.900  1.00  0.00    -0.049 SA
ENDROOT
BRANCH   3   4
HETATM    4  C2  UNL     1      50.572  24.967  39.850  1.00  0.00     0.120 C 
BRANCH   4   5
HETATM    5  C3  UNL     1      49.378  24.141  40.326  1.00  0.00     0.283 C 
BRANCH   5   6
HETATM    6  N2  UNL     1      48.432  24.906  41.079  1.00  0.00     0.089 N 
HETATM    7  C4  UNL     1      47.676  25.719  40.130  1.00  0.00     0.272 C 
HETATM    8  C5  UNL     1      47.309  27.061  40.715  1.00  0.00     0.030 C 
HETATM    9  C6  UNL     1      46.835  26.800  42.138  1.00  0.00     0.003 C 
HETATM   10  C7  UNL     1      48.081  26.431  42.939  1.00  0.00     0.030 C 
HETATM   11  C8  UNL     1      49.103  25.755  42.040  1.00  0.00     0.272 C 
ENDBRANCH   5   6
ENDBRANCH   4   5
ENDBRANCH   3   4
TORSDOF 3
ENDMDL
MODEL 5
REMARK VINA RESULT: -5.359193387      2.195      4.902
REMARK  3 active torsions:
REMARK  status: ('A' for Active; 'I' for Inactive)
REMARK    1  A    between atoms: S1_3  and  C2_4 
REMARK    2  A    between atoms: C2_4  and  C3_5 
REMARK    3  A    between atoms: C3_5  and  N2_6 
ROOT
HETATM    1  N1  UNL     1      47.113  21.246  40.992  1.00  0.00    -0.184 NA
HETATM    2  C1  UNL     1      47.382  22.276  40.554  1.00  0.00     0.133 C 
HETATM    3  S1  UNL     1      47.766  23.899  39.886  1.00  0.00    -0.049 SA
ENDROOT
BRANCH   3   4
HETATM    4  C2  UNL     1      49.008  24.647  40.997  1.00  0.00     0.120 C 
BRANCH   4   5
HETATM    5  C3  UNL     1      50.219  23.723  41.110  1.00  0.00     0.283 C 
BRANCH   5   6
HETATM    6  N2  UNL     1      51.029  23.715  39.931  1.00  0.00     0.089 N 
HETATM    7  C4  UNL     1      52.300  23.085  40.279  1.00  0.00     0.272 C 
HETATM    8  C5  UNL     1      53.453  23.705  39.529  1.00  0.00     0.030 C 
HETATM    9  C6  UNL     1      52.989  23.886  38.090  1.00  0.00     0.003 C 
HETATM   10  C7  UNL     1      51.971  25.023  38.111  1.00  0.00     0.030 C 
HETATM   11  C8  UNL     1      51.254  25.062  39.451  1.00  0.00     0.272 C 
ENDBRANCH   5   6
ENDBRANCH   4   5
ENDBRANCH   3   4
TORSDOF 3
ENDMDL
