MODEL 1
REMARK VINA RESULT: -5.305621461      0.000      0.000
REMARK  4 active torsions:
REMARK  status: ('A' for Active; 'I' for Inactive)
REMARK    1  A    between atoms: C2_2  and  O1_3 
REMARK    2  A    between atoms: O1_3  and  C3_4 
REMARK    3  A    between atoms: C6_7  and  N1_8 
REMARK    4  A    between atoms: N1_8  and  C7_10 
ROOT
HETATM    1  C3  UNL     1      46.787  26.335  41.735  1.00  0.00     0.129 C 
HETATM    2  C4  UNL     1      47.451  26.610  43.069  1.00  0.00     0.034 C 
HETATM    3  C5  UNL     1      48.906  26.273  42.899  1.00  0.00     0.028 C 
HETATM    4  C6  UNL     1      48.956  25.446  41.653  1.00  0.00     0.084 C 
HETATM    5  C8  UNL     1      47.529  25.092  41.289  1.00  0.00     0.057 C 
ENDROOT
BRANCH   4   6
HETATM    6  N1  UNL     1      49.769  24.275  41.875  1.00  0.00    -0.386 N 
ATOM      7  H1  UNL     1      49.677  23.740  42.739  1.00  0.00     0.160 HD
BRANCH   6   8
HETATM    8  C7  UNL     1      50.599  23.919  40.986  1.00  0.00     0.166 C 
HETATM    9  S1  UNL     1      51.986  23.476  40.250  1.00  0.00    -0.075 SA
ENDBRANCH   6   8
ENDBRANCH   4   6
BRANCH   1  10
HETATM   10  O1  UNL     1      47.035  27.357  40.796  1.00  0.00    -0.358 OA
BRANCH  10  11
HETATM   11  C2  UNL     1      46.283  28.517  40.900  1.00  0.00     0.125 C 
HETATM   12  C1  UNL     1      44.960  28.465  41.068  1.00  0.00     0.037 C 
ENDBRANCH  10  11
ENDBRANCH   1  10
TORSDOF 4
ENDMDL
MODEL 2
REMARK VINA RESULT: -5.265292646      2.259      3.107
REMARK  4 active torsions:
REMARK  status: ('A' for Active; 'I' for Inactive)
REMARK    1  A    between atoms: C2_2  and  O1_3 
REMARK    2  A    between atoms: O1_3  and  C3_4 
REMARK    3  A    between atoms: C6_7  and  N1_8 
REMARK    4  A    between atoms: N1_8  and  C7_10 
ROOT
HETATM    1  C3  UNL     1      47.975  24.294  40.490  1.00  0.00     0.129 C 
HETATM    2  C4  UNL     1      49.026  23.202  40.509  1.00  0.00     0.034 C 
HETATM    3  C5  UNL     1      50.353  23.884  40.335  1.00  0.00     0.028 C 
HETATM    4  C6  UNL     1      50.009  25.246  39.816  1.00  0.00     0.084 C 
HETATM    5  C8  UNL     1      48.542  25.228  39.442  1.00  0.00     0.057 C 
ENDROOT
BRANCH   4   6
HETATM    6  N1  UNL     1      50.855  25.569  38.693  1.00  0.00    -0.386 N 
ATOM      7  H1  UNL     1      50.651  26.382  38.111  1.00  0.00     0.160 HD
BRANCH   6   8
HETATM    8  C7  UNL     1      51.854  24.832  38.438  1.00  0.00     0.166 C 
HETATM    9  S1  UNL     1      53.034  24.046  37.629  1.00  0.00    -0.075 SA
ENDBRANCH   6   8
ENDBRANCH   4   6
BRANCH   1  10
HETATM   10  O1  UNL     1      47.910  24.991  41.714  1.00  0.00    -0.358 OA
BRANCH  10  11
HETATM   11  C2  UNL     1      46.969  26.003  41.824  1.00  0.00     0.125 C 
HETATM   12  C1  UNL     1      46.930  26.791  42.900  1.00  0.00     0.037 C 
ENDBRANCH  10  11
ENDBRANCH   1  10
TORSDOF 4
ENDMDL
MODEL 3
REMARK VINA RESULT: -5.186634118      1.893      2.452
REMARK  4 active torsions:
REMARK  status: ('A' for Active; 'I' for Inactive)
REMARK    1  A    between atoms: C2_2  and  O1_3 
REMARK    2  A    between atoms: O1_3  and  C3_4 
REMARK    3  A    between atoms: C6_7  and  N1_8 
REMARK    4  A    between atoms: N1_8  and  C7_10 
ROOT
HETATM    1  C3  UNL     1      47.879  25.658  39.821  1.00  0.00     0.129 C 
HETATM    2  C4  UNL     1      47.441  24.255  39.453  1.00  0.00     0.034 C 
HETATM    3  C5  UNL     1      48.236  23.318  40.317  1.00  0.00     0.028 C 
HETATM    4  C6  UNL     1      49.367  24.154  40.833  1.00  0.00     0.084 C 
HETATM    5  C8  UNL     1      49.362  25.450  40.051  1.00  0.00     0.057 C 
ENDROOT
BRANCH   4   6
HETATM    6  N1  UNL     1      50.609  23.435  40.692  1.00  0.00    -0.386 N 
ATOM      7  H1  UNL     1      50.986  23.233  39.765  1.00  0.00     0.160 HD
BRANCH   6   8
HETATM    8  C7  UNL     1      51.229  23.058  41.731  1.00  0.00     0.166 C 
HETATM    9  S1  UNL     1      51.560  22.370  43.173  1.00  0.00    -0.075 SA
ENDBRANCH   6   8
ENDBRANCH   4   6
BRANCH   1  10
HETATM   10  O1  UNL     1      47.302  26.096  41.029  1.00  0.00    -0.358 OA
BRANCH  10  11
HETATM   11  C2  UNL     1      46.784  27.382  41.062  1.00  0.00     0.125 C 
HETATM   12  C1  UNL     1      45.485  27.594  41.281  1.00  0.00     0.037 C 
ENDBRANCH  10  11
ENDBRANCH   1  10
TORSDOF 4
ENDMDL
MODEL 4
REMARK VINA RESULT: -5.157271226      1.752      2.348
REMARK  4 active torsions:
REMARK  status: ('A' for Active; 'I' for Inactive)
REMARK    1  A    between atoms: C2_2  and  O1_3 
REMARK    2  A    between atoms: O1_3  and  C3_4 
REMARK    3  A    between atoms: C6_7  and  N1_8 
REMARK    4  A    between atoms: N1_8  and  C7_10 
ROOT
HETATM    1  C3  UNL     1      48.051  25.738  39.807  1.00  0.00     0.129 C 
HETATM    2  C4  UNL     1      47.455  24.384  39.478  1.00  0.00     0.034 C 
HETATM    3  C5  UNL     1      48.205  23.376  40.303  1.00  0.00     0.028 C 
HETATM    4  C6  UNL     1      49.441  24.098  40.744  1.00  0.00     0.084 C 
HETATM    5  C8  UNL     1      49.517  25.386  39.952  1.00  0.00     0.057 C 
ENDROOT
BRANCH   4   6
HETATM    6  N1  UNL     1      50.596  23.259  40.536  1.00  0.00    -0.386 N 
ATOM      7  H1  UNL     1      50.592  22.288  40.849  1.00  0.00     0.160 HD
BRANCH   6   8
HETATM    8  C7  UNL     1      51.616  23.743  39.960  1.00  0.00     0.166 C 
HETATM    9  S1  UNL     1      53.074  23.867  39.236  1.00  0.00    -0.075 SA
ENDBRANCH   6   8
ENDBRANCH   4   6
BRANCH   1  10
HETATM   10  O1  UNL     1      47.592  26.235  41.044  1.00  0.00    -0.358 OA
BRANCH  10  11
HETATM   11  C2  UNL     1      46.826  27.391  41.024  1.00  0.00     0.125 C 
HETATM   12  C1  UNL     1      45.520  27.353  41.293  1.00  0.00     0.037 C 
ENDBRANCH  10  11
ENDBRANCH   1  10
TORSDOF 4
ENDMDL
MODEL 5
REMARK VINA RESULT: -5.112069921      1.590      2.189
REMARK  4 active torsions:
REMARK  status: ('A' for Active; 'I' for Inactive)
REMARK    1  A    between atoms: C2_2  and  O1_3 
REMARK    2  A    between atoms: O1_3  and  C3_4 
REMARK    3  A    between atoms: C6_7  and  N1_8 
REMARK    4  A    between atoms: N1_8  and  C7_10 
ROOT
HETATM    1  C3  UNL     1      48.133  26.298  41.373  1.00  0.00     0.129 C 
HETATM    2  C4  UNL     1      48.111  26.127  39.868  1.00  0.00     0.034 C 
HETATM    3  C5  UNL     1      48.330  24.664  39.601  1.00  0.00     0.028 C 
HETATM    4  C6  UNL     1      48.873  24.126  40.889  1.00  0.00     0.084 C 
HETATM    5  C8  UNL     1      49.215  25.314  41.764  1.00  0.00     0.057 C 
ENDROOT
BRANCH   4   6
HETATM    6  N1  UNL     1      50.022  23.294  40.625  1.00  0.00    -0.386 N 
ATOM      7  H1  UNL     1      50.129  22.836  39.719  1.00  0.00     0.160 HD
BRANCH   6   8
HETATM    8  C7  UNL     1      50.895  23.138  41.530  1.00  0.00     0.166 C 
HETATM    9  S1  UNL     1      51.776  22.481  42.736  1.00  0.00    -0.075 SA
ENDBRANCH   6   8
ENDBRANCH   4   6
BRANCH   1  10
HETATM   10  O1  UNL     1      46.925  25.888  41.973  1.00  0.00    -0.358 OA
BRANCH  10  11
HETATM   11  C2  UNL     1      46.074  26.878  42.439  1.00  0.00     0.125 C 
HETATM   12  C1  UNL     1      45.368  27.632  41.594  1.00  0.00     0.037 C 
ENDBRANCH  10  11
ENDBRANCH   1  10
TORSDOF 4
ENDMDL
