MODEL 1
REMARK VINA RESULT: -9.295742484      0.000      0.000
REMARK  5 active torsions:
REMARK  status: ('A' for Active; 'I' for Inactive)
REMARK    1  A    between atoms: O1_1  and  C1_3 
REMARK    2  A    between atoms: C1_3  and  C2_4 
REMARK    3  A    between atoms: C1_3  and  C16_24 
REMARK    4  A    between atoms: C4_6  and  N1_7 
REMARK    5  A    between atoms: C8_11  and  N2_12 
ROOT
HETATM    1  C2  UNL     1      49.752  10.806 -23.596  1.00  0.00     0.047 A 
HETATM    2  C3  UNL     1      49.500  12.002 -24.290  1.00  0.00     0.076 A 
HETATM    3  C4  UNL     1      48.297  12.636 -24.204  1.00  0.00     0.105 A 
HETATM    4  N3  UNL     1      47.350  12.051 -23.411  1.00  0.00    -0.339 N 
ATOM      5  H3  UNL     1      46.438  12.498 -23.322  1.00  0.00     0.168 HD
HETATM    6  C15 UNL     1      47.578  10.925 -22.754  1.00  0.00     0.182 A 
HETATM    7  N4  UNL     1      48.774  10.305 -22.848  1.00  0.00    -0.353 N 
ATOM      8  H4  UNL     1      48.931   9.438 -22.335  1.00  0.00     0.166 HD
ENDROOT
BRANCH   3   9
HETATM    9  N1  UNL     1      47.931  13.816 -24.878  1.00  0.00    -0.365 N 
HETATM   10  C5  UNL     1      46.958  13.777 -25.941  1.00  0.00     0.124 C 
HETATM   11  C6  UNL     1      45.807  14.662 -25.430  1.00  0.00     0.022 C 
HETATM   12  C7  UNL     1      46.326  16.071 -25.393  1.00  0.00     0.028 C 
HETATM   13  C8  UNL     1      47.832  16.182 -25.403  1.00  0.00     0.097 C 
HETATM   14  C14 UNL     1      48.499  15.099 -24.551  1.00  0.00     0.149 C 
BRANCH  13  15
HETATM   15  N2  UNL     1      48.196  17.478 -24.934  1.00  0.00    -0.407 N 
HETATM   16  C9  UNL     1      49.593  17.790 -25.091  1.00  0.00     0.117 C 
HETATM   17  C10 UNL     1      49.933  18.473 -26.389  1.00  0.00     0.019 C 
HETATM   18  C11 UNL     1      48.907  19.483 -26.834  1.00  0.00     0.003 C 
HETATM   19  C12 UNL     1      48.082  19.831 -25.633  1.00  0.00     0.019 C 
HETATM   20  C13 UNL     1      47.329  18.558 -25.232  1.00  0.00     0.117 C 
ENDBRANCH  13  15
ENDBRANCH   3   9
BRANCH   1  21
HETATM   21  C1  UNL     1      51.062  10.127 -23.682  1.00  0.00     0.204 C 
BRANCH  21  22
HETATM   22  O1  UNL     1      51.025   8.817 -23.180  1.00  0.00    -0.385 OA
ATOM     23  H1  UNL     1      51.724   8.274 -23.525  1.00  0.00     0.211 HD
ENDBRANCH  21  22
BRANCH  21  24
HETATM   24  C16 UNL     1      51.491  10.077 -25.094  1.00  0.00     0.015 A 
HETATM   25  C17 UNL     1      50.961   9.181 -26.001  1.00  0.00     0.016 A 
HETATM   26  C18 UNL     1      51.395   9.175 -27.303  1.00  0.00     0.043 A 
HETATM   27  C19 UNL     1      52.376  10.069 -27.730  1.00  0.00     0.119 A 
HETATM   28  F1  UNL     1      52.831  10.091 -29.020  1.00  0.00    -0.206 F 
HETATM   29  C20 UNL     1      52.908  10.964 -26.831  1.00  0.00     0.085 A 
HETATM   30  C21 UNL     1      52.459  10.956 -25.525  1.00  0.00     0.128 A 
HETATM   31  F2  UNL     1      53.029  11.872 -24.697  1.00  0.00    -0.205 F 
ENDBRANCH  21  24
ENDBRANCH   1  21
TORSDOF 5
ENDMDL
MODEL 2
REMARK VINA RESULT: -9.136257777      3.090      7.400
REMARK  5 active torsions:
REMARK  status: ('A' for Active; 'I' for Inactive)
REMARK    1  A    between atoms: O1_1  and  C1_3 
REMARK    2  A    between atoms: C1_3  and  C2_4 
REMARK    3  A    between atoms: C1_3  and  C16_24 
REMARK    4  A    between atoms: C4_6  and  N1_7 
REMARK    5  A    between atoms: C8_11  and  N2_12 
ROOT
HETATM    1  C2  UNL     1      46.376  14.180 -25.935  1.00  0.00     0.047 A 
HETATM    2  C3  UNL     1      47.529  13.599 -25.379  1.00  0.00     0.076 A 
HETATM    3  C4  UNL     1      47.449  12.637 -24.417  1.00  0.00     0.105 A 
HETATM    4  N3  UNL     1      46.194  12.266 -24.022  1.00  0.00    -0.339 N 
ATOM      5  H3  UNL     1      46.095  11.548 -23.305  1.00  0.00     0.168 HD
HETATM    6  C15 UNL     1      45.103  12.808 -24.540  1.00  0.00     0.182 A 
HETATM    7  N4  UNL     1      45.195  13.761 -25.493  1.00  0.00    -0.353 N 
ATOM      8  H4  UNL     1      44.343  14.167 -25.879  1.00  0.00     0.166 HD
ENDROOT
BRANCH   3   9
HETATM    9  N1  UNL     1      48.535  12.015 -23.775  1.00  0.00    -0.365 N 
HETATM   10  C5  UNL     1      48.371  11.429 -22.467  1.00  0.00     0.124 C 
HETATM   11  C6  UNL     1      48.673   9.936 -22.682  1.00  0.00     0.022 C 
HETATM   12  C7  UNL     1      50.137   9.833 -23.003  1.00  0.00     0.028 C 
HETATM   13  C8  UNL     1      50.770  11.124 -23.461  1.00  0.00     0.097 C 
HETATM   14  C14 UNL     1      49.843  11.932 -24.373  1.00  0.00     0.149 C 
BRANCH  13  15
HETATM   15  N2  UNL     1      51.989  10.821 -24.134  1.00  0.00    -0.407 N 
HETATM   16  C9  UNL     1      52.070   9.471 -24.628  1.00  0.00     0.117 C 
HETATM   17  C10 UNL     1      51.577   9.297 -26.039  1.00  0.00     0.019 C 
HETATM   18  C11 UNL     1      51.946  10.432 -26.959  1.00  0.00     0.003 C 
HETATM   19  C12 UNL     1      53.074  11.176 -26.311  1.00  0.00     0.019 C 
HETATM   20  C13 UNL     1      52.512  11.791 -25.025  1.00  0.00     0.117 C 
ENDBRANCH  13  15
ENDBRANCH   3   9
BRANCH   1  21
HETATM   21  C1  UNL     1      46.466  15.214 -26.987  1.00  0.00     0.204 C 
BRANCH  21  22
HETATM   22  O1  UNL     1      45.214  15.540 -27.532  1.00  0.00    -0.385 OA
ATOM     23  H1  UNL     1      45.216  16.380 -27.974  1.00  0.00     0.211 HD
ENDBRANCH  21  22
BRANCH  21  24
HETATM   24  C16 UNL     1      47.060  16.439 -26.414  1.00  0.00     0.015 A 
HETATM   25  C17 UNL     1      46.340  17.319 -25.630  1.00  0.00     0.016 A 
HETATM   26  C18 UNL     1      46.940  18.443 -25.123  1.00  0.00     0.043 A 
HETATM   27  C19 UNL     1      48.282  18.717 -25.389  1.00  0.00     0.119 A 
HETATM   28  F1  UNL     1      48.910  19.827 -24.897  1.00  0.00    -0.206 F 
HETATM   29  C20 UNL     1      49.003  17.844 -26.168  1.00  0.00     0.085 A 
HETATM   30  C21 UNL     1      48.384  16.716 -26.671  1.00  0.00     0.128 A 
HETATM   31  F2  UNL     1      49.163  15.900 -27.430  1.00  0.00    -0.205 F 
ENDBRANCH  21  24
ENDBRANCH   1  21
TORSDOF 5
ENDMDL
MODEL 3
REMARK VINA RESULT: -8.939242443      3.829      7.528
REMARK  5 active torsions:
REMARK  status: ('A' for Active; 'I' for Inactive)
REMARK    1  A    between atoms: O1_1  and  C1_3 
REMARK    2  A    between atoms: C1_3  and  C2_4 
REMARK    3  A    between atoms: C1_3  and  C16_24 
REMARK    4  A    between atoms: C4_6  and  N1_7 
REMARK    5  A    between atoms: C8_11  and  N2_12 
ROOT
HETATM    1  C2  UNL     1      46.753  13.863 -25.789  1.00  0.00     0.047 A 
HETATM    2  C3  UNL     1      47.480  13.321 -24.715  1.00  0.00     0.076 A 
HETATM    3  C4  UNL     1      46.881  12.549 -23.766  1.00  0.00     0.105 A 
HETATM    4  N3  UNL     1      45.539  12.330 -23.910  1.00  0.00    -0.339 N 
ATOM      5  H3  UNL     1      45.056  11.756 -23.219  1.00  0.00     0.168 HD
HETATM    6  C15 UNL     1      44.846  12.837 -24.917  1.00  0.00     0.182 A 
HETATM    7  N4  UNL     1      45.452  13.601 -25.852  1.00  0.00    -0.353 N 
ATOM      8  H4  UNL     1      44.901  13.983 -26.620  1.00  0.00     0.166 HD
ENDROOT
BRANCH   3   9
HETATM    9  N1  UNL     1      47.506  11.984 -22.640  1.00  0.00    -0.365 N 
HETATM   10  C5  UNL     1      47.479  10.557 -22.429  1.00  0.00     0.124 C 
HETATM   11  C6  UNL     1      48.960  10.143 -22.465  1.00  0.00     0.022 C 
HETATM   12  C7  UNL     1      49.605  10.731 -21.242  1.00  0.00     0.028 C 
HETATM   13  C8  UNL     1      48.830  11.863 -20.610  1.00  0.00     0.097 C 
HETATM   14  C14 UNL     1      48.191  12.782 -21.654  1.00  0.00     0.149 C 
BRANCH  13  15
HETATM   15  N2  UNL     1      49.710  12.603 -19.768  1.00  0.00    -0.407 N 
HETATM   16  C9  UNL     1      49.041  13.381 -18.758  1.00  0.00     0.117 C 
HETATM   17  C10 UNL     1      48.848  12.664 -17.449  1.00  0.00     0.019 C 
HETATM   18  C11 UNL     1      50.017  11.801 -17.049  1.00  0.00     0.003 C 
HETATM   19  C12 UNL     1      51.200  12.264 -17.843  1.00  0.00     0.019 C 
HETATM   20  C13 UNL     1      50.888  11.961 -19.313  1.00  0.00     0.117 C 
ENDBRANCH  13  15
ENDBRANCH   3   9
BRANCH   1  21
HETATM   21  C1  UNL     1      47.409  14.690 -26.823  1.00  0.00     0.204 C 
BRANCH  21  22
HETATM   22  O1  UNL     1      46.640  14.800 -27.993  1.00  0.00    -0.385 OA
ATOM     23  H1  UNL     1      46.875  15.560 -28.513  1.00  0.00     0.211 HD
ENDBRANCH  21  22
BRANCH  21  24
HETATM   24  C16 UNL     1      47.642  16.046 -26.286  1.00  0.00     0.015 A 
HETATM   25  C17 UNL     1      46.640  16.797 -25.702  1.00  0.00     0.016 A 
HETATM   26  C18 UNL     1      46.910  18.052 -25.219  1.00  0.00     0.043 A 
HETATM   27  C19 UNL     1      48.193  18.590 -25.309  1.00  0.00     0.119 A 
HETATM   28  F1  UNL     1      48.496  19.837 -24.836  1.00  0.00    -0.206 F 
HETATM   29  C20 UNL     1      49.194  17.846 -25.889  1.00  0.00     0.085 A 
HETATM   30  C21 UNL     1      48.906  16.585 -26.370  1.00  0.00     0.128 A 
HETATM   31  F2  UNL     1      49.947  15.910 -26.927  1.00  0.00    -0.205 F 
ENDBRANCH  21  24
ENDBRANCH   1  21
TORSDOF 5
ENDMDL
MODEL 4
REMARK VINA RESULT: -8.889155238      4.209      6.681
REMARK  5 active torsions:
REMARK  status: ('A' for Active; 'I' for Inactive)
REMARK    1  A    between atoms: O1_1  and  C1_3 
REMARK    2  A    between atoms: C1_3  and  C2_4 
REMARK    3  A    between atoms: C1_3  and  C16_24 
REMARK    4  A    between atoms: C4_6  and  N1_7 
REMARK    5  A    between atoms: C8_11  and  N2_12 
ROOT
HETATM    1  C2  UNL     1      46.016  12.996 -26.229  1.00  0.00     0.047 A 
HETATM    2  C3  UNL     1      47.207  12.516 -25.657  1.00  0.00     0.076 A 
HETATM    3  C4  UNL     1      47.264  12.124 -24.353  1.00  0.00     0.105 A 
HETATM    4  N3  UNL     1      46.107  12.220 -23.632  1.00  0.00    -0.339 N 
ATOM      5  H3  UNL     1      46.111  11.935 -22.653  1.00  0.00     0.168 HD
HETATM    6  C15 UNL     1      44.981  12.671 -24.162  1.00  0.00     0.182 A 
HETATM    7  N4  UNL     1      44.937  13.058 -25.456  1.00  0.00    -0.353 N 
ATOM      8  H4  UNL     1      44.061  13.403 -25.846  1.00  0.00     0.166 HD
ENDROOT
BRANCH   3   9
HETATM    9  N1  UNL     1      48.406  11.659 -23.676  1.00  0.00    -0.365 N 
HETATM   10  C5  UNL     1      48.290  11.093 -22.355  1.00  0.00     0.124 C 
HETATM   11  C6  UNL     1      48.781   9.643 -22.522  1.00  0.00     0.022 C 
HETATM   12  C7  UNL     1      50.252   9.716 -22.816  1.00  0.00     0.028 C 
HETATM   13  C8  UNL     1      50.728  11.064 -23.301  1.00  0.00     0.097 C 
HETATM   14  C14 UNL     1      49.725  11.725 -24.251  1.00  0.00     0.149 C 
BRANCH  13  15
HETATM   15  N2  UNL     1      51.988  10.898 -23.946  1.00  0.00    -0.407 N 
HETATM   16  C9  UNL     1      52.233   9.564 -24.427  1.00  0.00     0.117 C 
HETATM   17  C10 UNL     1      51.794   9.327 -25.847  1.00  0.00     0.019 C 
HETATM   18  C11 UNL     1      52.053  10.492 -26.767  1.00  0.00     0.003 C 
HETATM   19  C12 UNL     1      53.073  11.363 -26.101  1.00  0.00     0.019 C 
HETATM   20  C13 UNL     1      52.417  11.917 -24.832  1.00  0.00     0.117 C 
ENDBRANCH  13  15
ENDBRANCH   3   9
BRANCH   1  21
HETATM   21  C1  UNL     1      45.954  13.409 -27.647  1.00  0.00     0.204 C 
BRANCH  21  22
HETATM   22  O1  UNL     1      46.893  14.404 -27.960  1.00  0.00    -0.385 OA
ATOM     23  H1  UNL     1      46.489  15.192 -28.304  1.00  0.00     0.211 HD
ENDBRANCH  21  22
BRANCH  21  24
HETATM   24  C16 UNL     1      46.211  12.235 -28.506  1.00  0.00     0.015 A 
HETATM   25  C17 UNL     1      46.614  11.016 -27.998  1.00  0.00     0.016 A 
HETATM   26  C18 UNL     1      46.840   9.956 -28.840  1.00  0.00     0.043 A 
HETATM   27  C19 UNL     1      46.668  10.092 -30.217  1.00  0.00     0.119 A 
HETATM   28  F1  UNL     1      46.884   9.056 -31.084  1.00  0.00    -0.206 F 
HETATM   29  C20 UNL     1      46.267  11.304 -30.728  1.00  0.00     0.085 A 
HETATM   30  C21 UNL     1      46.043  12.359 -29.867  1.00  0.00     0.128 A 
HETATM   31  F2  UNL     1      45.645  13.524 -30.446  1.00  0.00    -0.205 F 
ENDBRANCH  21  24
ENDBRANCH   1  21
TORSDOF 5
ENDMDL
MODEL 5
REMARK VINA RESULT: -8.859505245      2.432      3.915
REMARK  5 active torsions:
REMARK  status: ('A' for Active; 'I' for Inactive)
REMARK    1  A    between atoms: O1_1  and  C1_3 
REMARK    2  A    between atoms: C1_3  and  C2_4 
REMARK    3  A    between atoms: C1_3  and  C16_24 
REMARK    4  A    between atoms: C4_6  and  N1_7 
REMARK    5  A    between atoms: C8_11  and  N2_12 
ROOT
HETATM    1  C2  UNL     1      52.338  11.965 -24.040  1.00  0.00     0.047 A 
HETATM    2  C3  UNL     1      51.338  12.697 -24.702  1.00  0.00     0.076 A 
HETATM    3  C4  UNL     1      50.679  13.720 -24.089  1.00  0.00     0.105 A 
HETATM    4  N3  UNL     1      51.039  13.997 -22.800  1.00  0.00    -0.339 N 
ATOM      5  H3  UNL     1      50.568  14.757 -22.309  1.00  0.00     0.168 HD
HETATM    6  C15 UNL     1      51.978  13.312 -22.167  1.00  0.00     0.182 A 
HETATM    7  N4  UNL     1      52.624  12.300 -22.786  1.00  0.00    -0.353 N 
ATOM      8  H4  UNL     1      53.344  11.783 -22.282  1.00  0.00     0.166 HD
ENDROOT
BRANCH   3   9
HETATM    9  N1  UNL     1      49.647  14.495 -24.648  1.00  0.00    -0.365 N 
HETATM   10  C5  UNL     1      49.911  15.833 -25.118  1.00  0.00     0.124 C 
HETATM   11  C6  UNL     1      49.596  15.773 -26.623  1.00  0.00     0.022 C 
HETATM   12  C7  UNL     1      48.112  15.575 -26.747  1.00  0.00     0.028 C 
HETATM   13  C8  UNL     1      47.444  15.055 -25.497  1.00  0.00     0.097 C 
HETATM   14  C14 UNL     1      48.297  14.008 -24.777  1.00  0.00     0.149 C 
BRANCH  13  15
HETATM   15  N2  UNL     1      46.177  14.506 -25.852  1.00  0.00    -0.407 N 
HETATM   16  C9  UNL     1      46.007  14.281 -27.264  1.00  0.00     0.117 C 
HETATM   17  C10 UNL     1      46.415  12.908 -27.727  1.00  0.00     0.019 C 
HETATM   18  C11 UNL     1      46.050  11.807 -26.765  1.00  0.00     0.003 C 
HETATM   19  C12 UNL     1      44.995  12.351 -25.851  1.00  0.00     0.019 C 
HETATM   20  C13 UNL     1      45.653  13.471 -25.038  1.00  0.00     0.117 C 
ENDBRANCH  13  15
ENDBRANCH   3   9
BRANCH   1  21
HETATM   21  C1  UNL     1      53.059  10.864 -24.712  1.00  0.00     0.204 C 
BRANCH  21  22
HETATM   22  O1  UNL     1      53.624   9.955 -23.803  1.00  0.00    -0.385 OA
ATOM     23  H1  UNL     1      53.089   9.179 -23.683  1.00  0.00     0.211 HD
ENDBRANCH  21  22
BRANCH  21  24
HETATM   24  C16 UNL     1      52.120  10.131 -25.586  1.00  0.00     0.015 A 
HETATM   25  C17 UNL     1      51.132   9.305 -25.089  1.00  0.00     0.016 A 
HETATM   26  C18 UNL     1      50.286   8.646 -25.945  1.00  0.00     0.043 A 
HETATM   27  C19 UNL     1      50.410   8.797 -27.325  1.00  0.00     0.119 A 
HETATM   28  F1  UNL     1      49.582   8.156 -28.206  1.00  0.00    -0.206 F 
HETATM   29  C20 UNL     1      51.392   9.619 -27.825  1.00  0.00     0.085 A 
HETATM   30  C21 UNL     1      52.235  10.275 -26.950  1.00  0.00     0.128 A 
HETATM   31  F2  UNL     1      53.179  11.072 -27.520  1.00  0.00    -0.205 F 
ENDBRANCH  21  24
ENDBRANCH   1  21
TORSDOF 5
ENDMDL
