MODEL 1
REMARK VINA RESULT: -8.495064697      0.000      0.000
REMARK  7 active torsions:
REMARK  status: ('A' for Active; 'I' for Inactive)
REMARK    1  A    between atoms: C5_14  and  N4_15 
REMARK    2  A    between atoms: N4_15  and  N5_17 
REMARK    3  A    between atoms: C6_19  and  C7_20 
REMARK    4  A    between atoms: C7_20  and  C8_21 
REMARK    5  A    between atoms: C8_21  and  O3_22 
REMARK    6  A    between atoms: O3_22  and  C9_23 
REMARK    7  A    between atoms: C10_26  and  N7_27 
ROOT
HETATM    1  N4  UNL     1      11.974 -12.010 -13.031  1.00  0.00    -0.294 N 
ATOM      2  H4  UNL     1      12.047 -12.249 -14.020  1.00  0.00     0.187 HD
ENDROOT
BRANCH   1   3
HETATM    3  C5  UNL     1      11.518 -10.729 -12.632  1.00  0.00     0.145 A 
HETATM    4  C4  UNL     1      10.635 -10.521 -11.491  1.00  0.00     0.278 A 
HETATM    5  N3  UNL     1      10.205  -9.229 -11.128  1.00  0.00    -0.286 N 
HETATM    6  O2  UNL     1      10.259 -11.522 -10.832  1.00  0.00    -0.265 OA
HETATM    7  C3  UNL     1      10.612  -8.080 -11.854  1.00  0.00     0.277 A 
ATOM      8  H3  UNL     1       9.586  -9.117 -10.325  1.00  0.00     0.172 HD
HETATM    9  C2  UNL     1      11.499  -8.304 -12.997  1.00  0.00     0.133 A 
HETATM   10  O1  UNL     1      10.265  -6.920 -11.579  1.00  0.00    -0.266 OA
HETATM   11  N2  UNL     1      12.034  -7.491 -13.837  1.00  0.00    -0.322 N 
HETATM   12  C11 UNL     1      11.925  -9.678 -13.339  1.00  0.00     0.101 A 
HETATM   13  C1  UNL     1      12.838  -8.199 -14.790  1.00  0.00     0.178 A 
ATOM     14  H2  UNL     1      11.903  -6.480 -13.827  1.00  0.00     0.169 HD
HETATM   15  N1  UNL     1      13.520  -7.723 -15.772  1.00  0.00    -0.371 N 
HETATM   16  N11 UNL     1      12.771  -9.584 -14.478  1.00  0.00    -0.324 N 
ATOM     17  H12 UNL     1      13.569  -6.729 -15.996  1.00  0.00     0.159 HD
ATOM     18  H11 UNL     1      14.092  -8.227 -16.450  1.00  0.00     0.159 HD
ATOM     19  H11 UNL     1      13.233 -10.350 -14.969  1.00  0.00     0.169 HD
ENDBRANCH   1   3
BRANCH   1  20
HETATM   20  N5  UNL     1      12.317 -12.929 -12.061  1.00  0.00    -0.315 N 
HETATM   21  C6  UNL     1      13.528 -13.209 -11.722  1.00  0.00     0.082 C 
ATOM     22  H5  UNL     1      11.562 -13.419 -11.581  1.00  0.00     0.185 HD
BRANCH  21  23
HETATM   23  C7  UNL     1      14.709 -12.565 -12.346  1.00  0.00     0.073 C 
BRANCH  23  24
HETATM   24  C8  UNL     1      15.165 -13.423 -13.480  1.00  0.00     0.184 C 
BRANCH  24  25
HETATM   25  O3  UNL     1      14.077 -13.951 -14.229  1.00  0.00    -0.321 OA
BRANCH  25  26
HETATM   26  C9  UNL     1      14.265 -14.511 -15.483  1.00  0.00     0.234 C 
HETATM   27  N6  UNL     1      15.198 -15.404 -15.628  1.00  0.00    -0.314 N 
HETATM   28  C10 UNL     1      15.411 -15.996 -16.913  1.00  0.00     0.397 C 
ATOM     29  H6  UNL     1      15.773 -15.681 -14.832  1.00  0.00     0.166 HD
HETATM   30  N8  UNL     1      14.301 -15.833 -17.821  1.00  0.00    -0.072 NA
HETATM   31  N9  UNL     1      13.861 -14.505 -17.902  1.00  0.00    -0.025 NA
HETATM   32  N10 UNL     1      13.467 -14.134 -16.611  1.00  0.00    -0.252 N 
ATOM     33  H10 UNL     1      12.612 -13.596 -16.473  1.00  0.00     0.187 HD
BRANCH  28  34
HETATM   34  N7  UNL     1      15.717 -17.408 -16.846  1.00  0.00    -0.043 N 
ATOM     35  H73 UNL     1      16.591 -17.567 -16.345  1.00  0.00     0.278 HD
ATOM     36  H72 UNL     1      15.074 -17.890 -16.219  1.00  0.00     0.278 HD
ATOM     37  H71 UNL     1      15.737 -17.858 -17.761  1.00  0.00     0.278 HD
ENDBRANCH  28  34
ENDBRANCH  25  26
ENDBRANCH  24  25
ENDBRANCH  23  24
ENDBRANCH  21  23
ENDBRANCH   1  20
TORSDOF 7
ENDMDL
MODEL 2
REMARK VINA RESULT: -8.257932304      0.854      1.561
REMARK  7 active torsions:
REMARK  status: ('A' for Active; 'I' for Inactive)
REMARK    1  A    between atoms: C5_14  and  N4_15 
REMARK    2  A    between atoms: N4_15  and  N5_17 
REMARK    3  A    between atoms: C6_19  and  C7_20 
REMARK    4  A    between atoms: C7_20  and  C8_21 
REMARK    5  A    between atoms: C8_21  and  O3_22 
REMARK    6  A    between atoms: O3_22  and  C9_23 
REMARK    7  A    between atoms: C10_26  and  N7_27 
ROOT
HETATM    1  N4  UNL     1      11.899 -12.052 -13.057  1.00  0.00    -0.294 N 
ATOM      2  H4  UNL     1      12.054 -12.236 -14.048  1.00  0.00     0.187 HD
ENDROOT
BRANCH   1   3
HETATM    3  C5  UNL     1      11.445 -10.781 -12.623  1.00  0.00     0.145 A 
HETATM    4  C4  UNL     1      10.545 -10.605 -11.491  1.00  0.00     0.278 A 
HETATM    5  N3  UNL     1      10.118  -9.322 -11.092  1.00  0.00    -0.286 N 
HETATM    6  O2  UNL     1      10.154 -11.623 -10.870  1.00  0.00    -0.265 OA
HETATM    7  C3  UNL     1      10.544  -8.153 -11.775  1.00  0.00     0.277 A 
ATOM      8  H3  UNL     1       9.487  -9.232 -10.295  1.00  0.00     0.172 HD
HETATM    9  C2  UNL     1      11.447  -8.346 -12.910  1.00  0.00     0.133 A 
HETATM   10  O1  UNL     1      10.200  -7.000 -11.467  1.00  0.00    -0.266 OA
HETATM   11  N2  UNL     1      11.999  -7.510 -13.715  1.00  0.00    -0.322 N 
HETATM   12  C11 UNL     1      11.869  -9.711 -13.290  1.00  0.00     0.101 A 
HETATM   13  C1  UNL     1      12.814  -8.192 -14.678  1.00  0.00     0.178 A 
ATOM     14  H2  UNL     1      11.875  -6.499 -13.675  1.00  0.00     0.169 HD
HETATM   15  N1  UNL     1      13.514  -7.690 -15.635  1.00  0.00    -0.371 N 
HETATM   16  N11 UNL     1      12.733  -9.586 -14.413  1.00  0.00    -0.324 N 
ATOM     17  H12 UNL     1      13.572  -6.690 -15.825  1.00  0.00     0.159 HD
ATOM     18  H11 UNL     1      14.093  -8.175 -16.320  1.00  0.00     0.159 HD
ATOM     19  H11 UNL     1      13.198 -10.339 -14.921  1.00  0.00     0.169 HD
ENDBRANCH   1   3
BRANCH   1  20
HETATM   20  N5  UNL     1      12.127 -13.036 -12.117  1.00  0.00    -0.315 N 
HETATM   21  C6  UNL     1      13.187 -13.110 -11.387  1.00  0.00     0.082 C 
ATOM     22  H5  UNL     1      11.411 -13.751 -11.992  1.00  0.00     0.185 HD
BRANCH  21  23
HETATM   23  C7  UNL     1      14.297 -12.131 -11.475  1.00  0.00     0.073 C 
BRANCH  23  24
HETATM   24  C8  UNL     1      15.143 -12.490 -12.652  1.00  0.00     0.184 C 
BRANCH  24  25
HETATM   25  O3  UNL     1      15.228 -13.897 -12.847  1.00  0.00    -0.321 OA
BRANCH  25  26
HETATM   26  C9  UNL     1      15.170 -14.458 -14.114  1.00  0.00     0.234 C 
HETATM   27  N6  UNL     1      14.149 -14.178 -14.868  1.00  0.00    -0.314 N 
HETATM   28  C10 UNL     1      14.068 -14.746 -16.178  1.00  0.00     0.397 C 
ATOM     29  H6  UNL     1      13.413 -13.560 -14.528  1.00  0.00     0.166 HD
HETATM   30  N8  UNL     1      15.327 -15.246 -16.677  1.00  0.00    -0.072 NA
HETATM   31  N9  UNL     1      15.973 -16.088 -15.762  1.00  0.00    -0.025 NA
HETATM   32  N10 UNL     1      16.195 -15.327 -14.607  1.00  0.00    -0.252 N 
ATOM     33  H10 UNL     1      17.088 -15.393 -14.117  1.00  0.00     0.187 HD
BRANCH  28  34
HETATM   34  N7  UNL     1      13.541 -13.829 -17.165  1.00  0.00    -0.043 N 
ATOM     35  H73 UNL     1      12.724 -13.337 -16.804  1.00  0.00     0.278 HD
ATOM     36  H72 UNL     1      14.169 -13.036 -17.296  1.00  0.00     0.278 HD
ATOM     37  H71 UNL     1      13.330 -14.276 -18.057  1.00  0.00     0.278 HD
ENDBRANCH  28  34
ENDBRANCH  25  26
ENDBRANCH  24  25
ENDBRANCH  23  24
ENDBRANCH  21  23
ENDBRANCH   1  20
TORSDOF 7
ENDMDL
MODEL 3
REMARK VINA RESULT: -7.974860312      2.101      2.594
REMARK  7 active torsions:
REMARK  status: ('A' for Active; 'I' for Inactive)
REMARK    1  A    between atoms: C5_14  and  N4_15 
REMARK    2  A    between atoms: N4_15  and  N5_17 
REMARK    3  A    between atoms: C6_19  and  C7_20 
REMARK    4  A    between atoms: C7_20  and  C8_21 
REMARK    5  A    between atoms: C8_21  and  O3_22 
REMARK    6  A    between atoms: O3_22  and  C9_23 
REMARK    7  A    between atoms: C10_26  and  N7_27 
ROOT
HETATM    1  N4  UNL     1      12.862  -9.932 -13.010  1.00  0.00    -0.294 N 
ATOM      2  H4  UNL     1      13.688 -10.432 -13.339  1.00  0.00     0.187 HD
ENDROOT
BRANCH   1   3
HETATM    3  C5  UNL     1      12.975  -8.615 -12.497  1.00  0.00     0.145 A 
HETATM    4  C4  UNL     1      12.996  -8.319 -11.070  1.00  0.00     0.278 A 
HETATM    5  N3  UNL     1      13.110  -6.994 -10.603  1.00  0.00    -0.286 N 
HETATM    6  O2  UNL     1      12.910  -9.272 -10.258  1.00  0.00    -0.265 OA
HETATM    7  C3  UNL     1      13.208  -5.898 -11.497  1.00  0.00     0.277 A 
ATOM      8  H3  UNL     1      13.121  -6.820  -9.598  1.00  0.00     0.172 HD
HETATM    9  C2  UNL     1      13.186  -6.210 -12.927  1.00  0.00     0.133 A 
HETATM   10  O1  UNL     1      13.310  -4.713 -11.141  1.00  0.00    -0.266 OA
HETATM   11  N2  UNL     1      13.255  -5.459 -13.968  1.00  0.00    -0.322 N 
HETATM   12  C11 UNL     1      13.066  -7.616 -13.370  1.00  0.00     0.101 A 
HETATM   13  C1  UNL     1      13.192  -6.243 -15.167  1.00  0.00     0.178 A 
ATOM     14  H2  UNL     1      13.343  -4.444 -13.944  1.00  0.00     0.169 HD
HETATM   15  N1  UNL     1      13.231  -5.842 -16.389  1.00  0.00    -0.371 N 
HETATM   16  N11 UNL     1      13.071  -7.609 -14.792  1.00  0.00    -0.324 N 
ATOM     17  H12 UNL     1      13.318  -4.862 -16.658  1.00  0.00     0.159 HD
ATOM     18  H11 UNL     1      13.185  -6.400 -17.242  1.00  0.00     0.159 HD
ATOM     19  H11 UNL     1      13.003  -8.416 -15.413  1.00  0.00     0.169 HD
ENDBRANCH   1   3
BRANCH   1  20
HETATM   20  N5  UNL     1      11.618 -10.526 -13.056  1.00  0.00    -0.315 N 
HETATM   21  C6  UNL     1      11.300 -11.596 -12.411  1.00  0.00     0.082 C 
ATOM     22  H5  UNL     1      10.903 -10.090 -13.639  1.00  0.00     0.185 HD
BRANCH  21  23
HETATM   23  C7  UNL     1      12.249 -12.320 -11.533  1.00  0.00     0.073 C 
BRANCH  23  24
HETATM   24  C8  UNL     1      12.875 -13.419 -12.327  1.00  0.00     0.184 C 
BRANCH  24  25
HETATM   25  O3  UNL     1      12.869 -13.147 -13.723  1.00  0.00    -0.321 OA
BRANCH  25  26
HETATM   26  C9  UNL     1      13.820 -13.694 -14.572  1.00  0.00     0.234 C 
HETATM   27  N6  UNL     1      15.028 -13.857 -14.124  1.00  0.00    -0.314 N 
HETATM   28  C10 UNL     1      16.025 -14.419 -14.982  1.00  0.00     0.397 C 
ATOM     29  H6  UNL     1      15.264 -13.586 -13.169  1.00  0.00     0.166 HD
HETATM   30  N8  UNL     1      15.486 -15.120 -16.122  1.00  0.00    -0.072 NA
HETATM   31  N9  UNL     1      14.536 -14.363 -16.820  1.00  0.00    -0.025 NA
HETATM   32  N10 UNL     1      13.506 -14.080 -15.915  1.00  0.00    -0.252 N 
ATOM     33  H10 UNL     1      12.532 -14.148 -16.211  1.00  0.00     0.187 HD
BRANCH  28  34
HETATM   34  N7  UNL     1      16.922 -15.325 -14.297  1.00  0.00    -0.043 N 
ATOM     35  H73 UNL     1      16.550 -16.275 -14.299  1.00  0.00     0.278 HD
ATOM     36  H72 UNL     1      17.771 -15.477 -14.841  1.00  0.00     0.278 HD
ATOM     37  H71 UNL     1      17.148 -15.026 -13.348  1.00  0.00     0.278 HD
ENDBRANCH  28  34
ENDBRANCH  25  26
ENDBRANCH  24  25
ENDBRANCH  23  24
ENDBRANCH  21  23
ENDBRANCH   1  20
TORSDOF 7
ENDMDL
MODEL 4
REMARK VINA RESULT: -7.972951985      2.483      3.702
REMARK  7 active torsions:
REMARK  status: ('A' for Active; 'I' for Inactive)
REMARK    1  A    between atoms: C5_14  and  N4_15 
REMARK    2  A    between atoms: N4_15  and  N5_17 
REMARK    3  A    between atoms: C6_19  and  C7_20 
REMARK    4  A    between atoms: C7_20  and  C8_21 
REMARK    5  A    between atoms: C8_21  and  O3_22 
REMARK    6  A    between atoms: O3_22  and  C9_23 
REMARK    7  A    between atoms: C10_26  and  N7_27 
ROOT
HETATM    1  N4  UNL     1      12.890  -9.432 -13.008  1.00  0.00    -0.294 N 
ATOM      2  H4  UNL     1      13.619  -9.757 -12.373  1.00  0.00     0.187 HD
ENDROOT
BRANCH   1   3
HETATM    3  C5  UNL     1      13.003  -8.172 -13.648  1.00  0.00     0.145 A 
HETATM    4  C4  UNL     1      13.214  -8.028 -15.083  1.00  0.00     0.278 A 
HETATM    5  N3  UNL     1      13.321  -6.755 -15.679  1.00  0.00    -0.286 N 
HETATM    6  O2  UNL     1      13.300  -9.065 -15.785  1.00  0.00    -0.265 OA
HETATM    7  C3  UNL     1      13.228  -5.566 -14.912  1.00  0.00     0.277 A 
ATOM      8  H3  UNL     1      13.469  -6.688 -16.687  1.00  0.00     0.172 HD
HETATM    9  C2  UNL     1      13.016  -5.726 -13.472  1.00  0.00     0.133 A 
HETATM   10  O1  UNL     1      13.315  -4.421 -15.384  1.00  0.00    -0.266 OA
HETATM   11  N2  UNL     1      12.892  -4.866 -12.525  1.00  0.00    -0.322 N 
HETATM   12  C11 UNL     1      12.910  -7.082 -12.891  1.00  0.00     0.101 A 
HETATM   13  C1  UNL     1      12.697  -5.522 -11.265  1.00  0.00     0.178 A 
ATOM     14  H2  UNL     1      12.927  -3.855 -12.653  1.00  0.00     0.169 HD
HETATM   15  N1  UNL     1      12.537  -4.991 -10.103  1.00  0.00    -0.371 N 
HETATM   16  N11 UNL     1      12.709  -6.924 -11.493  1.00  0.00    -0.324 N 
ATOM     17  H12 UNL     1      12.528  -3.985  -9.939  1.00  0.00     0.159 HD
ATOM     18  H11 UNL     1      12.398  -5.457  -9.206  1.00  0.00     0.159 HD
ATOM     19  H11 UNL     1      12.596  -7.664 -10.798  1.00  0.00     0.169 HD
ENDBRANCH   1   3
BRANCH   1  20
HETATM   20  N5  UNL     1      11.779 -10.210 -13.257  1.00  0.00    -0.315 N 
HETATM   21  C6  UNL     1      11.535 -11.334 -12.675  1.00  0.00     0.082 C 
ATOM     22  H5  UNL     1      11.107  -9.875 -13.947  1.00  0.00     0.185 HD
BRANCH  21  23
HETATM   23  C7  UNL     1      12.433 -11.926 -11.656  1.00  0.00     0.073 C 
BRANCH  23  24
HETATM   24  C8  UNL     1      12.912 -13.246 -12.166  1.00  0.00     0.184 C 
BRANCH  24  25
HETATM   25  O3  UNL     1      12.686 -13.399 -13.562  1.00  0.00    -0.321 OA
BRANCH  25  26
HETATM   26  C9  UNL     1      13.701 -13.796 -14.420  1.00  0.00     0.234 C 
HETATM   27  N6  UNL     1      14.891 -13.973 -13.931  1.00  0.00    -0.314 N 
HETATM   28  C10 UNL     1      15.953 -14.382 -14.798  1.00  0.00     0.397 C 
ATOM     29  H6  UNL     1      15.067 -13.823 -12.937  1.00  0.00     0.166 HD
HETATM   30  N8  UNL     1      15.502 -14.945 -16.048  1.00  0.00    -0.072 NA
HETATM   31  N9  UNL     1      14.557 -14.137 -16.693  1.00  0.00    -0.025 NA
HETATM   32  N10 UNL     1      13.472 -14.012 -15.817  1.00  0.00    -0.252 N 
ATOM     33  H10 UNL     1      12.518 -14.075 -16.174  1.00  0.00     0.187 HD
BRANCH  28  34
HETATM   34  N7  UNL     1      16.851 -15.338 -14.188  1.00  0.00    -0.043 N 
ATOM     35  H73 UNL     1      17.824 -15.078 -14.352  1.00  0.00     0.278 HD
ATOM     36  H72 UNL     1      16.828 -15.261 -13.171  1.00  0.00     0.278 HD
ATOM     37  H71 UNL     1      16.677 -16.298 -14.483  1.00  0.00     0.278 HD
ENDBRANCH  28  34
ENDBRANCH  25  26
ENDBRANCH  24  25
ENDBRANCH  23  24
ENDBRANCH  21  23
ENDBRANCH   1  20
TORSDOF 7
ENDMDL
MODEL 5
REMARK VINA RESULT: -7.962876496      1.664      3.205
REMARK  7 active torsions:
REMARK  status: ('A' for Active; 'I' for Inactive)
REMARK    1  A    between atoms: C5_14  and  N4_15 
REMARK    2  A    between atoms: N4_15  and  N5_17 
REMARK    3  A    between atoms: C6_19  and  C7_20 
REMARK    4  A    between atoms: C7_20  and  C8_21 
REMARK    5  A    between atoms: C8_21  and  O3_22 
REMARK    6  A    between atoms: O3_22  and  C9_23 
REMARK    7  A    between atoms: C10_26  and  N7_27 
ROOT
HETATM    1  N4  UNL     1      12.082 -11.278 -13.461  1.00  0.00    -0.294 N 
ATOM      2  H4  UNL     1      11.559 -11.963 -14.007  1.00  0.00     0.187 HD
ENDROOT
BRANCH   1   3
HETATM    3  C5  UNL     1      11.402 -10.318 -12.669  1.00  0.00     0.145 A 
HETATM    4  C4  UNL     1      11.409  -8.893 -12.972  1.00  0.00     0.278 A 
HETATM    5  N3  UNL     1      10.719  -7.972 -12.156  1.00  0.00    -0.286 N 
HETATM    6  O2  UNL     1      12.044  -8.495 -13.978  1.00  0.00    -0.265 OA
HETATM    7  C3  UNL     1       9.993  -8.393 -11.013  1.00  0.00     0.277 A 
ATOM      8  H3  UNL     1      10.743  -6.980 -12.395  1.00  0.00     0.172 HD
HETATM    9  C2  UNL     1       9.996  -9.827 -10.722  1.00  0.00     0.133 A 
HETATM   10  O1  UNL     1       9.369  -7.626 -10.261  1.00  0.00    -0.266 OA
HETATM   11  N2  UNL     1       9.446 -10.510  -9.781  1.00  0.00    -0.322 N 
HETATM   12  C11 UNL     1      10.733 -10.755 -11.606  1.00  0.00     0.101 A 
HETATM   13  C1  UNL     1       9.742 -11.905  -9.926  1.00  0.00     0.178 A 
ATOM     14  H2  UNL     1       8.878 -10.113  -9.034  1.00  0.00     0.169 HD
HETATM   15  N1  UNL     1       9.368 -12.885  -9.179  1.00  0.00    -0.371 N 
HETATM   16  N11 UNL     1      10.557 -12.064 -11.080  1.00  0.00    -0.324 N 
ATOM     17  H12 UNL     1       8.783 -12.771  -8.352  1.00  0.00     0.159 HD
ATOM     18  H11 UNL     1       9.578 -13.878  -9.282  1.00  0.00     0.159 HD
ATOM     19  H11 UNL     1      10.936 -12.935 -11.453  1.00  0.00     0.169 HD
ENDBRANCH   1   3
BRANCH   1  20
HETATM   20  N5  UNL     1      13.461 -11.269 -13.484  1.00  0.00    -0.315 N 
HETATM   21  C6  UNL     1      14.201 -12.177 -12.946  1.00  0.00     0.082 C 
ATOM     22  H5  UNL     1      13.925 -10.494 -13.956  1.00  0.00     0.185 HD
BRANCH  21  23
HETATM   23  C7  UNL     1      13.646 -13.352 -12.232  1.00  0.00     0.073 C 
BRANCH  23  24
HETATM   24  C8  UNL     1      13.645 -14.512 -13.172  1.00  0.00     0.184 C 
BRANCH  24  25
HETATM   25  O3  UNL     1      13.091 -14.179 -14.440  1.00  0.00    -0.321 OA
BRANCH  25  26
HETATM   26  C9  UNL     1      13.651 -14.645 -15.620  1.00  0.00     0.234 C 
HETATM   27  N6  UNL     1      14.645 -15.478 -15.546  1.00  0.00    -0.314 N 
HETATM   28  C10 UNL     1      15.239 -15.972 -16.750  1.00  0.00     0.397 C 
ATOM     29  H6  UNL     1      14.999 -15.778 -14.637  1.00  0.00     0.166 HD
HETATM   30  N8  UNL     1      14.410 -15.806 -17.920  1.00  0.00    -0.072 NA
HETATM   31  N9  UNL     1      13.921 -14.499 -18.053  1.00  0.00    -0.025 NA
HETATM   32  N10 UNL     1      13.167 -14.235 -16.903  1.00  0.00    -0.252 N 
ATOM     33  H10 UNL     1      12.272 -13.750 -16.980  1.00  0.00     0.187 HD
BRANCH  28  34
HETATM   34  N7  UNL     1      15.609 -17.368 -16.673  1.00  0.00    -0.043 N 
ATOM     35  H73 UNL     1      16.326 -17.515 -15.963  1.00  0.00     0.278 HD
ATOM     36  H72 UNL     1      14.855 -17.922 -16.266  1.00  0.00     0.278 HD
ATOM     37  H71 UNL     1      15.902 -17.756 -17.569  1.00  0.00     0.278 HD
ENDBRANCH  28  34
ENDBRANCH  25  26
ENDBRANCH  24  25
ENDBRANCH  23  24
ENDBRANCH  21  23
ENDBRANCH   1  20
TORSDOF 7
ENDMDL
