MODEL 1
REMARK VINA RESULT: -7.162475571      0.000      0.000
REMARK  9 active torsions:
REMARK  status: ('A' for Active; 'I' for Inactive)
REMARK    1  A    between atoms: N3_7  and  C3_8 
REMARK    2  A    between atoms: C3_8  and  C4_9 
REMARK    3  A    between atoms: C4_9  and  C5_10 
REMARK    4  A    between atoms: C5_10  and  C6_11 
REMARK    5  A    between atoms: C7_12  and  C8_13 
REMARK    6  A    between atoms: C8_13  and  O2_14 
REMARK    7  A    between atoms: C8_13  and  O3_16 
REMARK    8  A    between atoms: C11_29  and  N8_30 
REMARK    9  A    between atoms: N8_30  and  N9_32 
ROOT
HETATM    1  C6  UNL     1      11.875 -10.937 -12.179  1.00  0.00     0.081 A 
HETATM    2  C7  UNL     1      11.454 -11.738 -11.140  1.00  0.00     0.105 A 
HETATM    3  N4  UNL     1      12.044 -12.950 -11.368  1.00  0.00    -0.187 N 
ATOM      4  H4  UNL     1      11.926 -13.767 -10.769  1.00  0.00     0.184 HD
HETATM    5  C9  UNL     1      12.791 -12.932 -12.469  1.00  0.00     0.718 A 
HETATM    6  N5  UNL     1      13.541 -13.920 -13.022  1.00  0.00    -0.021 N 
ATOM      7  H5  UNL     1      13.573 -14.844 -12.591  1.00  0.00     0.203 HD
HETATM    8  C10 UNL     1      14.238 -13.673 -14.138  1.00  0.00     0.705 A 
HETATM    9  N6  UNL     1      14.960 -14.606 -14.679  1.00  0.00    -0.234 N 
ATOM     10  H61 UNL     1      15.491 -14.418 -15.530  1.00  0.00     0.174 HD
ATOM     11  H62 UNL     1      15.026 -15.546 -14.290  1.00  0.00     0.174 HD
HETATM   12  N7  UNL     1      14.152 -12.445 -14.646  1.00  0.00    -0.020 N 
ATOM     13  H7  UNL     1      14.679 -12.241 -15.496  1.00  0.00     0.203 HD
HETATM   14  C11 UNL     1      13.402 -11.442 -14.102  1.00  0.00     0.732 A 
HETATM   15  N10 UNL     1      12.695 -11.692 -12.976  1.00  0.00     0.023 N 
ENDROOT
BRANCH   1  16
HETATM   16  C5  UNL     1      11.513  -9.554 -12.382  1.00  0.00     0.063 C 
BRANCH  16  17
HETATM   17  C4  UNL     1      12.379  -8.492 -11.766  1.00  0.00     0.027 C 
BRANCH  17  18
HETATM   18  C3  UNL     1      12.226  -7.112 -12.328  1.00  0.00     0.149 C 
BRANCH  18  19
HETATM   19  N3  UNL     1      12.782  -7.010 -13.662  1.00  0.00    -0.255 N 
HETATM   20  C2  UNL     1      12.260  -6.493 -14.788  1.00  0.00     0.115 A 
HETATM   21  C1  UNL     1      10.925  -5.885 -14.903  1.00  0.00     0.092 C 
HETATM   22  N1  UNL     1      13.171  -6.639 -15.753  1.00  0.00    -0.231 N 
HETATM   23  O1  UNL     1      14.207  -7.220 -15.241  1.00  0.00    -0.141 OA
ATOM     24  H1  UNL     1      13.068  -6.343 -16.724  1.00  0.00     0.197 HD
HETATM   25  N2  UNL     1      13.983  -7.445 -13.995  1.00  0.00     0.051 NA
ENDBRANCH  18  19
ENDBRANCH  17  18
ENDBRANCH  16  17
ENDBRANCH   1  16
BRANCH   2  26
HETATM   26  C8  UNL     1      10.622 -11.540  -9.962  1.00  0.00     0.307 C 
BRANCH  26  27
HETATM   27  O2  UNL     1       9.969 -12.577  -9.411  1.00  0.00    -0.366 OA
ATOM     28  H2  UNL     1      10.218 -12.901  -8.553  1.00  0.00     0.213 HD
ENDBRANCH  26  27
BRANCH  26  29
HETATM   29  O3  UNL     1      11.369 -10.804  -9.005  1.00  0.00    -0.366 OA
ATOM     30  H3  UNL     1      11.027 -11.003  -8.141  1.00  0.00     0.213 HD
ENDBRANCH  26  29
ENDBRANCH   2  26
BRANCH  14  31
HETATM   31  N8  UNL     1      13.402 -10.287 -14.635  1.00  0.00    -0.137 N 
ATOM     32  H8  UNL     1      13.120  -9.506 -14.042  1.00  0.00     0.205 HD
BRANCH  31  33
HETATM   33  N9  UNL     1      13.744  -9.991 -15.932  1.00  0.00    -0.331 N 
ATOM     34  H92 UNL     1      14.439 -10.604 -16.357  1.00  0.00     0.177 HD
ATOM     35  H91 UNL     1      13.370  -9.227 -16.494  1.00  0.00     0.177 HD
ENDBRANCH  31  33
ENDBRANCH  14  31
TORSDOF 9
ENDMDL
MODEL 2
REMARK VINA RESULT: -7.157835920      1.712      1.923
REMARK  9 active torsions:
REMARK  status: ('A' for Active; 'I' for Inactive)
REMARK    1  A    between atoms: N3_7  and  C3_8 
REMARK    2  A    between atoms: C3_8  and  C4_9 
REMARK    3  A    between atoms: C4_9  and  C5_10 
REMARK    4  A    between atoms: C5_10  and  C6_11 
REMARK    5  A    between atoms: C7_12  and  C8_13 
REMARK    6  A    between atoms: C8_13  and  O2_14 
REMARK    7  A    between atoms: C8_13  and  O3_16 
REMARK    8  A    between atoms: C11_29  and  N8_30 
REMARK    9  A    between atoms: N8_30  and  N9_32 
ROOT
HETATM    1  C6  UNL     1      11.310 -10.527 -12.561  1.00  0.00     0.081 A 
HETATM    2  C7  UNL     1      10.672 -11.273 -11.594  1.00  0.00     0.105 A 
HETATM    3  N4  UNL     1      11.310 -12.481 -11.603  1.00  0.00    -0.187 N 
ATOM      4  H4  UNL     1      11.068 -13.263 -10.993  1.00  0.00     0.184 HD
HETATM    5  C9  UNL     1      12.288 -12.512 -12.505  1.00  0.00     0.718 A 
HETATM    6  N5  UNL     1      13.155 -13.514 -12.808  1.00  0.00    -0.021 N 
ATOM      7  H5  UNL     1      13.097 -14.409 -12.321  1.00  0.00     0.203 HD
HETATM    8  C10 UNL     1      14.085 -13.318 -13.751  1.00  0.00     0.705 A 
HETATM    9  N6  UNL     1      14.920 -14.265 -14.052  1.00  0.00    -0.234 N 
ATOM     10  H61 UNL     1      15.629 -14.116 -14.771  1.00  0.00     0.174 HD
ATOM     11  H62 UNL     1      14.905 -15.178 -13.597  1.00  0.00     0.174 HD
HETATM   12  N7  UNL     1      14.104 -12.127 -14.344  1.00  0.00    -0.020 N 
ATOM     13  H7  UNL     1      14.808 -11.962 -15.064  1.00  0.00     0.203 HD
HETATM   14  C11 UNL     1      13.239 -11.111 -14.051  1.00  0.00     0.732 A 
HETATM   15  N10 UNL     1      12.297 -11.308 -13.101  1.00  0.00     0.023 N 
ENDROOT
BRANCH   1  16
HETATM   16  C5  UNL     1      10.989  -9.168 -12.930  1.00  0.00     0.063 C 
BRANCH  16  17
HETATM   17  C4  UNL     1      11.506  -8.053 -12.066  1.00  0.00     0.027 C 
BRANCH  17  18
HETATM   18  C3  UNL     1      12.212  -6.941 -12.781  1.00  0.00     0.149 C 
BRANCH  18  19
HETATM   19  N3  UNL     1      11.303  -6.171 -13.606  1.00  0.00    -0.255 N 
HETATM   20  C2  UNL     1      11.297  -5.958 -14.933  1.00  0.00     0.115 A 
HETATM   21  C1  UNL     1      12.280  -6.502 -15.884  1.00  0.00     0.092 C 
HETATM   22  N1  UNL     1      10.249  -5.177 -15.208  1.00  0.00    -0.231 N 
HETATM   23  O1  UNL     1       9.640  -4.922 -14.096  1.00  0.00    -0.141 OA
ATOM     24  H1  UNL     1       9.977  -4.842 -16.131  1.00  0.00     0.197 HD
HETATM   25  N2  UNL     1      10.261  -5.510 -13.137  1.00  0.00     0.051 NA
ENDBRANCH  18  19
ENDBRANCH  17  18
ENDBRANCH  16  17
ENDBRANCH   1  16
BRANCH   2  26
HETATM   26  C8  UNL     1       9.592 -11.024 -10.651  1.00  0.00     0.307 C 
BRANCH  26  27
HETATM   27  O2  UNL     1       8.430 -10.497 -11.073  1.00  0.00    -0.366 OA
ATOM     28  H2  UNL     1       7.606 -10.922 -10.866  1.00  0.00     0.213 HD
ENDBRANCH  26  27
BRANCH  26  29
HETATM   29  O3  UNL     1       9.399 -12.194  -9.869  1.00  0.00    -0.366 OA
ATOM     30  H3  UNL     1       9.498 -12.951 -10.434  1.00  0.00     0.213 HD
ENDBRANCH  26  29
ENDBRANCH   2  26
BRANCH  14  31
HETATM   31  N8  UNL     1      13.348  -9.991 -14.645  1.00  0.00    -0.137 N 
ATOM     32  H8  UNL     1      13.151  -9.156 -14.093  1.00  0.00     0.205 HD
BRANCH  31  33
HETATM   33  N9  UNL     1      13.707  -9.800 -15.957  1.00  0.00    -0.331 N 
ATOM     34  H92 UNL     1      13.257 -10.416 -16.634  1.00  0.00     0.177 HD
ATOM     35  H91 UNL     1      14.370  -9.108 -16.305  1.00  0.00     0.177 HD
ENDBRANCH  31  33
ENDBRANCH  14  31
TORSDOF 9
ENDMDL
MODEL 3
REMARK VINA RESULT: -7.003950982      3.036      6.688
REMARK  9 active torsions:
REMARK  status: ('A' for Active; 'I' for Inactive)
REMARK    1  A    between atoms: N3_7  and  C3_8 
REMARK    2  A    between atoms: C3_8  and  C4_9 
REMARK    3  A    between atoms: C4_9  and  C5_10 
REMARK    4  A    between atoms: C5_10  and  C6_11 
REMARK    5  A    between atoms: C7_12  and  C8_13 
REMARK    6  A    between atoms: C8_13  and  O2_14 
REMARK    7  A    between atoms: C8_13  and  O3_16 
REMARK    8  A    between atoms: C11_29  and  N8_30 
REMARK    9  A    between atoms: N8_30  and  N9_32 
ROOT
HETATM    1  C6  UNL     1      12.826 -10.157 -13.085  1.00  0.00     0.081 A 
HETATM    2  C7  UNL     1      12.724  -9.183 -14.055  1.00  0.00     0.105 A 
HETATM    3  N4  UNL     1      11.632  -8.443 -13.696  1.00  0.00    -0.187 N 
ATOM      4  H4  UNL     1      11.289  -7.637 -14.220  1.00  0.00     0.184 HD
HETATM    5  C9  UNL     1      11.074  -8.902 -12.580  1.00  0.00     0.718 A 
HETATM    6  N5  UNL     1       9.993  -8.438 -11.898  1.00  0.00    -0.021 N 
ATOM      7  H5  UNL     1       9.476  -7.630 -12.243  1.00  0.00     0.203 HD
HETATM    8  C10 UNL     1       9.613  -9.052 -10.771  1.00  0.00     0.705 A 
HETATM    9  N6  UNL     1       8.582  -8.621 -10.108  1.00  0.00    -0.234 N 
ATOM     10  H61 UNL     1       8.292  -9.089  -9.249  1.00  0.00     0.174 HD
ATOM     11  H62 UNL     1       8.030  -7.819 -10.409  1.00  0.00     0.174 HD
HETATM   12  N7  UNL     1      10.333 -10.100 -10.378  1.00  0.00    -0.020 N 
ATOM     13  H7  UNL     1      10.056 -10.576  -9.520  1.00  0.00     0.203 HD
HETATM   14  C11 UNL     1      11.421 -10.577 -11.052  1.00  0.00     0.732 A 
HETATM   15  N10 UNL     1      11.805  -9.960 -12.193  1.00  0.00     0.023 N 
ENDROOT
BRANCH   1  16
HETATM   16  C5  UNL     1      13.830 -11.193 -13.029  1.00  0.00     0.063 C 
BRANCH  16  17
HETATM   17  C4  UNL     1      13.719 -12.347 -13.985  1.00  0.00     0.027 C 
BRANCH  17  18
HETATM   18  C3  UNL     1      13.959 -13.707 -13.404  1.00  0.00     0.149 C 
BRANCH  18  19
HETATM   19  N3  UNL     1      15.196 -14.287 -13.885  1.00  0.00    -0.255 N 
HETATM   20  C2  UNL     1      15.486 -14.878 -15.057  1.00  0.00     0.115 A 
HETATM   21  C1  UNL     1      14.537 -15.071 -16.167  1.00  0.00     0.092 C 
HETATM   22  N1  UNL     1      16.769 -15.245 -15.015  1.00  0.00    -0.231 N 
HETATM   23  O1  UNL     1      17.246 -14.893 -13.865  1.00  0.00    -0.141 OA
ATOM     24  H1  UNL     1      17.282 -15.718 -15.757  1.00  0.00     0.197 HD
HETATM   25  N2  UNL     1      16.315 -14.322 -13.186  1.00  0.00     0.051 NA
ENDBRANCH  18  19
ENDBRANCH  17  18
ENDBRANCH  16  17
ENDBRANCH   1  16
BRANCH   2  26
HETATM   26  C8  UNL     1      13.499  -8.821 -15.232  1.00  0.00     0.307 C 
BRANCH  26  27
HETATM   27  O2  UNL     1      13.633  -9.688 -16.250  1.00  0.00    -0.366 OA
ATOM     28  H2  UNL     1      14.472  -9.797 -16.681  1.00  0.00     0.213 HD
ENDBRANCH  26  27
BRANCH  26  29
HETATM   29  O3  UNL     1      13.075  -7.538 -15.670  1.00  0.00    -0.366 OA
ATOM     30  H3  UNL     1      13.714  -7.207 -16.291  1.00  0.00     0.213 HD
ENDBRANCH  26  29
ENDBRANCH   2  26
BRANCH  14  31
HETATM   31  N8  UNL     1      12.074 -11.566 -10.588  1.00  0.00    -0.137 N 
ATOM     32  H8  UNL     1      12.951 -11.356 -10.110  1.00  0.00     0.205 HD
BRANCH  31  33
HETATM   33  N9  UNL     1      11.711 -12.888 -10.670  1.00  0.00    -0.331 N 
ATOM     34  H92 UNL     1      10.831 -13.077 -11.150  1.00  0.00     0.177 HD
ATOM     35  H91 UNL     1      12.236 -13.680 -10.300  1.00  0.00     0.177 HD
ENDBRANCH  31  33
ENDBRANCH  14  31
TORSDOF 9
ENDMDL
MODEL 4
REMARK VINA RESULT: -6.994504199      2.291      5.745
REMARK  9 active torsions:
REMARK  status: ('A' for Active; 'I' for Inactive)
REMARK    1  A    between atoms: N3_7  and  C3_8 
REMARK    2  A    between atoms: C3_8  and  C4_9 
REMARK    3  A    between atoms: C4_9  and  C5_10 
REMARK    4  A    between atoms: C5_10  and  C6_11 
REMARK    5  A    between atoms: C7_12  and  C8_13 
REMARK    6  A    between atoms: C8_13  and  O2_14 
REMARK    7  A    between atoms: C8_13  and  O3_16 
REMARK    8  A    between atoms: C11_29  and  N8_30 
REMARK    9  A    between atoms: N8_30  and  N9_32 
ROOT
HETATM    1  C6  UNL     1      12.720 -10.525 -12.753  1.00  0.00     0.081 A 
HETATM    2  C7  UNL     1      11.872 -10.402 -11.673  1.00  0.00     0.105 A 
HETATM    3  N4  UNL     1      11.200  -9.231 -11.886  1.00  0.00    -0.187 N 
ATOM      4  H4  UNL     1      10.492  -8.854 -11.255  1.00  0.00     0.184 HD
HETATM    5  C9  UNL     1      11.582  -8.644 -13.017  1.00  0.00     0.718 A 
HETATM    6  N5  UNL     1      11.148  -7.487 -13.581  1.00  0.00    -0.021 N 
ATOM      7  H5  UNL     1      10.433  -6.926 -13.119  1.00  0.00     0.203 HD
HETATM    8  C10 UNL     1      11.665  -7.090 -14.750  1.00  0.00     0.705 A 
HETATM    9  N6  UNL     1      11.261  -5.987 -15.303  1.00  0.00    -0.234 N 
ATOM     10  H61 UNL     1      11.656  -5.683 -16.194  1.00  0.00     0.174 HD
ATOM     11  H62 UNL     1      10.551  -5.388 -14.883  1.00  0.00     0.174 HD
HETATM   12  N7  UNL     1      12.593  -7.871 -15.299  1.00  0.00    -0.020 N 
ATOM     13  H7  UNL     1      12.996  -7.581 -16.191  1.00  0.00     0.203 HD
HETATM   14  C11 UNL     1      13.041  -9.035 -14.743  1.00  0.00     0.732 A 
HETATM   15  N10 UNL     1      12.521  -9.437 -13.561  1.00  0.00     0.023 N 
ENDROOT
BRANCH   1  16
HETATM   16  C5  UNL     1      13.648 -11.608 -12.981  1.00  0.00     0.063 C 
BRANCH  16  17
HETATM   17  C4  UNL     1      13.157 -12.825 -13.714  1.00  0.00     0.027 C 
BRANCH  17  18
HETATM   18  C3  UNL     1      13.674 -14.141 -13.220  1.00  0.00     0.149 C 
BRANCH  18  19
HETATM   19  N3  UNL     1      14.986 -14.439 -13.756  1.00  0.00    -0.255 N 
HETATM   20  C2  UNL     1      15.357 -14.840 -14.984  1.00  0.00     0.115 A 
HETATM   21  C1  UNL     1      14.441 -15.076 -16.112  1.00  0.00     0.092 C 
HETATM   22  N1  UNL     1      16.686 -14.977 -14.976  1.00  0.00    -0.231 N 
HETATM   23  O1  UNL     1      17.111 -14.673 -13.793  1.00  0.00    -0.141 OA
ATOM     24  H1  UNL     1      17.263 -15.270 -15.764  1.00  0.00     0.197 HD
HETATM   25  N2  UNL     1      16.105 -14.351 -13.060  1.00  0.00     0.051 NA
ENDBRANCH  18  19
ENDBRANCH  17  18
ENDBRANCH  16  17
ENDBRANCH   1  16
BRANCH   2  26
HETATM   26  C8  UNL     1      11.572 -11.216 -10.505  1.00  0.00     0.307 C 
BRANCH  26  27
HETATM   27  O2  UNL     1      11.309 -12.527 -10.641  1.00  0.00    -0.366 OA
ATOM     28  H2  UNL     1      12.015 -13.145 -10.792  1.00  0.00     0.213 HD
ENDBRANCH  26  27
BRANCH  26  29
HETATM   29  O3  UNL     1      12.561 -10.965  -9.517  1.00  0.00    -0.366 OA
ATOM     30  H3  UNL     1      13.191 -11.676  -9.536  1.00  0.00     0.213 HD
ENDBRANCH  26  29
ENDBRANCH   2  26
BRANCH  14  31
HETATM   31  N8  UNL     1      13.908  -9.739 -15.352  1.00  0.00    -0.137 N 
ATOM     32  H8  UNL     1      14.712 -10.053 -14.807  1.00  0.00     0.205 HD
BRANCH  31  33
HETATM   33  N9  UNL     1      13.865 -10.116 -16.672  1.00  0.00    -0.331 N 
ATOM     34  H92 UNL     1      13.013  -9.870 -17.176  1.00  0.00     0.177 HD
ATOM     35  H91 UNL     1      14.598 -10.611 -17.181  1.00  0.00     0.177 HD
ENDBRANCH  31  33
ENDBRANCH  14  31
TORSDOF 9
ENDMDL
MODEL 5
REMARK VINA RESULT: -6.945143409      1.571      1.944
REMARK  9 active torsions:
REMARK  status: ('A' for Active; 'I' for Inactive)
REMARK    1  A    between atoms: N3_7  and  C3_8 
REMARK    2  A    between atoms: C3_8  and  C4_9 
REMARK    3  A    between atoms: C4_9  and  C5_10 
REMARK    4  A    between atoms: C5_10  and  C6_11 
REMARK    5  A    between atoms: C7_12  and  C8_13 
REMARK    6  A    between atoms: C8_13  and  O2_14 
REMARK    7  A    between atoms: C8_13  and  O3_16 
REMARK    8  A    between atoms: C11_29  and  N8_30 
REMARK    9  A    between atoms: N8_30  and  N9_32 
ROOT
HETATM    1  C6  UNL     1      10.782  -9.601 -11.968  1.00  0.00     0.081 A 
HETATM    2  C7  UNL     1       9.959 -10.126 -10.995  1.00  0.00     0.105 A 
HETATM    3  N4  UNL     1      10.242 -11.463 -10.978  1.00  0.00    -0.187 N 
ATOM      4  H4  UNL     1       9.793 -12.136 -10.358  1.00  0.00     0.184 HD
HETATM    5  C9  UNL     1      11.178 -11.777 -11.870  1.00  0.00     0.718 A 
HETATM    6  N5  UNL     1      11.738 -12.983 -12.149  1.00  0.00    -0.021 N 
ATOM      7  H5  UNL     1      11.435 -13.819 -11.648  1.00  0.00     0.203 HD
HETATM    8  C10 UNL     1      12.690 -13.067 -13.087  1.00  0.00     0.705 A 
HETATM    9  N6  UNL     1      13.234 -14.212 -13.365  1.00  0.00    -0.234 N 
ATOM     10  H61 UNL     1      13.960 -14.276 -14.080  1.00  0.00     0.174 HD
ATOM     11  H62 UNL     1      12.968 -15.077 -12.896  1.00  0.00     0.174 HD
HETATM   12  N7  UNL     1      13.037 -11.938 -13.700  1.00  0.00    -0.020 N 
ATOM     13  H7  UNL     1      13.762 -11.985 -14.416  1.00  0.00     0.203 HD
HETATM   14  C11 UNL     1      12.483 -10.719 -13.431  1.00  0.00     0.732 A 
HETATM   15  N10 UNL     1      11.519 -10.633 -12.486  1.00  0.00     0.023 N 
ENDROOT
BRANCH   1  16
HETATM   16  C5  UNL     1      10.848  -8.213 -12.363  1.00  0.00     0.063 C 
BRANCH  16  17
HETATM   17  C4  UNL     1      11.827  -7.317 -11.659  1.00  0.00     0.027 C 
BRANCH  17  18
HETATM   18  C3  UNL     1      12.095  -5.996 -12.313  1.00  0.00     0.149 C 
BRANCH  18  19
HETATM   19  N3  UNL     1      12.337  -6.138 -13.734  1.00  0.00    -0.255 N 
HETATM   20  C2  UNL     1      11.601  -5.747 -14.789  1.00  0.00     0.115 A 
HETATM   21  C1  UNL     1      10.309  -5.046 -14.708  1.00  0.00     0.092 C 
HETATM   22  N1  UNL     1      12.259  -6.111 -15.892  1.00  0.00    -0.231 N 
HETATM   23  O1  UNL     1      13.351  -6.701 -15.529  1.00  0.00    -0.141 OA
ATOM     24  H1  UNL     1      11.954  -5.952 -16.852  1.00  0.00     0.197 HD
HETATM   25  N2  UNL     1      13.405  -6.721 -14.245  1.00  0.00     0.051 NA
ENDBRANCH  18  19
ENDBRANCH  17  18
ENDBRANCH  16  17
ENDBRANCH   1  16
BRANCH   2  26
HETATM   26  C8  UNL     1       8.986  -9.573 -10.065  1.00  0.00     0.307 C 
BRANCH  26  27
HETATM   27  O2  UNL     1       8.437  -8.367 -10.295  1.00  0.00    -0.366 OA
ATOM     28  H2  UNL     1       8.357  -7.734  -9.591  1.00  0.00     0.213 HD
ENDBRANCH  26  27
BRANCH  26  29
HETATM   29  O3  UNL     1       8.007 -10.567  -9.796  1.00  0.00    -0.366 OA
ATOM     30  H3  UNL     1       7.280 -10.157  -9.344  1.00  0.00     0.213 HD
ENDBRANCH  26  29
ENDBRANCH   2  26
BRANCH  14  31
HETATM   31  N8  UNL     1      12.898  -9.682 -14.042  1.00  0.00    -0.137 N 
ATOM     32  H8  UNL     1      12.817  -8.793 -13.549  1.00  0.00     0.205 HD
BRANCH  31  33
HETATM   33  N9  UNL     1      13.444  -9.647 -15.302  1.00  0.00    -0.331 N 
ATOM     34  H92 UNL     1      14.323 -10.150 -15.418  1.00  0.00     0.177 HD
ATOM     35  H91 UNL     1      13.052  -9.171 -16.115  1.00  0.00     0.177 HD
ENDBRANCH  31  33
ENDBRANCH  14  31
TORSDOF 9
ENDMDL
