MODEL 1
REMARK VINA RESULT: -10.401756007      0.000      0.000
REMARK  11 active torsions:
REMARK  status: ('A' for Active; 'I' for Inactive)
REMARK    1  A    between atoms: C2_2  and  C3_3 
REMARK    2  A    between atoms: C5_5  and  C6_6 
REMARK    3  A    between atoms: C6_6  and  N1_7 
REMARK    4  A    between atoms: N1_7  and  C7_8 
REMARK    5  A    between atoms: N1_7  and  C20_27 
REMARK    6  A    between atoms: C7_8  and  C8_9 
REMARK    7  A    between atoms: C8_9  and  C9_10 
REMARK    8  A    between atoms: N2_11  and  C10_13 
REMARK    9  A    between atoms: C20_27  and  C21_28 
REMARK   10  A    between atoms: C28_38  and  O1_39 
REMARK   11  A    between atoms: C30_41  and  O2_42 
ROOT
HETATM    1  C10 UNL     1     -18.742  18.378  17.878  1.00  0.00     0.066 A 
HETATM    2  C11 UNL     1     -19.528  18.117  19.024  1.00  0.00     0.087 A 
HETATM    3  C12 UNL     1     -19.250  18.802  20.256  1.00  0.00     0.103 C 
HETATM    4  N3  UNL     1     -19.042  19.355  21.266  1.00  0.00    -0.191 NA
HETATM    5  C13 UNL     1     -20.544  17.211  18.939  1.00  0.00     0.113 A 
HETATM    6  N4  UNL     1     -20.803  16.572  17.789  1.00  0.00    -0.364 N 
ATOM      7  H4  UNL     1     -21.569  15.899  17.748  1.00  0.00     0.165 HD
HETATM    8  C14 UNL     1     -20.074  16.804  16.699  1.00  0.00     0.046 A 
HETATM    9  C15 UNL     1     -20.420  16.089  15.549  1.00  0.00     0.054 A 
HETATM   10  C16 UNL     1     -19.720  16.268  14.375  1.00  0.00     0.036 A 
HETATM   11 CL1  UNL     1     -20.133  15.381  12.908  1.00  0.00    -0.084 Cl
HETATM   12  C17 UNL     1     -18.682  17.172  14.403  1.00  0.00     0.025 A 
HETATM   13  C18 UNL     1     -18.329  17.883  15.531  1.00  0.00     0.018 A 
HETATM   14  C19 UNL     1     -19.033  17.700  16.697  1.00  0.00     0.019 A 
ENDROOT
BRANCH   1  15
HETATM   15  N2  UNL     1     -17.849  19.183  17.976  1.00  0.00    -0.367 N 
HETATM   16  C9  UNL     1     -17.234  20.374  18.108  1.00  0.00     0.063 C 
ATOM     17  H2  UNL     1     -17.040  18.565  17.931  1.00  0.00     0.165 HD
BRANCH  16  18
HETATM   18  C8  UNL     1     -17.004  21.165  16.813  1.00  0.00     0.064 C 
BRANCH  18  19
HETATM   19  C7  UNL     1     -15.894  20.529  16.003  1.00  0.00     0.122 C 
BRANCH  19  20
HETATM   20  N1  UNL     1     -14.816  21.410  15.737  1.00  0.00    -0.404 N 
BRANCH  20  21
HETATM   21  C6  UNL     1     -13.647  21.205  16.511  1.00  0.00     0.156 C 
BRANCH  21  22
HETATM   22  C5  UNL     1     -13.364  22.401  17.333  1.00  0.00    -0.037 A 
HETATM   23  C4  UNL     1     -14.273  22.786  18.286  1.00  0.00     0.019 A 
HETATM   24  C3  UNL     1     -14.079  23.900  19.090  1.00  0.00    -0.022 A 
HETATM   25  C30 UNL     1     -12.919  24.610  18.886  1.00  0.00     0.107 A 
HETATM   26  C28 UNL     1     -11.969  24.261  17.935  1.00  0.00     0.102 A 
HETATM   27  C27 UNL     1     -12.217  23.128  17.151  1.00  0.00     0.048 A 
BRANCH  24  28
HETATM   28  C2  UNL     1     -15.105  24.255  20.103  1.00  0.00     0.037 C 
HETATM   29  C1  UNL     1     -14.893  23.597  21.429  1.00  0.00     0.010 C 
ENDBRANCH  24  28
BRANCH  25  30
HETATM   30  O2  UNL     1     -12.666  25.732  19.654  1.00  0.00    -0.353 OA
HETATM   31  C31 UNL     1     -12.080  25.726  20.927  1.00  0.00     0.210 C 
ENDBRANCH  25  30
BRANCH  26  32
HETATM   32  O1  UNL     1     -10.822  25.011  17.772  1.00  0.00    -0.353 OA
HETATM   33  C29 UNL     1     -10.575  25.651  16.550  1.00  0.00     0.210 C 
ENDBRANCH  26  32
ENDBRANCH  21  22
ENDBRANCH  20  21
BRANCH  20  34
HETATM   34  C20 UNL     1     -14.634  21.651  14.343  1.00  0.00     0.156 C 
BRANCH  34  35
HETATM   35  C21 UNL     1     -13.395  22.376  13.990  1.00  0.00    -0.037 A 
HETATM   36  C22 UNL     1     -13.455  23.737  13.816  1.00  0.00     0.034 A 
HETATM   37  C23 UNL     1     -12.301  24.413  13.487  1.00  0.00     0.060 A 
HETATM   38 CL2  UNL     1     -12.343  26.163  13.255  1.00  0.00    -0.082 Cl
HETATM   39  C24 UNL     1     -11.084  23.786  13.323  1.00  0.00     0.089 A 
HETATM   40  N5  UNL     1      -9.912  24.505  12.984  1.00  0.00    -0.099 NA
HETATM   41  C25 UNL     1     -11.026  22.413  13.500  1.00  0.00     0.060 A 
HETATM   42 CL3  UNL     1      -9.484  21.601  13.295  1.00  0.00    -0.082 Cl
HETATM   43  C26 UNL     1     -12.186  21.734  13.830  1.00  0.00     0.034 A 
ENDBRANCH  34  35
ENDBRANCH  20  34
ENDBRANCH  19  20
ENDBRANCH  18  19
ENDBRANCH  16  18
ENDBRANCH   1  15
TORSDOF 11
ENDMDL
MODEL 2
REMARK VINA RESULT: -10.398977757      0.061      1.402
REMARK  11 active torsions:
REMARK  status: ('A' for Active; 'I' for Inactive)
REMARK    1  A    between atoms: C2_2  and  C3_3 
REMARK    2  A    between atoms: C5_5  and  C6_6 
REMARK    3  A    between atoms: C6_6  and  N1_7 
REMARK    4  A    between atoms: N1_7  and  C7_8 
REMARK    5  A    between atoms: N1_7  and  C20_27 
REMARK    6  A    between atoms: C7_8  and  C8_9 
REMARK    7  A    between atoms: C8_9  and  C9_10 
REMARK    8  A    between atoms: N2_11  and  C10_13 
REMARK    9  A    between atoms: C20_27  and  C21_28 
REMARK   10  A    between atoms: C28_38  and  O1_39 
REMARK   11  A    between atoms: C30_41  and  O2_42 
ROOT
HETATM    1  C10 UNL     1     -18.693  18.364  17.889  1.00  0.00     0.066 A 
HETATM    2  C11 UNL     1     -19.470  18.117  19.044  1.00  0.00     0.087 A 
HETATM    3  C12 UNL     1     -19.170  18.800  20.272  1.00  0.00     0.103 C 
HETATM    4  N3  UNL     1     -18.943  19.352  21.278  1.00  0.00    -0.191 NA
HETATM    5  C13 UNL     1     -20.500  17.225  18.971  1.00  0.00     0.113 A 
HETATM    6  N4  UNL     1     -20.780  16.588  17.825  1.00  0.00    -0.364 N 
ATOM      7  H4  UNL     1     -21.556  15.927  17.794  1.00  0.00     0.165 HD
HETATM    8  C14 UNL     1     -20.059  16.807  16.727  1.00  0.00     0.046 A 
HETATM    9  C15 UNL     1     -20.427  16.095  15.583  1.00  0.00     0.054 A 
HETATM   10  C16 UNL     1     -19.737  16.261  14.401  1.00  0.00     0.036 A 
HETATM   11 CL1  UNL     1     -20.179  15.378  12.940  1.00  0.00    -0.084 Cl
HETATM   12  C17 UNL     1     -18.686  17.151  14.417  1.00  0.00     0.025 A 
HETATM   13  C18 UNL     1     -18.311  17.858  15.539  1.00  0.00     0.018 A 
HETATM   14  C19 UNL     1     -19.006  17.687  16.713  1.00  0.00     0.019 A 
ENDROOT
BRANCH   1  15
HETATM   15  N2  UNL     1     -17.787  19.156  17.977  1.00  0.00    -0.367 N 
HETATM   16  C9  UNL     1     -17.152  20.334  18.132  1.00  0.00     0.063 C 
ATOM     17  H2  UNL     1     -16.988  18.534  17.856  1.00  0.00     0.165 HD
BRANCH  16  18
HETATM   18  C8  UNL     1     -16.986  21.186  16.866  1.00  0.00     0.064 C 
BRANCH  18  19
HETATM   19  C7  UNL     1     -15.944  20.570  15.956  1.00  0.00     0.122 C 
BRANCH  19  20
HETATM   20  N1  UNL     1     -14.845  21.428  15.698  1.00  0.00    -0.404 N 
BRANCH  20  21
HETATM   21  C6  UNL     1     -13.688  21.199  16.484  1.00  0.00     0.156 C 
BRANCH  21  22
HETATM   22  C5  UNL     1     -13.392  22.387  17.312  1.00  0.00    -0.037 A 
HETATM   23  C4  UNL     1     -14.306  22.788  18.255  1.00  0.00     0.019 A 
HETATM   24  C3  UNL     1     -14.101  23.895  19.064  1.00  0.00    -0.022 A 
HETATM   25  C30 UNL     1     -12.924  24.582  18.878  1.00  0.00     0.107 A 
HETATM   26  C28 UNL     1     -11.969  24.218  17.939  1.00  0.00     0.102 A 
HETATM   27  C27 UNL     1     -12.228  23.091  17.148  1.00  0.00     0.048 A 
BRANCH  24  28
HETATM   28  C2  UNL     1     -15.132  24.268  20.065  1.00  0.00     0.037 C 
HETATM   29  C1  UNL     1     -14.948  23.605  21.393  1.00  0.00     0.010 C 
ENDBRANCH  24  28
BRANCH  25  30
HETATM   30  O2  UNL     1     -12.658  25.697  19.653  1.00  0.00    -0.353 OA
HETATM   31  C31 UNL     1     -12.076  25.677  20.927  1.00  0.00     0.210 C 
ENDBRANCH  25  30
BRANCH  26  32
HETATM   32  O1  UNL     1     -10.805  24.944  17.793  1.00  0.00    -0.353 OA
HETATM   33  C29 UNL     1     -10.545  25.612  16.588  1.00  0.00     0.210 C 
ENDBRANCH  26  32
ENDBRANCH  21  22
ENDBRANCH  20  21
BRANCH  20  34
HETATM   34  C20 UNL     1     -14.646  21.663  14.306  1.00  0.00     0.156 C 
BRANCH  34  35
HETATM   35  C21 UNL     1     -13.428  22.430  13.970  1.00  0.00    -0.037 A 
HETATM   36  C22 UNL     1     -12.243  21.751  13.818  1.00  0.00     0.034 A 
HETATM   37  C23 UNL     1     -11.107  22.464  13.506  1.00  0.00     0.060 A 
HETATM   38 CL2  UNL     1      -9.569  21.622  13.304  1.00  0.00    -0.082 Cl
HETATM   39  C24 UNL     1     -11.102  23.832  13.337  1.00  0.00     0.089 A 
HETATM   40  N5  UNL     1      -9.919  24.542  13.017  1.00  0.00    -0.099 NA
HETATM   41  C25 UNL     1     -12.298  24.515  13.491  1.00  0.00     0.060 A 
HETATM   42 CL3  UNL     1     -12.307  26.257  13.280  1.00  0.00    -0.082 Cl
HETATM   43  C26 UNL     1     -13.439  23.798  13.805  1.00  0.00     0.034 A 
ENDBRANCH  34  35
ENDBRANCH  20  34
ENDBRANCH  19  20
ENDBRANCH  18  19
ENDBRANCH  16  18
ENDBRANCH   1  15
TORSDOF 11
ENDMDL
MODEL 3
REMARK VINA RESULT: -10.240822632      0.516      2.012
REMARK  11 active torsions:
REMARK  status: ('A' for Active; 'I' for Inactive)
REMARK    1  A    between atoms: C2_2  and  C3_3 
REMARK    2  A    between atoms: C5_5  and  C6_6 
REMARK    3  A    between atoms: C6_6  and  N1_7 
REMARK    4  A    between atoms: N1_7  and  C7_8 
REMARK    5  A    between atoms: N1_7  and  C20_27 
REMARK    6  A    between atoms: C7_8  and  C8_9 
REMARK    7  A    between atoms: C8_9  and  C9_10 
REMARK    8  A    between atoms: N2_11  and  C10_13 
REMARK    9  A    between atoms: C20_27  and  C21_28 
REMARK   10  A    between atoms: C28_38  and  O1_39 
REMARK   11  A    between atoms: C30_41  and  O2_42 
ROOT
HETATM    1  C10 UNL     1     -18.797  18.275  17.827  1.00  0.00     0.066 A 
HETATM    2  C11 UNL     1     -19.565  18.012  18.984  1.00  0.00     0.087 A 
HETATM    3  C12 UNL     1     -19.271  18.696  20.213  1.00  0.00     0.103 C 
HETATM    4  N3  UNL     1     -19.049  19.249  21.220  1.00  0.00    -0.191 NA
HETATM    5  C13 UNL     1     -20.581  17.103  18.913  1.00  0.00     0.113 A 
HETATM    6  N4  UNL     1     -20.855  16.465  17.766  1.00  0.00    -0.364 N 
ATOM      7  H4  UNL     1     -21.620  15.791  17.736  1.00  0.00     0.165 HD
HETATM    8  C14 UNL     1     -20.143  16.699  16.666  1.00  0.00     0.046 A 
HETATM    9  C15 UNL     1     -20.504  15.984  15.521  1.00  0.00     0.054 A 
HETATM   10  C16 UNL     1     -19.821  16.165  14.337  1.00  0.00     0.036 A 
HETATM   11 CL1  UNL     1     -20.254  15.279  12.875  1.00  0.00    -0.084 Cl
HETATM   12  C17 UNL     1     -18.785  17.072  14.351  1.00  0.00     0.025 A 
HETATM   13  C18 UNL     1     -18.417  17.783  15.474  1.00  0.00     0.018 A 
HETATM   14  C19 UNL     1     -19.104  17.597  16.650  1.00  0.00     0.019 A 
ENDROOT
BRANCH   1  15
HETATM   15  N2  UNL     1     -17.904  19.082  17.913  1.00  0.00    -0.367 N 
HETATM   16  C9  UNL     1     -17.289  20.275  18.019  1.00  0.00     0.063 C 
ATOM     17  H2  UNL     1     -17.095  18.462  17.893  1.00  0.00     0.165 HD
BRANCH  16  18
HETATM   18  C8  UNL     1     -17.045  21.031  16.705  1.00  0.00     0.064 C 
BRANCH  18  19
HETATM   19  C7  UNL     1     -15.855  20.441  15.978  1.00  0.00     0.122 C 
BRANCH  19  20
HETATM   20  N1  UNL     1     -14.827  21.384  15.725  1.00  0.00    -0.404 N 
BRANCH  20  21
HETATM   21  C6  UNL     1     -13.644  21.226  16.491  1.00  0.00     0.156 C 
BRANCH  21  22
HETATM   22  C5  UNL     1     -13.447  22.398  17.370  1.00  0.00    -0.037 A 
HETATM   23  C4  UNL     1     -12.294  23.134  17.252  1.00  0.00     0.019 A 
HETATM   24  C3  UNL     1     -12.035  24.241  18.045  1.00  0.00    -0.022 A 
HETATM   25  C30 UNL     1     -12.999  24.574  18.968  1.00  0.00     0.107 A 
HETATM   26  C28 UNL     1     -14.181  23.863  19.126  1.00  0.00     0.102 A 
HETATM   27  C27 UNL     1     -14.390  22.753  18.298  1.00  0.00     0.048 A 
BRANCH  24  28
HETATM   28  C2  UNL     1     -10.767  24.992  17.859  1.00  0.00     0.037 C 
HETATM   29  C1  UNL     1     -10.606  25.569  16.489  1.00  0.00     0.010 C 
ENDBRANCH  24  28
BRANCH  25  30
HETATM   30  O2  UNL     1     -12.803  25.668  19.791  1.00  0.00    -0.353 OA
HETATM   31  C31 UNL     1     -12.134  25.644  21.023  1.00  0.00     0.210 C 
ENDBRANCH  25  30
BRANCH  26  32
HETATM   32  O1  UNL     1     -15.115  24.240  20.069  1.00  0.00    -0.353 OA
HETATM   33  C29 UNL     1     -15.068  23.690  21.357  1.00  0.00     0.210 C 
ENDBRANCH  26  32
ENDBRANCH  21  22
ENDBRANCH  20  21
BRANCH  20  34
HETATM   34  C20 UNL     1     -14.665  21.662  14.336  1.00  0.00     0.156 C 
BRANCH  34  35
HETATM   35  C21 UNL     1     -13.423  22.382  13.983  1.00  0.00    -0.037 A 
HETATM   36  C22 UNL     1     -13.480  23.742  13.797  1.00  0.00     0.034 A 
HETATM   37  C23 UNL     1     -12.324  24.414  13.467  1.00  0.00     0.060 A 
HETATM   38 CL2  UNL     1     -12.363  26.162  13.221  1.00  0.00    -0.082 Cl
HETATM   39  C24 UNL     1     -11.107  23.784  13.314  1.00  0.00     0.089 A 
HETATM   40  N5  UNL     1      -9.933  24.498  12.974  1.00  0.00    -0.099 NA
HETATM   41  C25 UNL     1     -11.052  22.412  13.502  1.00  0.00     0.060 A 
HETATM   42 CL3  UNL     1      -9.511  21.596  13.310  1.00  0.00    -0.082 Cl
HETATM   43  C26 UNL     1     -12.215  21.738  13.833  1.00  0.00     0.034 A 
ENDBRANCH  34  35
ENDBRANCH  20  34
ENDBRANCH  19  20
ENDBRANCH  18  19
ENDBRANCH  16  18
ENDBRANCH   1  15
TORSDOF 11
ENDMDL
MODEL 4
REMARK VINA RESULT: -10.215285492      0.916      2.556
REMARK  11 active torsions:
REMARK  status: ('A' for Active; 'I' for Inactive)
REMARK    1  A    between atoms: C2_2  and  C3_3 
REMARK    2  A    between atoms: C5_5  and  C6_6 
REMARK    3  A    between atoms: C6_6  and  N1_7 
REMARK    4  A    between atoms: N1_7  and  C7_8 
REMARK    5  A    between atoms: N1_7  and  C20_27 
REMARK    6  A    between atoms: C7_8  and  C8_9 
REMARK    7  A    between atoms: C8_9  and  C9_10 
REMARK    8  A    between atoms: N2_11  and  C10_13 
REMARK    9  A    between atoms: C20_27  and  C21_28 
REMARK   10  A    between atoms: C28_38  and  O1_39 
REMARK   11  A    between atoms: C30_41  and  O2_42 
ROOT
HETATM    1  C10 UNL     1     -19.505  17.865  17.579  1.00  0.00     0.066 A 
HETATM    2  C11 UNL     1     -20.203  17.427  18.728  1.00  0.00     0.087 A 
HETATM    3  C12 UNL     1     -19.997  18.084  19.988  1.00  0.00     0.103 C 
HETATM    4  N3  UNL     1     -19.845  18.612  21.021  1.00  0.00    -0.191 NA
HETATM    5  C13 UNL     1     -21.068  16.377  18.618  1.00  0.00     0.113 A 
HETATM    6  N4  UNL     1     -21.261  15.763  17.441  1.00  0.00    -0.364 N 
ATOM      7  H4  UNL     1     -21.913  14.982  17.382  1.00  0.00     0.165 HD
HETATM    8  C14 UNL     1     -20.612  16.161  16.348  1.00  0.00     0.046 A 
HETATM    9  C15 UNL     1     -20.878  15.459  15.170  1.00  0.00     0.054 A 
HETATM   10  C16 UNL     1     -20.253  15.804  13.991  1.00  0.00     0.036 A 
HETATM   11 CL1  UNL     1     -20.569  14.938  12.488  1.00  0.00    -0.084 Cl
HETATM   12  C17 UNL     1     -19.368  16.859  14.044  1.00  0.00     0.025 A 
HETATM   13  C18 UNL     1     -19.095  17.559  15.199  1.00  0.00     0.018 A 
HETATM   14  C19 UNL     1     -19.724  17.209  16.370  1.00  0.00     0.019 A 
ENDROOT
BRANCH   1  15
HETATM   15  N2  UNL     1     -18.746  18.795  17.700  1.00  0.00    -0.367 N 
HETATM   16  C9  UNL     1     -18.066  19.916  17.393  1.00  0.00     0.063 C 
ATOM     17  H2  UNL     1     -18.390  18.619  18.640  1.00  0.00     0.165 HD
BRANCH  16  18
HETATM   18  C8  UNL     1     -16.763  19.722  16.604  1.00  0.00     0.064 C 
BRANCH  18  19
HETATM   19  C7  UNL     1     -16.389  21.006  15.893  1.00  0.00     0.122 C 
BRANCH  19  20
HETATM   20  N1  UNL     1     -14.995  21.267  15.899  1.00  0.00    -0.404 N 
BRANCH  20  21
HETATM   21  C6  UNL     1     -14.315  20.951  17.102  1.00  0.00     0.156 C 
BRANCH  21  22
HETATM   22  C5  UNL     1     -13.923  22.191  17.805  1.00  0.00    -0.037 A 
HETATM   23  C4  UNL     1     -12.723  22.782  17.497  1.00  0.00     0.019 A 
HETATM   24  C3  UNL     1     -12.284  23.942  18.118  1.00  0.00    -0.022 A 
HETATM   25  C30 UNL     1     -13.118  24.481  19.070  1.00  0.00     0.107 A 
HETATM   26  C28 UNL     1     -14.340  23.922  19.418  1.00  0.00     0.102 A 
HETATM   27  C27 UNL     1     -14.732  22.751  18.759  1.00  0.00     0.048 A 
BRANCH  24  28
HETATM   28  C2  UNL     1     -10.976  24.528  17.730  1.00  0.00     0.037 C 
HETATM   29  C1  UNL     1     -10.165  23.647  16.834  1.00  0.00     0.010 C 
ENDBRANCH  24  28
BRANCH  25  30
HETATM   30  O2  UNL     1     -12.739  25.638  19.728  1.00  0.00    -0.353 OA
HETATM   31  C31 UNL     1     -12.092  25.687  20.970  1.00  0.00     0.210 C 
ENDBRANCH  25  30
BRANCH  26  32
HETATM   32  O1  UNL     1     -15.137  24.504  20.382  1.00  0.00    -0.353 OA
HETATM   33  C29 UNL     1     -15.220  23.932  21.659  1.00  0.00     0.210 C 
ENDBRANCH  26  32
ENDBRANCH  21  22
ENDBRANCH  20  21
BRANCH  20  34
HETATM   34  C20 UNL     1     -14.360  20.890  14.679  1.00  0.00     0.156 C 
BRANCH  34  35
HETATM   35  C21 UNL     1     -13.274  21.791  14.236  1.00  0.00    -0.037 A 
HETATM   36  C22 UNL     1     -12.011  21.272  14.078  1.00  0.00     0.034 A 
HETATM   37  C23 UNL     1     -10.999  22.109  13.666  1.00  0.00     0.060 A 
HETATM   38 CL2  UNL     1      -9.365  21.474  13.453  1.00  0.00    -0.082 Cl
HETATM   39  C24 UNL     1     -11.192  23.449  13.405  1.00  0.00     0.089 A 
HETATM   40  N5  UNL     1     -10.133  24.290  12.983  1.00  0.00    -0.099 NA
HETATM   41  C25 UNL     1     -12.466  23.970  13.565  1.00  0.00     0.060 A 
HETATM   42 CL3  UNL     1     -12.728  25.674  13.236  1.00  0.00    -0.082 Cl
HETATM   43  C26 UNL     1     -13.483  23.127  13.979  1.00  0.00     0.034 A 
ENDBRANCH  34  35
ENDBRANCH  20  34
ENDBRANCH  19  20
ENDBRANCH  18  19
ENDBRANCH  16  18
ENDBRANCH   1  15
TORSDOF 11
ENDMDL
MODEL 5
REMARK VINA RESULT: -10.174856790      1.846      2.928
REMARK  11 active torsions:
REMARK  status: ('A' for Active; 'I' for Inactive)
REMARK    1  A    between atoms: C2_2  and  C3_3 
REMARK    2  A    between atoms: C5_5  and  C6_6 
REMARK    3  A    between atoms: C6_6  and  N1_7 
REMARK    4  A    between atoms: N1_7  and  C7_8 
REMARK    5  A    between atoms: N1_7  and  C20_27 
REMARK    6  A    between atoms: C7_8  and  C8_9 
REMARK    7  A    between atoms: C8_9  and  C9_10 
REMARK    8  A    between atoms: N2_11  and  C10_13 
REMARK    9  A    between atoms: C20_27  and  C21_28 
REMARK   10  A    between atoms: C28_38  and  O1_39 
REMARK   11  A    between atoms: C30_41  and  O2_42 
ROOT
HETATM    1  C10 UNL     1     -19.084  17.679  17.204  1.00  0.00     0.066 A 
HETATM    2  C11 UNL     1     -19.640  17.168  16.008  1.00  0.00     0.087 A 
HETATM    3  C12 UNL     1     -18.861  17.158  14.801  1.00  0.00     0.103 C 
HETATM    4  N3  UNL     1     -18.239  17.137  13.810  1.00  0.00    -0.191 NA
HETATM    5  C13 UNL     1     -20.919  16.692  16.022  1.00  0.00     0.113 A 
HETATM    6  N4  UNL     1     -21.646  16.701  17.150  1.00  0.00    -0.364 N 
ATOM      7  H4  UNL     1     -22.598  16.338  17.137  1.00  0.00     0.165 HD
HETATM    8  C14 UNL     1     -21.139  17.178  18.285  1.00  0.00     0.046 A 
HETATM    9  C15 UNL     1     -21.974  17.146  19.406  1.00  0.00     0.054 A 
HETATM   10  C16 UNL     1     -21.531  17.618  20.623  1.00  0.00     0.036 A 
HETATM   11 CL1  UNL     1     -22.560  17.590  22.055  1.00  0.00    -0.084 Cl
HETATM   12  C17 UNL     1     -20.246  18.113  20.667  1.00  0.00     0.025 A 
HETATM   13  C18 UNL     1     -19.413  18.150  19.569  1.00  0.00     0.018 A 
HETATM   14  C19 UNL     1     -19.862  17.677  18.359  1.00  0.00     0.019 A 
ENDROOT
BRANCH   1  15
HETATM   15  N2  UNL     1     -17.952  18.095  17.168  1.00  0.00    -0.367 N 
HETATM   16  C9  UNL     1     -16.926  18.965  17.232  1.00  0.00     0.063 C 
ATOM     17  H2  UNL     1     -17.449  17.236  16.947  1.00  0.00     0.165 HD
BRANCH  16  18
HETATM   18  C8  UNL     1     -16.627  19.755  15.950  1.00  0.00     0.064 C 
BRANCH  18  19
HETATM   19  C7  UNL     1     -16.318  21.198  16.287  1.00  0.00     0.122 C 
BRANCH  19  20
HETATM   20  N1  UNL     1     -14.965  21.552  16.057  1.00  0.00    -0.404 N 
BRANCH  20  21
HETATM   21  C6  UNL     1     -14.059  21.236  17.101  1.00  0.00     0.156 C 
BRANCH  21  22
HETATM   22  C5  UNL     1     -13.636  22.469  17.798  1.00  0.00    -0.037 A 
HETATM   23  C4  UNL     1     -14.472  23.030  18.731  1.00  0.00     0.019 A 
HETATM   24  C3  UNL     1     -14.147  24.188  19.420  1.00  0.00    -0.022 A 
HETATM   25  C30 UNL     1     -12.931  24.758  19.123  1.00  0.00     0.107 A 
HETATM   26  C28 UNL     1     -12.050  24.231  18.188  1.00  0.00     0.102 A 
HETATM   27  C27 UNL     1     -12.430  23.059  17.522  1.00  0.00     0.048 A 
BRANCH  24  28
HETATM   28  C2  UNL     1     -15.100  24.735  20.419  1.00  0.00     0.037 C 
HETATM   29  C1  UNL     1     -15.128  23.972  21.704  1.00  0.00     0.010 C 
ENDBRANCH  24  28
BRANCH  25  30
HETATM   30  O2  UNL     1     -12.546  25.916  19.775  1.00  0.00    -0.353 OA
HETATM   31  C31 UNL     1     -12.059  25.982  21.088  1.00  0.00     0.210 C 
ENDBRANCH  25  30
BRANCH  26  32
HETATM   32  O1  UNL     1     -10.842  24.844  17.928  1.00  0.00    -0.353 OA
HETATM   33  C29 UNL     1     -10.551  25.292  16.632  1.00  0.00     0.210 C 
ENDBRANCH  26  32
ENDBRANCH  21  22
ENDBRANCH  20  21
BRANCH  20  34
HETATM   34  C20 UNL     1     -14.541  21.269  14.725  1.00  0.00     0.156 C 
BRANCH  34  35
HETATM   35  C21 UNL     1     -13.369  22.043  14.264  1.00  0.00    -0.037 A 
HETATM   36  C22 UNL     1     -13.525  23.384  14.006  1.00  0.00     0.034 A 
HETATM   37  C23 UNL     1     -12.435  24.106  13.575  1.00  0.00     0.060 A 
HETATM   38 CL2  UNL     1     -12.602  25.830  13.234  1.00  0.00    -0.082 Cl
HETATM   39  C24 UNL     1     -11.188  23.546  13.390  1.00  0.00     0.089 A 
HETATM   40  N5  UNL     1     -10.083  24.311  12.946  1.00  0.00    -0.099 NA
HETATM   41  C25 UNL     1     -11.033  22.194  13.651  1.00  0.00     0.060 A 
HETATM   42 CL3  UNL     1      -9.453  21.467  13.420  1.00  0.00    -0.082 Cl
HETATM   43  C26 UNL     1     -12.130  21.468  14.084  1.00  0.00     0.034 A 
ENDBRANCH  34  35
ENDBRANCH  20  34
ENDBRANCH  19  20
ENDBRANCH  18  19
ENDBRANCH  16  18
ENDBRANCH   1  15
TORSDOF 11
ENDMDL
