MODEL 1
REMARK VINA RESULT: -8.247274007      0.000      0.000
REMARK  5 active torsions:
REMARK  status: ('A' for Active; 'I' for Inactive)
REMARK    1  A    between atoms: C2_2  and  C3_3 
REMARK    2  A    between atoms: C10_10  and  C11_11 
REMARK    3  A    between atoms: C16_20  and  O2_21 
REMARK    4  A    between atoms: N1_23  and  C17_24 
REMARK    5  A    between atoms: C23_30  and  O3_31 
ROOT
HETATM    1  C3  UNL     1      84.745  29.703  10.289  1.00  0.00     0.015 C 
HETATM    2  C4  UNL     1      86.035  29.419   9.581  1.00  0.00     0.010 C 
HETATM    3  C5  UNL     1      87.102  30.352  10.204  1.00  0.00     0.020 C 
HETATM    4  C6  UNL     1      86.298  31.184  11.128  1.00  0.00     0.015 C 
HETATM    5  C7  UNL     1      86.247  30.439  12.446  1.00  0.00    -0.015 C 
HETATM    6  C8  UNL     1      85.758  30.856  13.574  1.00  0.00    -0.026 C 
HETATM    7  C9  UNL     1      85.121  32.081  14.001  1.00  0.00     0.080 C 
HETATM    8  C10 UNL     1      84.846  33.148  13.015  1.00  0.00     0.193 C 
HETATM    9  O1  UNL     1      83.887  32.854  12.051  1.00  0.00    -0.365 OA
HETATM   10  C12 UNL     1      83.816  31.622  11.557  1.00  0.00     0.176 C 
HETATM   11  C13 UNL     1      84.898  31.195  10.607  1.00  0.00     0.034 C 
HETATM   12  C14 UNL     1      86.078  33.449  12.263  1.00  0.00     0.048 A 
HETATM   13  C15 UNL     1      86.741  32.556  11.393  1.00  0.00     0.020 A 
HETATM   14  C16 UNL     1      87.847  33.203  10.885  1.00  0.00     0.152 A 
HETATM   15  N1  UNL     1      87.857  34.445  11.423  1.00  0.00    -0.303 N 
HETATM   16  C23 UNL     1      86.805  34.593  12.244  1.00  0.00     0.155 A 
ENDROOT
BRANCH  15  17
HETATM   17  C17 UNL     1      88.839  35.454  11.160  1.00  0.00     0.094 C 
HETATM   18  C18 UNL     1      88.304  36.856  11.323  1.00  0.00     0.026 C 
HETATM   19  C19 UNL     1      89.117  37.710  12.233  1.00  0.00     0.002 C 
HETATM   20  C20 UNL     1      90.589  37.677  11.967  1.00  0.00     0.000 C 
HETATM   21  C21 UNL     1      91.081  36.315  11.539  1.00  0.00     0.002 C 
HETATM   22  C22 UNL     1      90.088  35.254  12.029  1.00  0.00     0.026 C 
ENDBRANCH  15  17
BRANCH  14  23
HETATM   23  O2  UNL     1      88.756  32.692  10.007  1.00  0.00    -0.345 OA
ATOM     24  H2  UNL     1      89.685  32.565  10.163  1.00  0.00     0.219 HD
ENDBRANCH  14  23
BRANCH  16  25
HETATM   25  O3  UNL     1      86.528  35.753  12.954  1.00  0.00    -0.345 OA
ATOM     26  H3  UNL     1      87.155  36.419  13.209  1.00  0.00     0.219 HD
ENDBRANCH  16  25
BRANCH   8  27
HETATM   27  C11 UNL     1      84.224  34.289  13.765  1.00  0.00     0.423 C 
HETATM   28  F1  UNL     1      82.896  33.818  14.027  1.00  0.00    -0.167 F 
HETATM   29  F2  UNL     1      84.694  34.457  15.051  1.00  0.00    -0.167 F 
HETATM   30  F3  UNL     1      84.001  35.419  13.057  1.00  0.00    -0.167 F 
ENDBRANCH   8  27
BRANCH   1  31
HETATM   31  C2  UNL     1      83.537  29.501   9.478  1.00  0.00    -0.032 C 
HETATM   32  C1  UNL     1      83.352  30.021   8.289  1.00  0.00     0.007 C 
ENDBRANCH   1  31
TORSDOF 5
ENDMDL
MODEL 2
REMARK VINA RESULT: -7.695342063     16.163     18.549
REMARK  5 active torsions:
REMARK  status: ('A' for Active; 'I' for Inactive)
REMARK    1  A    between atoms: C2_2  and  C3_3 
REMARK    2  A    between atoms: C10_10  and  C11_11 
REMARK    3  A    between atoms: C16_20  and  O2_21 
REMARK    4  A    between atoms: N1_23  and  C17_24 
REMARK    5  A    between atoms: C23_30  and  O3_31 
ROOT
HETATM    1  C3  UNL     1      88.540  49.684  19.484  1.00  0.00     0.015 C 
HETATM    2  C4  UNL     1      89.277  49.025  20.610  1.00  0.00     0.010 C 
HETATM    3  C5  UNL     1      88.326  47.955  21.200  1.00  0.00     0.020 C 
HETATM    4  C6  UNL     1      87.076  48.185  20.441  1.00  0.00     0.015 C 
HETATM    5  C7  UNL     1      87.171  47.342  19.186  1.00  0.00    -0.015 C 
HETATM    6  C8  UNL     1      86.249  47.138  18.296  1.00  0.00    -0.026 C 
HETATM    7  C9  UNL     1      84.883  47.586  18.144  1.00  0.00     0.080 C 
HETATM    8  C10 UNL     1      84.313  48.545  19.114  1.00  0.00     0.193 C 
HETATM    9  O1  UNL     1      84.853  49.827  19.093  1.00  0.00    -0.365 OA
HETATM   10  C12 UNL     1      86.156  49.982  18.872  1.00  0.00     0.176 C 
HETATM   11  C13 UNL     1      87.093  49.607  19.983  1.00  0.00     0.034 C 
HETATM   12  C14 UNL     1      84.537  48.049  20.484  1.00  0.00     0.048 A 
HETATM   13  C15 UNL     1      85.799  47.889  21.097  1.00  0.00     0.020 A 
HETATM   14  C16 UNL     1      85.592  47.404  22.371  1.00  0.00     0.152 A 
HETATM   15  N1  UNL     1      84.254  47.274  22.529  1.00  0.00    -0.303 N 
HETATM   16  C23 UNL     1      83.625  47.657  21.406  1.00  0.00     0.155 A 
ENDROOT
BRANCH  15  17
HETATM   17  C17 UNL     1      83.602  46.800  23.713  1.00  0.00     0.094 C 
HETATM   18  C18 UNL     1      83.811  45.325  23.953  1.00  0.00     0.026 C 
HETATM   19  C19 UNL     1      84.332  45.003  25.311  1.00  0.00     0.002 C 
HETATM   20  C20 UNL     1      83.605  45.677  26.431  1.00  0.00     0.000 C 
HETATM   21  C21 UNL     1      83.156  47.077  26.087  1.00  0.00     0.002 C 
HETATM   22  C22 UNL     1      84.030  47.609  24.945  1.00  0.00     0.026 C 
ENDBRANCH  15  17
BRANCH  14  23
HETATM   23  O2  UNL     1      86.551  47.112  23.295  1.00  0.00    -0.345 OA
ATOM     24  H2  UNL     1      87.203  46.423  23.236  1.00  0.00     0.219 HD
ENDBRANCH  14  23
BRANCH  16  25
HETATM   25  O3  UNL     1      82.246  47.643  21.242  1.00  0.00    -0.345 OA
ATOM     26  H3  UNL     1      81.602  47.472  21.919  1.00  0.00     0.219 HD
ENDBRANCH  16  25
BRANCH   8  27
HETATM   27  C11 UNL     1      82.887  48.780  18.712  1.00  0.00     0.423 C 
HETATM   28  F1  UNL     1      83.008  49.321  17.389  1.00  0.00    -0.167 F 
HETATM   29  F2  UNL     1      82.165  47.633  18.454  1.00  0.00    -0.167 F 
HETATM   30  F3  UNL     1      82.233  49.763  19.372  1.00  0.00    -0.167 F 
ENDBRANCH   8  27
BRANCH   1  31
HETATM   31  C2  UNL     1      88.899  51.089  19.249  1.00  0.00    -0.032 C 
HETATM   32  C1  UNL     1      89.906  51.699  19.825  1.00  0.00     0.007 C 
ENDBRANCH   1  31
TORSDOF 5
ENDMDL
MODEL 3
REMARK VINA RESULT: -7.652536262     16.217     17.940
REMARK  5 active torsions:
REMARK  status: ('A' for Active; 'I' for Inactive)
REMARK    1  A    between atoms: C2_2  and  C3_3 
REMARK    2  A    between atoms: C10_10  and  C11_11 
REMARK    3  A    between atoms: C16_20  and  O2_21 
REMARK    4  A    between atoms: N1_23  and  C17_24 
REMARK    5  A    between atoms: C23_30  and  O3_31 
ROOT
HETATM    1  C3  UNL     1      84.383  49.635  17.609  1.00  0.00     0.015 C 
HETATM    2  C4  UNL     1      84.183  48.189  17.268  1.00  0.00     0.010 C 
HETATM    3  C5  UNL     1      85.171  47.383  18.146  1.00  0.00     0.020 C 
HETATM    4  C6  UNL     1      85.943  48.450  18.821  1.00  0.00     0.015 C 
HETATM    5  C7  UNL     1      85.182  48.802  20.082  1.00  0.00    -0.015 C 
HETATM    6  C8  UNL     1      85.556  49.595  21.040  1.00  0.00    -0.026 C 
HETATM    7  C9  UNL     1      86.736  50.395  21.278  1.00  0.00     0.080 C 
HETATM    8  C10 UNL     1      87.796  50.463  20.249  1.00  0.00     0.193 C 
HETATM    9  O1  UNL     1      87.458  51.114  19.067  1.00  0.00    -0.365 OA
HETATM   10  C12 UNL     1      86.228  50.979  18.578  1.00  0.00     0.176 C 
HETATM   11  C13 UNL     1      85.877  49.661  17.950  1.00  0.00     0.034 C 
HETATM   12  C14 UNL     1      88.179  49.097  19.847  1.00  0.00     0.048 A 
HETATM   13  C15 UNL     1      87.336  48.175  19.188  1.00  0.00     0.020 A 
HETATM   14  C16 UNL     1      88.053  47.016  18.986  1.00  0.00     0.152 A 
HETATM   15  N1  UNL     1      89.287  47.222  19.502  1.00  0.00    -0.303 N 
HETATM   16  C23 UNL     1      89.363  48.461  20.016  1.00  0.00     0.155 A 
ENDROOT
BRANCH  15  17
HETATM   17  C17 UNL     1      90.356  46.268  19.503  1.00  0.00     0.094 C 
HETATM   18  C18 UNL     1      91.376  46.522  18.420  1.00  0.00     0.026 C 
HETATM   19  C19 UNL     1      92.777  46.603  18.919  1.00  0.00     0.002 C 
HETATM   20  C20 UNL     1      93.173  45.495  19.842  1.00  0.00     0.000 C 
HETATM   21  C21 UNL     1      92.052  45.056  20.753  1.00  0.00     0.002 C 
HETATM   22  C22 UNL     1      91.038  46.200  20.876  1.00  0.00     0.026 C 
ENDBRANCH  15  17
BRANCH  14  23
HETATM   23  O2  UNL     1      87.606  45.878  18.382  1.00  0.00    -0.345 OA
ATOM     24  H2  UNL     1      87.974  45.465  17.609  1.00  0.00     0.219 HD
ENDBRANCH  14  23
BRANCH  16  25
HETATM   25  O3  UNL     1      90.497  48.985  20.622  1.00  0.00    -0.345 OA
ATOM     26  H3  UNL     1      91.195  49.462  20.190  1.00  0.00     0.219 HD
ENDBRANCH  16  25
BRANCH   8  27
HETATM   27  C11 UNL     1      88.890  51.328  20.803  1.00  0.00     0.423 C 
HETATM   28  F1  UNL     1      88.230  52.581  21.026  1.00  0.00    -0.167 F 
HETATM   29  F2  UNL     1      89.279  51.012  22.088  1.00  0.00    -0.167 F 
HETATM   30  F3  UNL     1      89.878  51.666  19.944  1.00  0.00    -0.167 F 
ENDBRANCH   8  27
BRANCH   1  31
HETATM   31  C2  UNL     1      84.119  50.572  16.509  1.00  0.00    -0.032 C 
HETATM   32  C1  UNL     1      82.922  50.954  16.138  1.00  0.00     0.007 C 
ENDBRANCH   1  31
TORSDOF 5
ENDMDL
MODEL 4
REMARK VINA RESULT: -7.550175722     15.531     17.785
REMARK  5 active torsions:
REMARK  status: ('A' for Active; 'I' for Inactive)
REMARK    1  A    between atoms: C2_2  and  C3_3 
REMARK    2  A    between atoms: C10_10  and  C11_11 
REMARK    3  A    between atoms: C16_20  and  O2_21 
REMARK    4  A    between atoms: N1_23  and  C17_24 
REMARK    5  A    between atoms: C23_30  and  O3_31 
ROOT
HETATM    1  C3  UNL     1      83.721  45.907  22.208  1.00  0.00     0.015 C 
HETATM    2  C4  UNL     1      84.437  46.550  23.358  1.00  0.00     0.010 C 
HETATM    3  C5  UNL     1      84.913  47.939  22.867  1.00  0.00     0.020 C 
HETATM    4  C6  UNL     1      84.541  47.916  21.435  1.00  0.00     0.015 C 
HETATM    5  C7  UNL     1      83.117  48.426  21.351  1.00  0.00    -0.015 C 
HETATM    6  C8  UNL     1      82.432  48.694  20.281  1.00  0.00    -0.026 C 
HETATM    7  C9  UNL     1      82.713  48.623  18.865  1.00  0.00     0.080 C 
HETATM    8  C10 UNL     1      84.007  48.079  18.400  1.00  0.00     0.193 C 
HETATM    9  O1  UNL     1      84.212  46.721  18.622  1.00  0.00    -0.365 OA
HETATM   10  C12 UNL     1      83.757  46.168  19.743  1.00  0.00     0.176 C 
HETATM   11  C13 UNL     1      84.490  46.485  21.014  1.00  0.00     0.034 C 
HETATM   12  C14 UNL     1      85.108  48.761  19.104  1.00  0.00     0.048 A 
HETATM   13  C15 UNL     1      85.359  48.684  20.492  1.00  0.00     0.020 A 
HETATM   14  C16 UNL     1      86.469  49.455  20.764  1.00  0.00     0.152 A 
HETATM   15  N1  UNL     1      86.879  49.983  19.587  1.00  0.00    -0.303 N 
HETATM   16  C23 UNL     1      86.070  49.571  18.598  1.00  0.00     0.155 A 
ENDROOT
BRANCH  15  17
HETATM   17  C17 UNL     1      88.007  50.850  19.415  1.00  0.00     0.094 C 
HETATM   18  C18 UNL     1      87.786  52.227  19.991  1.00  0.00     0.026 C 
HETATM   19  C19 UNL     1      88.854  52.664  20.933  1.00  0.00     0.002 C 
HETATM   20  C20 UNL     1      90.248  52.461  20.431  1.00  0.00     0.000 C 
HETATM   21  C21 UNL     1      90.404  51.198  19.616  1.00  0.00     0.002 C 
HETATM   22  C22 UNL     1      89.282  50.224  19.995  1.00  0.00     0.026 C 
ENDBRANCH  15  17
BRANCH  14  23
HETATM   23  O2  UNL     1      87.044  49.650  21.985  1.00  0.00    -0.345 OA
ATOM     24  H2  UNL     1      87.030  50.451  22.496  1.00  0.00     0.219 HD
ENDBRANCH  14  23
BRANCH  16  25
HETATM   25  O3  UNL     1      86.218  49.934  17.266  1.00  0.00    -0.345 OA
ATOM     26  H3  UNL     1      85.576  49.816  16.577  1.00  0.00     0.219 HD
ENDBRANCH  16  25
BRANCH   8  27
HETATM   27  C11 UNL     1      84.010  48.174  16.902  1.00  0.00     0.423 C 
HETATM   28  F1  UNL     1      82.874  47.385  16.525  1.00  0.00    -0.167 F 
HETATM   29  F2  UNL     1      83.642  49.407  16.403  1.00  0.00    -0.167 F 
HETATM   30  F3  UNL     1      85.027  47.549  16.265  1.00  0.00    -0.167 F 
ENDBRANCH   8  27
BRANCH   1  31
HETATM   31  C2  UNL     1      83.800  44.441  22.173  1.00  0.00    -0.032 C 
HETATM   32  C1  UNL     1      82.784  43.654  21.913  1.00  0.00     0.007 C 
ENDBRANCH   1  31
TORSDOF 5
ENDMDL
MODEL 5
REMARK VINA RESULT: -7.547631555     16.151     18.530
REMARK  5 active torsions:
REMARK  status: ('A' for Active; 'I' for Inactive)
REMARK    1  A    between atoms: C2_2  and  C3_3 
REMARK    2  A    between atoms: C10_10  and  C11_11 
REMARK    3  A    between atoms: C16_20  and  O2_21 
REMARK    4  A    between atoms: N1_23  and  C17_24 
REMARK    5  A    between atoms: C23_30  and  O3_31 
ROOT
HETATM    1  C3  UNL     1      88.309  49.893  19.268  1.00  0.00     0.015 C 
HETATM    2  C4  UNL     1      89.320  49.341  20.228  1.00  0.00     0.010 C 
HETATM    3  C5  UNL     1      88.639  48.163  20.966  1.00  0.00     0.020 C 
HETATM    4  C6  UNL     1      87.251  48.226  20.456  1.00  0.00     0.015 C 
HETATM    5  C7  UNL     1      87.217  47.393  19.192  1.00  0.00    -0.015 C 
HETATM    6  C8  UNL     1      86.179  47.065  18.484  1.00  0.00    -0.026 C 
HETATM    7  C9  UNL     1      84.763  47.334  18.596  1.00  0.00     0.080 C 
HETATM    8  C10 UNL     1      84.266  48.220  19.670  1.00  0.00     0.193 C 
HETATM    9  O1  UNL     1      84.626  49.560  19.570  1.00  0.00    -0.365 OA
HETATM   10  C12 UNL     1      85.834  49.878  19.114  1.00  0.00     0.176 C 
HETATM   11  C13 UNL     1      87.002  49.635  20.026  1.00  0.00     0.034 C 
HETATM   12  C14 UNL     1      84.802  47.767  20.967  1.00  0.00     0.048 A 
HETATM   13  C15 UNL     1      86.167  47.774  21.332  1.00  0.00     0.020 A 
HETATM   14  C16 UNL     1      86.263  47.277  22.614  1.00  0.00     0.152 A 
HETATM   15  N1  UNL     1      85.006  46.978  23.016  1.00  0.00    -0.303 N 
HETATM   16  C23 UNL     1      84.135  47.268  22.036  1.00  0.00     0.155 A 
ENDROOT
BRANCH  15  17
HETATM   17  C17 UNL     1      84.651  46.433  24.292  1.00  0.00     0.094 C 
HETATM   18  C18 UNL     1      83.968  47.435  25.192  1.00  0.00     0.026 C 
HETATM   19  C19 UNL     1      82.667  46.963  25.742  1.00  0.00     0.002 C 
HETATM   20  C20 UNL     1      82.701  45.586  26.325  1.00  0.00     0.000 C 
HETATM   21  C21 UNL     1      83.607  44.645  25.567  1.00  0.00     0.002 C 
HETATM   22  C22 UNL     1      83.786  45.175  24.139  1.00  0.00     0.026 C 
ENDBRANCH  15  17
BRANCH  14  23
HETATM   23  O2  UNL     1      87.407  47.117  23.340  1.00  0.00    -0.345 OA
ATOM     24  H2  UNL     1      87.600  46.408  23.943  1.00  0.00     0.219 HD
ENDBRANCH  14  23
BRANCH  16  25
HETATM   25  O3  UNL     1      82.763  47.077  22.130  1.00  0.00    -0.345 OA
ATOM     26  H3  UNL     1      82.138  47.677  22.519  1.00  0.00     0.219 HD
ENDBRANCH  16  25
BRANCH   8  27
HETATM   27  C11 UNL     1      82.772  48.267  19.544  1.00  0.00     0.423 C 
HETATM   28  F1  UNL     1      82.575  48.845  18.246  1.00  0.00    -0.167 F 
HETATM   29  F2  UNL     1      82.170  47.038  19.370  1.00  0.00    -0.167 F 
HETATM   30  F3  UNL     1      82.130  49.139  20.354  1.00  0.00    -0.167 F 
ENDBRANCH   8  27
BRANCH   1  31
HETATM   31  C2  UNL     1      88.436  51.330  18.994  1.00  0.00    -0.032 C 
HETATM   32  C1  UNL     1      89.316  52.115  19.567  1.00  0.00     0.007 C 
ENDBRANCH   1  31
TORSDOF 5
ENDMDL
