MODEL 1
REMARK VINA RESULT: -9.181806618      0.000      0.000
REMARK  5 active torsions:
REMARK  status: ('A' for Active; 'I' for Inactive)
REMARK    1  A    between atoms: C2_2  and  C4_5 
REMARK    2  A    between atoms: C7_8  and  N1_9 
REMARK    3  A    between atoms: C9_11  and  O1_12 
REMARK    4  A    between atoms: N2_14  and  C10_15 
REMARK    5  A    between atoms: C10_15  and  C11_16 
ROOT
HETATM    1  N1  UNL     1      89.003  35.168  11.738  1.00  0.00    -0.295 N 
HETATM    2  C8  UNL     1      90.306  35.151  11.420  1.00  0.00     0.155 A 
HETATM    3  C9  UNL     1      90.858  36.391  11.483  1.00  0.00     0.160 A 
HETATM    4  N2  UNL     1      89.839  37.231  11.862  1.00  0.00    -0.303 N 
HETATM    5  C16 UNL     1      88.737  36.483  12.010  1.00  0.00     0.187 A 
HETATM    6  S1  UNL     1      87.270  37.043  12.417  1.00  0.00    -0.040 SA
ENDROOT
BRANCH   1   7
HETATM    7  C7  UNL     1      88.084  34.084  11.790  1.00  0.00     0.043 A 
HETATM    8  C6  UNL     1      87.837  33.257  10.713  1.00  0.00     0.031 A 
HETATM    9  C5  UNL     1      86.931  32.208  10.804  1.00  0.00     0.013 A 
HETATM   10  C4  UNL     1      86.235  31.937  11.965  1.00  0.00    -0.014 A 
HETATM   11  C18 UNL     1      86.500  32.781  13.038  1.00  0.00     0.044 A 
HETATM   12  C17 UNL     1      87.386  33.806  12.945  1.00  0.00     0.054 A 
HETATM   13 CL2  UNL     1      85.600  32.403  14.490  1.00  0.00    -0.084 Cl
BRANCH  10  14
HETATM   14  C2  UNL     1      85.312  30.832  11.990  1.00  0.00     0.058 C 
HETATM   15  C1  UNL     1      85.293  30.182  10.620  1.00  0.00     0.037 C 
HETATM   16  C3  UNL     1      83.915  31.076  12.405  1.00  0.00     0.037 C 
HETATM   17 CL1  UNL     1      85.959  29.580  13.100  1.00  0.00    -0.115 Cl
ENDBRANCH  10  14
ENDBRANCH   1   7
BRANCH   3  18
HETATM   18  O1  UNL     1      92.178  36.784  11.225  1.00  0.00    -0.345 OA
ATOM     19  H1  UNL     1      92.746  36.541  10.502  1.00  0.00     0.219 HD
ENDBRANCH   3  18
BRANCH   4  20
HETATM   20  C10 UNL     1      90.058  38.649  11.999  1.00  0.00     0.138 C 
BRANCH  20  21
HETATM   21  C11 UNL     1      89.340  39.256  13.142  1.00  0.00     0.007 C 
HETATM   22  C12 UNL     1      88.343  40.315  12.869  1.00  0.00     0.025 C 
HETATM   23  C13 UNL     1      88.964  41.634  12.679  1.00  0.00     0.114 C 
HETATM   24  N3  UNL     1      90.373  41.687  12.534  1.00  0.00    -0.421 N 
HETATM   25  C14 UNL     1      91.135  40.867  13.411  1.00  0.00     0.114 C 
ATOM     26  H3  UNL     1      90.818  42.283  11.837  1.00  0.00     0.153 HD
HETATM   27  C15 UNL     1      90.327  39.850  14.161  1.00  0.00     0.025 C 
ENDBRANCH  20  21
ENDBRANCH   4  20
TORSDOF 5
ENDMDL
MODEL 2
REMARK VINA RESULT: -8.846041811      1.376      1.770
REMARK  5 active torsions:
REMARK  status: ('A' for Active; 'I' for Inactive)
REMARK    1  A    between atoms: C2_2  and  C4_5 
REMARK    2  A    between atoms: C7_8  and  N1_9 
REMARK    3  A    between atoms: C9_11  and  O1_12 
REMARK    4  A    between atoms: N2_14  and  C10_15 
REMARK    5  A    between atoms: C10_15  and  C11_16 
ROOT
HETATM    1  N1  UNL     1      89.420  36.353  11.998  1.00  0.00    -0.295 N 
HETATM    2  C8  UNL     1      90.734  36.422  11.736  1.00  0.00     0.155 A 
HETATM    3  C9  UNL     1      91.204  37.693  11.841  1.00  0.00     0.160 A 
HETATM    4  N2  UNL     1      90.119  38.461  12.189  1.00  0.00    -0.303 N 
HETATM    5  C16 UNL     1      89.061  37.643  12.278  1.00  0.00     0.187 A 
HETATM    6  S1  UNL     1      87.546  38.104  12.631  1.00  0.00    -0.040 SA
ENDROOT
BRANCH   1   7
HETATM    7  C7  UNL     1      88.570  35.212  11.995  1.00  0.00     0.043 A 
HETATM    8  C6  UNL     1      88.471  34.353  10.920  1.00  0.00     0.031 A 
HETATM    9  C5  UNL     1      87.627  33.250  10.956  1.00  0.00     0.013 A 
HETATM   10  C4  UNL     1      86.849  32.954  12.058  1.00  0.00    -0.014 A 
HETATM   11  C18 UNL     1      86.965  33.832  13.130  1.00  0.00     0.044 A 
HETATM   12  C17 UNL     1      87.790  34.911  13.091  1.00  0.00     0.054 A 
HETATM   13 CL2  UNL     1      85.965  33.423  14.505  1.00  0.00    -0.084 Cl
BRANCH  10  14
HETATM   14  C2  UNL     1      85.999  31.794  12.027  1.00  0.00     0.058 C 
HETATM   15  C1  UNL     1      84.573  32.241  11.764  1.00  0.00     0.037 C 
HETATM   16  C3  UNL     1      85.991  30.881  13.188  1.00  0.00     0.037 C 
HETATM   17 CL1  UNL     1      86.453  30.799  10.603  1.00  0.00    -0.115 Cl
ENDBRANCH  10  14
ENDBRANCH   1   7
BRANCH   3  18
HETATM   18  O1  UNL     1      92.506  38.171  11.646  1.00  0.00    -0.345 OA
ATOM     19  H1  UNL     1      92.792  38.986  11.249  1.00  0.00     0.219 HD
ENDBRANCH   3  18
BRANCH   4  20
HETATM   20  C10 UNL     1      90.243  39.887  12.357  1.00  0.00     0.138 C 
BRANCH  20  21
HETATM   21  C11 UNL     1      91.099  40.283  13.496  1.00  0.00     0.007 C 
HETATM   22  C12 UNL     1      90.558  40.155  14.867  1.00  0.00     0.025 C 
HETATM   23  C13 UNL     1      89.700  41.288  15.239  1.00  0.00     0.114 C 
HETATM   24  N3  UNL     1      89.310  42.188  14.215  1.00  0.00    -0.421 N 
HETATM   25  C14 UNL     1      90.317  42.570  13.287  1.00  0.00     0.114 C 
ATOM     26  H3  UNL     1      88.356  42.542  14.147  1.00  0.00     0.153 HD
HETATM   27  C15 UNL     1      91.565  41.742  13.355  1.00  0.00     0.025 C 
ENDBRANCH  20  21
ENDBRANCH   4  20
TORSDOF 5
ENDMDL
MODEL 3
REMARK VINA RESULT: -8.768982781      3.666      8.342
REMARK  5 active torsions:
REMARK  status: ('A' for Active; 'I' for Inactive)
REMARK    1  A    between atoms: C2_2  and  C4_5 
REMARK    2  A    between atoms: C7_8  and  N1_9 
REMARK    3  A    between atoms: C9_11  and  O1_12 
REMARK    4  A    between atoms: N2_14  and  C10_15 
REMARK    5  A    between atoms: C10_15  and  C11_16 
ROOT
HETATM    1  N1  UNL     1      87.879  34.433  11.673  1.00  0.00    -0.295 N 
HETATM    2  C8  UNL     1      88.448  33.583  10.804  1.00  0.00     0.155 A 
HETATM    3  C9  UNL     1      87.831  32.372  10.804  1.00  0.00     0.160 A 
HETATM    4  N2  UNL     1      86.818  32.473  11.726  1.00  0.00    -0.303 N 
HETATM    5  C16 UNL     1      86.862  33.712  12.237  1.00  0.00     0.187 A 
HETATM    6  S1  UNL     1      85.879  34.287  13.392  1.00  0.00    -0.040 SA
ENDROOT
BRANCH   1   7
HETATM    7  C7  UNL     1      88.232  35.780  11.962  1.00  0.00     0.043 A 
HETATM    8  C6  UNL     1      87.323  36.712  12.420  1.00  0.00     0.031 A 
HETATM    9  C5  UNL     1      87.708  38.019  12.690  1.00  0.00     0.013 A 
HETATM   10  C4  UNL     1      89.007  38.455  12.516  1.00  0.00    -0.014 A 
HETATM   11  C18 UNL     1      89.906  37.499  12.055  1.00  0.00     0.044 A 
HETATM   12  C17 UNL     1      89.526  36.222  11.792  1.00  0.00     0.054 A 
HETATM   13 CL2  UNL     1      91.539  38.090  11.850  1.00  0.00    -0.084 Cl
BRANCH  10  14
HETATM   14  C2  UNL     1      89.335  39.823  12.816  1.00  0.00     0.058 C 
HETATM   15  C1  UNL     1      88.050  40.591  13.061  1.00  0.00     0.037 C 
HETATM   16  C3  UNL     1      90.156  40.590  11.856  1.00  0.00     0.037 C 
HETATM   17 CL1  UNL     1      90.216  39.863  14.380  1.00  0.00    -0.115 Cl
ENDBRANCH  10  14
ENDBRANCH   1   7
BRANCH   3  18
HETATM   18  O1  UNL     1      88.125  31.232  10.045  1.00  0.00    -0.345 OA
ATOM     19  H1  UNL     1      88.903  30.685  10.062  1.00  0.00     0.219 HD
ENDBRANCH   3  18
BRANCH   4  20
HETATM   20  C10 UNL     1      85.964  31.349  12.016  1.00  0.00     0.138 C 
BRANCH  20  21
HETATM   21  C11 UNL     1      84.767  31.269  11.149  1.00  0.00     0.007 C 
HETATM   22  C12 UNL     1      83.594  32.107  11.481  1.00  0.00     0.025 C 
HETATM   23  C13 UNL     1      82.758  31.509  12.531  1.00  0.00     0.114 C 
HETATM   24  N3  UNL     1      83.278  30.396  13.238  1.00  0.00    -0.421 N 
HETATM   25  C14 UNL     1      83.941  29.405  12.465  1.00  0.00     0.114 C 
ATOM     26  H3  UNL     1      83.181  30.310  14.250  1.00  0.00     0.153 HD
HETATM   27  C15 UNL     1      84.248  29.824  11.058  1.00  0.00     0.025 C 
ENDBRANCH  20  21
ENDBRANCH   4  20
TORSDOF 5
ENDMDL
MODEL 4
REMARK VINA RESULT: -8.750755502      1.209      1.547
REMARK  5 active torsions:
REMARK  status: ('A' for Active; 'I' for Inactive)
REMARK    1  A    between atoms: C2_2  and  C4_5 
REMARK    2  A    between atoms: C7_8  and  N1_9 
REMARK    3  A    between atoms: C9_11  and  O1_12 
REMARK    4  A    between atoms: N2_14  and  C10_15 
REMARK    5  A    between atoms: C10_15  and  C11_16 
ROOT
HETATM    1  N1  UNL     1      89.250  36.048  11.917  1.00  0.00    -0.295 N 
HETATM    2  C8  UNL     1      90.558  36.186  11.653  1.00  0.00     0.155 A 
HETATM    3  C9  UNL     1      90.970  37.473  11.797  1.00  0.00     0.160 A 
HETATM    4  N2  UNL     1      89.852  38.179  12.172  1.00  0.00    -0.303 N 
HETATM    5  C16 UNL     1      88.833  37.311  12.239  1.00  0.00     0.187 A 
HETATM    6  S1  UNL     1      87.300  37.690  12.611  1.00  0.00    -0.040 SA
ENDROOT
BRANCH   1   7
HETATM    7  C7  UNL     1      88.453  34.870  11.880  1.00  0.00     0.043 A 
HETATM    8  C6  UNL     1      88.411  34.026  10.790  1.00  0.00     0.031 A 
HETATM    9  C5  UNL     1      87.619  32.885  10.793  1.00  0.00     0.013 A 
HETATM   10  C4  UNL     1      86.837  32.535  11.876  1.00  0.00    -0.014 A 
HETATM   11  C18 UNL     1      86.895  33.399  12.965  1.00  0.00     0.044 A 
HETATM   12  C17 UNL     1      87.671  34.514  12.958  1.00  0.00     0.054 A 
HETATM   13 CL2  UNL     1      85.894  32.920  14.316  1.00  0.00    -0.084 Cl
BRANCH  10  14
HETATM   14  C2  UNL     1      86.041  31.338  11.812  1.00  0.00     0.058 C 
HETATM   15  C1  UNL     1      84.600  31.724  11.542  1.00  0.00     0.037 C 
HETATM   16  C3  UNL     1      86.063  30.401  12.954  1.00  0.00     0.037 C 
HETATM   17 CL1  UNL     1      86.557  30.395  10.374  1.00  0.00    -0.115 Cl
ENDBRANCH  10  14
ENDBRANCH   1   7
BRANCH   3  18
HETATM   18  O1  UNL     1      92.248  38.017  11.612  1.00  0.00    -0.345 OA
ATOM     19  H1  UNL     1      92.494  38.852  11.231  1.00  0.00     0.219 HD
ENDBRANCH   3  18
BRANCH   4  20
HETATM   20  C10 UNL     1      89.911  39.603  12.385  1.00  0.00     0.138 C 
BRANCH  20  21
HETATM   21  C11 UNL     1      88.750  40.338  11.832  1.00  0.00     0.007 C 
HETATM   22  C12 UNL     1      88.959  41.209  10.655  1.00  0.00     0.025 C 
HETATM   23  C13 UNL     1      89.499  42.525  11.021  1.00  0.00     0.114 C 
HETATM   24  N3  UNL     1      89.968  42.703  12.348  1.00  0.00    -0.421 N 
HETATM   25  C14 UNL     1      89.165  42.156  13.385  1.00  0.00     0.114 C 
ATOM     26  H3  UNL     1      90.837  43.199  12.548  1.00  0.00     0.153 HD
HETATM   27  C15 UNL     1      88.095  41.220  12.907  1.00  0.00     0.025 C 
ENDBRANCH  20  21
ENDBRANCH   4  20
TORSDOF 5
ENDMDL
MODEL 5
REMARK VINA RESULT: -8.552866179      1.057      1.638
REMARK  5 active torsions:
REMARK  status: ('A' for Active; 'I' for Inactive)
REMARK    1  A    between atoms: C2_2  and  C4_5 
REMARK    2  A    between atoms: C7_8  and  N1_9 
REMARK    3  A    between atoms: C9_11  and  O1_12 
REMARK    4  A    between atoms: N2_14  and  C10_15 
REMARK    5  A    between atoms: C10_15  and  C11_16 
ROOT
HETATM    1  N1  UNL     1      88.709  34.957  11.770  1.00  0.00    -0.295 N 
HETATM    2  C8  UNL     1      90.008  34.915  11.437  1.00  0.00     0.155 A 
HETATM    3  C9  UNL     1      90.572  36.151  11.443  1.00  0.00     0.160 A 
HETATM    4  N2  UNL     1      89.565  37.015  11.801  1.00  0.00    -0.303 N 
HETATM    5  C16 UNL     1      88.458  36.283  11.992  1.00  0.00     0.187 A 
HETATM    6  S1  UNL     1      87.001  36.873  12.394  1.00  0.00    -0.040 SA
ENDROOT
BRANCH   1   7
HETATM    7  C7  UNL     1      87.782  33.883  11.877  1.00  0.00     0.043 A 
HETATM    8  C6  UNL     1      87.135  33.565  13.053  1.00  0.00     0.031 A 
HETATM    9  C5  UNL     1      86.236  32.507  13.117  1.00  0.00     0.013 A 
HETATM   10  C4  UNL     1      85.943  31.724  12.018  1.00  0.00    -0.014 A 
HETATM   11  C18 UNL     1      86.605  32.064  10.842  1.00  0.00     0.044 A 
HETATM   12  C17 UNL     1      87.483  33.098  10.784  1.00  0.00     0.054 A 
HETATM   13 CL2  UNL     1      86.205  31.051   9.474  1.00  0.00    -0.084 Cl
BRANCH  10  14
HETATM   14  C2  UNL     1      85.001  30.645  12.155  1.00  0.00     0.058 C 
HETATM   15  C1  UNL     1      85.717  29.443  12.740  1.00  0.00     0.037 C 
HETATM   16  C3  UNL     1      84.245  30.199  10.965  1.00  0.00     0.037 C 
HETATM   17 CL1  UNL     1      83.780  31.114  13.384  1.00  0.00    -0.115 Cl
ENDBRANCH  10  14
ENDBRANCH   1   7
BRANCH   3  18
HETATM   18  O1  UNL     1      91.892  36.521  11.153  1.00  0.00    -0.345 OA
ATOM     19  H1  UNL     1      92.226  37.356  10.846  1.00  0.00     0.219 HD
ENDBRANCH   3  18
BRANCH   4  20
HETATM   20  C10 UNL     1      89.797  38.435  11.878  1.00  0.00     0.138 C 
BRANCH  20  21
HETATM   21  C11 UNL     1      89.156  39.083  13.043  1.00  0.00     0.007 C 
HETATM   22  C12 UNL     1      88.244  40.224  12.806  1.00  0.00     0.025 C 
HETATM   23  C13 UNL     1      88.967  41.489  12.618  1.00  0.00     0.114 C 
HETATM   24  N3  UNL     1      90.373  41.429  12.443  1.00  0.00    -0.421 N 
HETATM   25  C14 UNL     1      91.082  40.537  13.292  1.00  0.00     0.114 C 
ATOM     26  H3  UNL     1      90.851  41.996  11.743  1.00  0.00     0.153 HD
HETATM   27  C15 UNL     1      90.210  39.579  14.047  1.00  0.00     0.025 C 
ENDBRANCH  20  21
ENDBRANCH   4  20
TORSDOF 5
ENDMDL
