MODEL 1
REMARK VINA RESULT: -7.715875836      0.000      0.000
REMARK  5 active torsions:
REMARK  status: ('A' for Active; 'I' for Inactive)
REMARK    1  A    between atoms: C6_7  and  C7_8 
REMARK    2  A    between atoms: C7_8  and  N1_9 
REMARK    3  A    between atoms: N1_9  and  C8_11 
REMARK    4  A    between atoms: C8_11  and  N2_13 
REMARK    5  A    between atoms: N2_13  and  C9_15 
ROOT
HETATM    1  N1  UNL     1     -14.431  15.499  41.609  1.00  0.00    -0.366 N 
ATOM      2  H1  UNL     1     -14.061  15.960  40.777  1.00  0.00     0.161 HD
ENDROOT
BRANCH   1   3
HETATM    3  C7  UNL     1     -15.795  15.093  41.516  1.00  0.00     0.139 C 
BRANCH   3   4
HETATM    4  C6  UNL     1     -16.157  13.696  41.769  1.00  0.00     0.037 C 
HETATM    5  C1  UNL     1     -15.445  12.705  40.924  1.00  0.00     0.137 C 
HETATM    6  O1  UNL     1     -14.420  12.862  40.338  1.00  0.00    -0.297 OA
HETATM    7  C2  UNL     1     -16.282  11.490  40.972  1.00  0.00     0.083 C 
HETATM    8  C3  UNL     1     -17.608  11.955  41.547  1.00  0.00    -0.006 C 
HETATM    9  C4  UNL     1     -17.451  12.056  43.022  1.00  0.00     0.006 C 
HETATM   10  C15 UNL     1     -17.582  13.416  41.142  1.00  0.00     0.024 C 
HETATM   11  C5  UNL     1     -16.452  13.234  43.148  1.00  0.00     0.019 C 
ENDBRANCH   3   4
ENDBRANCH   1   3
BRANCH   1  12
HETATM   12  C8  UNL     1     -13.519  15.364  42.668  1.00  0.00     0.167 C 
HETATM   13  S1  UNL     1     -13.434  16.448  43.873  1.00  0.00    -0.041 SA
BRANCH  12  14
HETATM   14  N2  UNL     1     -12.610  14.242  42.646  1.00  0.00    -0.363 N 
ATOM     15  H2  UNL     1     -12.869  13.374  43.116  1.00  0.00     0.162 HD
BRANCH  14  16
HETATM   16  C9  UNL     1     -11.362  14.333  41.979  1.00  0.00     0.083 C 
HETATM   17  C10 UNL     1     -11.208  13.116  41.039  1.00  0.00     0.025 C 
HETATM   18  C11 UNL     1     -10.004  13.442  40.176  1.00  0.00     0.002 C 
HETATM   19  C12 UNL     1      -8.780  13.466  41.057  1.00  0.00     0.000 C 
HETATM   20  C13 UNL     1      -8.943  14.410  42.236  1.00  0.00     0.002 C 
HETATM   21  C14 UNL     1     -10.209  14.136  42.980  1.00  0.00     0.025 C 
ENDBRANCH  14  16
ENDBRANCH  12  14
ENDBRANCH   1  12
TORSDOF 5
ENDMDL
MODEL 2
REMARK VINA RESULT: -7.547574408      1.689      2.511
REMARK  5 active torsions:
REMARK  status: ('A' for Active; 'I' for Inactive)
REMARK    1  A    between atoms: C6_7  and  C7_8 
REMARK    2  A    between atoms: C7_8  and  N1_9 
REMARK    3  A    between atoms: N1_9  and  C8_11 
REMARK    4  A    between atoms: C8_11  and  N2_13 
REMARK    5  A    between atoms: N2_13  and  C9_15 
ROOT
HETATM    1  N1  UNL     1     -14.533  15.410  42.413  1.00  0.00    -0.366 N 
ATOM      2  H1  UNL     1     -14.879  15.994  43.174  1.00  0.00     0.161 HD
ENDROOT
BRANCH   1   3
HETATM    3  C7  UNL     1     -15.532  14.944  41.508  1.00  0.00     0.139 C 
BRANCH   3   4
HETATM    4  C6  UNL     1     -16.512  13.950  41.953  1.00  0.00     0.037 C 
HETATM    5  C1  UNL     1     -16.850  14.012  43.397  1.00  0.00     0.137 C 
HETATM    6  O1  UNL     1     -16.697  14.935  44.134  1.00  0.00    -0.297 OA
HETATM    7  C2  UNL     1     -17.413  12.684  43.714  1.00  0.00     0.083 C 
HETATM    8  C3  UNL     1     -17.042  11.812  42.529  1.00  0.00    -0.006 C 
HETATM    9  C4  UNL     1     -18.008  12.099  41.435  1.00  0.00     0.006 C 
HETATM   10  C15 UNL     1     -15.805  12.536  42.035  1.00  0.00     0.024 C 
HETATM   11  C5  UNL     1     -17.638  13.559  41.070  1.00  0.00     0.019 C 
ENDBRANCH   3   4
ENDBRANCH   1   3
BRANCH   1  12
HETATM   12  C8  UNL     1     -13.146  15.188  42.418  1.00  0.00     0.167 C 
HETATM   13  S1  UNL     1     -12.233  15.481  43.728  1.00  0.00    -0.041 SA
BRANCH  12  14
HETATM   14  N2  UNL     1     -12.525  14.722  41.200  1.00  0.00    -0.363 N 
ATOM     15  H2  UNL     1     -12.527  15.319  40.373  1.00  0.00     0.162 HD
BRANCH  14  16
HETATM   16  C9  UNL     1     -11.913  13.444  41.141  1.00  0.00     0.083 C 
HETATM   17  C10 UNL     1     -10.557  13.573  40.412  1.00  0.00     0.025 C 
HETATM   18  C11 UNL     1      -9.862  12.246  40.647  1.00  0.00     0.002 C 
HETATM   19  C12 UNL     1     -10.638  11.170  39.929  1.00  0.00     0.000 C 
HETATM   20  C13 UNL     1     -12.103  11.157  40.331  1.00  0.00     0.002 C 
HETATM   21  C14 UNL     1     -12.712  12.516  40.208  1.00  0.00     0.025 C 
ENDBRANCH  14  16
ENDBRANCH  12  14
ENDBRANCH   1  12
TORSDOF 5
ENDMDL
MODEL 3
REMARK VINA RESULT: -7.468553117      1.940      5.460
REMARK  5 active torsions:
REMARK  status: ('A' for Active; 'I' for Inactive)
REMARK    1  A    between atoms: C6_7  and  C7_8 
REMARK    2  A    between atoms: C7_8  and  N1_9 
REMARK    3  A    between atoms: N1_9  and  C8_11 
REMARK    4  A    between atoms: C8_11  and  N2_13 
REMARK    5  A    between atoms: N2_13  and  C9_15 
ROOT
HETATM    1  N1  UNL     1     -13.667  15.307  44.378  1.00  0.00    -0.366 N 
ATOM      2  H1  UNL     1     -13.804  14.704  45.190  1.00  0.00     0.161 HD
ENDROOT
BRANCH   1   3
HETATM    3  C7  UNL     1     -12.342  15.318  43.852  1.00  0.00     0.139 C 
BRANCH   3   4
HETATM    4  C6  UNL     1     -11.976  14.387  42.780  1.00  0.00     0.037 C 
HETATM    5  C1  UNL     1     -10.552  14.442  42.369  1.00  0.00     0.137 C 
HETATM    6  O1  UNL     1      -9.636  14.875  42.996  1.00  0.00    -0.297 OA
HETATM    7  C2  UNL     1     -10.522  13.844  41.019  1.00  0.00     0.083 C 
HETATM    8  C3  UNL     1     -11.974  13.803  40.580  1.00  0.00    -0.006 C 
HETATM    9  C4  UNL     1     -12.609  12.624  41.225  1.00  0.00     0.006 C 
HETATM   10  C15 UNL     1     -12.540  14.939  41.409  1.00  0.00     0.024 C 
HETATM   11  C5  UNL     1     -12.587  13.037  42.718  1.00  0.00     0.019 C 
ENDBRANCH   3   4
ENDBRANCH   1   3
BRANCH   1  12
HETATM   12  C8  UNL     1     -14.813  15.997  43.953  1.00  0.00     0.167 C 
HETATM   13  S1  UNL     1     -14.782  17.582  43.601  1.00  0.00    -0.041 SA
BRANCH  12  14
HETATM   14  N2  UNL     1     -16.058  15.268  43.870  1.00  0.00    -0.363 N 
ATOM     15  H2  UNL     1     -16.899  15.656  44.297  1.00  0.00     0.162 HD
BRANCH  14  16
HETATM   16  C9  UNL     1     -16.122  14.019  43.201  1.00  0.00     0.083 C 
HETATM   17  C10 UNL     1     -16.270  14.272  41.684  1.00  0.00     0.025 C 
HETATM   18  C11 UNL     1     -16.045  12.917  41.040  1.00  0.00     0.002 C 
HETATM   19  C12 UNL     1     -17.180  12.007  41.440  1.00  0.00     0.000 C 
HETATM   20  C13 UNL     1     -17.349  11.933  42.948  1.00  0.00     0.002 C 
HETATM   21  C14 UNL     1     -17.435  13.295  43.553  1.00  0.00     0.025 C 
ENDBRANCH  14  16
ENDBRANCH  12  14
ENDBRANCH   1  12
TORSDOF 5
ENDMDL
MODEL 4
REMARK VINA RESULT: -7.310347386      1.601      2.058
REMARK  5 active torsions:
REMARK  status: ('A' for Active; 'I' for Inactive)
REMARK    1  A    between atoms: C6_7  and  C7_8 
REMARK    2  A    between atoms: C7_8  and  N1_9 
REMARK    3  A    between atoms: N1_9  and  C8_11 
REMARK    4  A    between atoms: C8_11  and  N2_13 
REMARK    5  A    between atoms: N2_13  and  C9_15 
ROOT
HETATM    1  N1  UNL     1     -14.277  15.216  43.834  1.00  0.00    -0.366 N 
ATOM      2  H1  UNL     1     -14.792  15.010  44.691  1.00  0.00     0.161 HD
ENDROOT
BRANCH   1   3
HETATM    3  C7  UNL     1     -15.060  15.202  42.643  1.00  0.00     0.139 C 
BRANCH   3   4
HETATM    4  C6  UNL     1     -16.105  14.190  42.469  1.00  0.00     0.037 C 
HETATM    5  C1  UNL     1     -16.736  13.724  43.729  1.00  0.00     0.137 C 
HETATM    6  O1  UNL     1     -16.744  14.284  44.781  1.00  0.00    -0.297 OA
HETATM    7  C2  UNL     1     -17.346  12.423  43.392  1.00  0.00     0.083 C 
HETATM    8  C3  UNL     1     -16.732  12.040  42.058  1.00  0.00    -0.006 C 
HETATM    9  C4  UNL     1     -17.452  12.794  40.997  1.00  0.00     0.006 C 
HETATM   10  C15 UNL     1     -15.424  12.803  42.132  1.00  0.00     0.024 C 
HETATM   11  C5  UNL     1     -17.022  14.251  41.304  1.00  0.00     0.019 C 
ENDBRANCH   3   4
ENDBRANCH   1   3
BRANCH   1  12
HETATM   12  C8  UNL     1     -12.907  15.468  44.012  1.00  0.00     0.167 C 
HETATM   13  S1  UNL     1     -12.353  16.920  44.483  1.00  0.00    -0.041 SA
BRANCH  12  14
HETATM   14  N2  UNL     1     -11.975  14.403  43.723  1.00  0.00    -0.363 N 
ATOM     15  H2  UNL     1     -11.842  13.652  44.399  1.00  0.00     0.162 HD
BRANCH  14  16
HETATM   16  C9  UNL     1     -11.242  14.392  42.509  1.00  0.00     0.083 C 
HETATM   17  C10 UNL     1     -11.888  13.371  41.545  1.00  0.00     0.025 C 
HETATM   18  C11 UNL     1     -11.228  13.631  40.204  1.00  0.00     0.002 C 
HETATM   19  C12 UNL     1      -9.770  13.261  40.312  1.00  0.00     0.000 C 
HETATM   20  C13 UNL     1      -9.084  13.975  41.465  1.00  0.00     0.002 C 
HETATM   21  C14 UNL     1      -9.840  13.799  42.740  1.00  0.00     0.025 C 
ENDBRANCH  14  16
ENDBRANCH  12  14
ENDBRANCH   1  12
TORSDOF 5
ENDMDL
MODEL 5
REMARK VINA RESULT: -7.200061467      1.642      2.353
REMARK  5 active torsions:
REMARK  status: ('A' for Active; 'I' for Inactive)
REMARK    1  A    between atoms: C6_7  and  C7_8 
REMARK    2  A    between atoms: C7_8  and  N1_9 
REMARK    3  A    between atoms: N1_9  and  C8_11 
REMARK    4  A    between atoms: C8_11  and  N2_13 
REMARK    5  A    between atoms: N2_13  and  C9_15 
ROOT
HETATM    1  N1  UNL     1     -14.563  15.013  43.905  1.00  0.00    -0.366 N 
ATOM      2  H1  UNL     1     -14.761  14.285  44.591  1.00  0.00     0.161 HD
ENDROOT
BRANCH   1   3
HETATM    3  C7  UNL     1     -15.561  15.180  42.900  1.00  0.00     0.139 C 
BRANCH   3   4
HETATM    4  C6  UNL     1     -16.387  14.039  42.496  1.00  0.00     0.037 C 
HETATM    5  C1  UNL     1     -16.993  13.281  43.618  1.00  0.00     0.137 C 
HETATM    6  O1  UNL     1     -17.168  13.661  44.734  1.00  0.00    -0.297 OA
HETATM    7  C2  UNL     1     -17.327  11.960  43.050  1.00  0.00     0.083 C 
HETATM    8  C3  UNL     1     -16.575  11.902  41.733  1.00  0.00    -0.006 C 
HETATM    9  C4  UNL     1     -17.358  12.672  40.730  1.00  0.00     0.006 C 
HETATM   10  C15 UNL     1     -15.439  12.862  42.027  1.00  0.00     0.024 C 
HETATM   11  C5  UNL     1     -17.228  14.116  41.276  1.00  0.00     0.019 C 
ENDBRANCH   3   4
ENDBRANCH   1   3
BRANCH   1  12
HETATM   12  C8  UNL     1     -13.351  15.695  44.095  1.00  0.00     0.167 C 
HETATM   13  S1  UNL     1     -13.264  17.316  44.078  1.00  0.00    -0.041 SA
BRANCH  12  14
HETATM   14  N2  UNL     1     -12.149  14.914  44.270  1.00  0.00    -0.363 N 
ATOM     15  H2  UNL     1     -11.705  14.870  45.188  1.00  0.00     0.162 HD
BRANCH  14  16
HETATM   16  C9  UNL     1     -11.580  14.206  43.181  1.00  0.00     0.083 C 
HETATM   17  C10 UNL     1     -10.091  14.601  43.052  1.00  0.00     0.025 C 
HETATM   18  C11 UNL     1      -9.508  13.604  42.069  1.00  0.00     0.002 C 
HETATM   19  C12 UNL     1     -10.138  13.843  40.720  1.00  0.00     0.000 C 
HETATM   20  C13 UNL     1     -11.656  13.804  40.782  1.00  0.00     0.002 C 
HETATM   21  C14 UNL     1     -12.178  14.705  41.853  1.00  0.00     0.025 C 
ENDBRANCH  14  16
ENDBRANCH  12  14
ENDBRANCH   1  12
TORSDOF 5
ENDMDL
