MODEL 1
REMARK VINA RESULT: -6.151750106      0.000      0.000
REMARK  6 active torsions:
REMARK  status: ('A' for Active; 'I' for Inactive)
REMARK    1  A    between atoms: N1_2  and  C4_5 
REMARK    2  A    between atoms: C5_6  and  C6_7 
REMARK    3  A    between atoms: C6_7  and  N2_9 
REMARK    4  A    between atoms: C10_14  and  C11_15 
REMARK    5  A    between atoms: C11_15  and  N3_16 
REMARK       I    between atoms: N3_16  and  C12_18 
REMARK    6  A    between atoms: C12_18  and  C13_20 
ROOT
HETATM    1  N2  UNL     1      -3.764   5.730  -6.844  1.00  0.00    -0.328 N 
HETATM    2  C7  UNL     1      -2.539   6.286  -7.308  1.00  0.00     0.221 C 
HETATM    3  O1  UNL     1      -1.715   5.650  -8.039  1.00  0.00    -0.273 OA
HETATM    4  C8  UNL     1      -2.425   7.675  -6.796  1.00  0.00     0.105 C 
HETATM    5  C9  UNL     1      -3.711   7.864  -6.023  1.00  0.00     0.036 C 
HETATM    6  C10 UNL     1      -4.014   6.435  -5.574  1.00  0.00     0.107 C 
ENDROOT
BRANCH   1   7
HETATM    7  C6  UNL     1      -4.591   4.705  -7.462  1.00  0.00     0.184 C 
HETATM    8 BR1  UNL     1      -5.101   5.214  -9.260  1.00  0.00    -0.064 Br
BRANCH   7   9
HETATM    9  C5  UNL     1      -5.819   4.485  -6.690  1.00  0.00     0.035 C 
HETATM   10  C4  UNL     1      -6.761   3.636  -7.074  1.00  0.00     0.200 C 
BRANCH  10  11
HETATM   11  N1  UNL     1      -7.957   3.408  -6.342  1.00  0.00    -0.059 N 
HETATM   12  C1  UNL     1      -7.850   2.112  -5.692  1.00  0.00     0.277 C 
HETATM   13  C2  UNL     1      -9.124   3.370  -7.195  1.00  0.00     0.277 C 
HETATM   14  C3  UNL     1      -8.122   4.414  -5.298  1.00  0.00     0.277 C 
ENDBRANCH  10  11
ENDBRANCH   7   9
ENDBRANCH   1   7
BRANCH   6  15
HETATM   15  C11 UNL     1      -2.975   6.064  -4.564  1.00  0.00     0.148 C 
BRANCH  15  16
HETATM   16  N3  UNL     1      -3.397   5.223  -3.504  1.00  0.00    -0.357 N 
HETATM   17  C12 UNL     1      -3.326   5.664  -2.157  1.00  0.00     0.250 C 
HETATM   18  O2  UNL     1      -2.886   6.815  -1.895  1.00  0.00    -0.271 OA
ATOM     19  H3  UNL     1      -3.755   4.291  -3.712  1.00  0.00     0.162 HD
BRANCH  17  20
HETATM   20  C13 UNL     1      -3.757   4.808  -1.019  1.00  0.00     0.269 C 
HETATM   21 CL1  UNL     1      -4.386   5.833   0.287  1.00  0.00    -0.098 Cl
HETATM   22 CL2  UNL     1      -2.382   3.882  -0.349  1.00  0.00    -0.098 Cl
ENDBRANCH  17  20
ENDBRANCH  15  16
ENDBRANCH   6  15
TORSDOF 6
ENDMDL
MODEL 2
REMARK VINA RESULT: -6.087277993      3.621      4.982
REMARK  6 active torsions:
REMARK  status: ('A' for Active; 'I' for Inactive)
REMARK    1  A    between atoms: N1_2  and  C4_5 
REMARK    2  A    between atoms: C5_6  and  C6_7 
REMARK    3  A    between atoms: C6_7  and  N2_9 
REMARK    4  A    between atoms: C10_14  and  C11_15 
REMARK    5  A    between atoms: C11_15  and  N3_16 
REMARK       I    between atoms: N3_16  and  C12_18 
REMARK    6  A    between atoms: C12_18  and  C13_20 
ROOT
HETATM    1  N2  UNL     1      -3.332   4.887  -3.529  1.00  0.00    -0.328 N 
HETATM    2  C7  UNL     1      -4.051   3.659  -3.524  1.00  0.00     0.221 C 
HETATM    3  O1  UNL     1      -4.724   3.240  -4.518  1.00  0.00    -0.273 OA
HETATM    4  C8  UNL     1      -3.867   3.009  -2.202  1.00  0.00     0.105 C 
HETATM    5  C9  UNL     1      -2.954   3.966  -1.470  1.00  0.00     0.036 C 
HETATM    6  C10 UNL     1      -3.326   5.301  -2.115  1.00  0.00     0.107 C 
ENDROOT
BRANCH   1   7
HETATM    7  C6  UNL     1      -2.733   5.587  -4.655  1.00  0.00     0.184 C 
HETATM    8 BR1  UNL     1      -4.084   6.488  -5.712  1.00  0.00    -0.064 Br
BRANCH   7   9
HETATM    9  C5  UNL     1      -2.020   4.654  -5.535  1.00  0.00     0.035 C 
HETATM   10  C4  UNL     1      -2.446   4.356  -6.754  1.00  0.00     0.200 C 
BRANCH  10  11
HETATM   11  N1  UNL     1      -1.772   3.455  -7.622  1.00  0.00    -0.059 N 
HETATM   12  C1  UNL     1      -0.357   3.789  -7.608  1.00  0.00     0.277 C 
HETATM   13  C2  UNL     1      -2.229   3.563  -8.988  1.00  0.00     0.277 C 
HETATM   14  C3  UNL     1      -1.907   2.083  -7.146  1.00  0.00     0.277 C 
ENDBRANCH  10  11
ENDBRANCH   7   9
ENDBRANCH   1   7
BRANCH   6  15
HETATM   15  C11 UNL     1      -4.716   5.630  -1.669  1.00  0.00     0.148 C 
BRANCH  15  16
HETATM   16  N3  UNL     1      -4.856   6.108  -0.342  1.00  0.00    -0.357 N 
HETATM   17  C12 UNL     1      -5.637   5.398   0.606  1.00  0.00     0.250 C 
HETATM   18  O2  UNL     1      -6.213   4.328   0.271  1.00  0.00    -0.271 OA
ATOM     19  H3  UNL     1      -4.391   6.973  -0.066  1.00  0.00     0.162 HD
BRANCH  17  20
HETATM   20  C13 UNL     1      -5.809   5.871   2.006  1.00  0.00     0.269 C 
HETATM   21 CL1  UNL     1      -5.299   7.567   2.124  1.00  0.00    -0.098 Cl
HETATM   22 CL2  UNL     1      -4.789   4.933   3.136  1.00  0.00    -0.098 Cl
ENDBRANCH  17  20
ENDBRANCH  15  16
ENDBRANCH   6  15
TORSDOF 6
ENDMDL
MODEL 3
REMARK VINA RESULT: -6.011503235      3.203      4.166
REMARK  6 active torsions:
REMARK  status: ('A' for Active; 'I' for Inactive)
REMARK    1  A    between atoms: N1_2  and  C4_5 
REMARK    2  A    between atoms: C5_6  and  C6_7 
REMARK    3  A    between atoms: C6_7  and  N2_9 
REMARK    4  A    between atoms: C10_14  and  C11_15 
REMARK    5  A    between atoms: C11_15  and  N3_16 
REMARK       I    between atoms: N3_16  and  C12_18 
REMARK    6  A    between atoms: C12_18  and  C13_20 
ROOT
HETATM    1  N2  UNL     1      -3.876   4.036  -4.588  1.00  0.00    -0.328 N 
HETATM    2  C7  UNL     1      -2.536   4.279  -5.003  1.00  0.00     0.221 C 
HETATM    3  O1  UNL     1      -1.764   3.367  -5.439  1.00  0.00    -0.273 OA
HETATM    4  C8  UNL     1      -2.242   5.724  -4.831  1.00  0.00     0.105 C 
HETATM    5  C9  UNL     1      -3.547   6.282  -4.309  1.00  0.00     0.036 C 
HETATM    6  C10 UNL     1      -4.126   5.075  -3.573  1.00  0.00     0.107 C 
ENDROOT
BRANCH   1   7
HETATM    7  C6  UNL     1      -4.799   3.009  -5.045  1.00  0.00     0.184 C 
HETATM    8 BR1  UNL     1      -6.533   3.767  -5.461  1.00  0.00    -0.064 Br
BRANCH   7   9
HETATM    9  C5  UNL     1      -4.992   1.980  -4.017  1.00  0.00     0.035 C 
HETATM   10  C4  UNL     1      -3.997   1.238  -3.554  1.00  0.00     0.200 C 
BRANCH  10  11
HETATM   11  N1  UNL     1      -4.162   0.236  -2.560  1.00  0.00    -0.059 N 
HETATM   12  C1  UNL     1      -3.530   0.704  -1.338  1.00  0.00     0.277 C 
HETATM   13  C2  UNL     1      -3.530  -1.011  -2.926  1.00  0.00     0.277 C 
HETATM   14  C3  UNL     1      -5.577   0.025  -2.272  1.00  0.00     0.277 C 
ENDBRANCH  10  11
ENDBRANCH   7   9
ENDBRANCH   1   7
BRANCH   6  15
HETATM   15  C11 UNL     1      -3.265   4.840  -2.371  1.00  0.00     0.148 C 
BRANCH  15  16
HETATM   16  N3  UNL     1      -3.476   5.702  -1.266  1.00  0.00    -0.357 N 
HETATM   17  C12 UNL     1      -4.409   5.364  -0.252  1.00  0.00     0.250 C 
HETATM   18  O2  UNL     1      -5.059   4.287  -0.329  1.00  0.00    -0.271 OA
ATOM     19  H3  UNL     1      -2.952   6.574  -1.199  1.00  0.00     0.162 HD
BRANCH  17  20
HETATM   20  C13 UNL     1      -4.660   6.245   0.920  1.00  0.00     0.269 C 
HETATM   21 CL1  UNL     1      -4.063   5.453   2.393  1.00  0.00    -0.098 Cl
HETATM   22 CL2  UNL     1      -6.409   6.536   1.149  1.00  0.00    -0.098 Cl
ENDBRANCH  17  20
ENDBRANCH  15  16
ENDBRANCH   6  15
TORSDOF 6
ENDMDL
MODEL 4
REMARK VINA RESULT: -5.994869312      3.326      4.267
REMARK  6 active torsions:
REMARK  status: ('A' for Active; 'I' for Inactive)
REMARK    1  A    between atoms: N1_2  and  C4_5 
REMARK    2  A    between atoms: C5_6  and  C6_7 
REMARK    3  A    between atoms: C6_7  and  N2_9 
REMARK    4  A    between atoms: C10_14  and  C11_15 
REMARK    5  A    between atoms: C11_15  and  N3_16 
REMARK       I    between atoms: N3_16  and  C12_18 
REMARK    6  A    between atoms: C12_18  and  C13_20 
ROOT
HETATM    1  N2  UNL     1      -4.055   3.724  -4.405  1.00  0.00    -0.328 N 
HETATM    2  C7  UNL     1      -2.739   4.135  -4.759  1.00  0.00     0.221 C 
HETATM    3  O1  UNL     1      -1.859   3.339  -5.215  1.00  0.00    -0.273 OA
HETATM    4  C8  UNL     1      -2.612   5.591  -4.500  1.00  0.00     0.105 C 
HETATM    5  C9  UNL     1      -3.985   5.973  -3.996  1.00  0.00     0.036 C 
HETATM    6  C10 UNL     1      -4.448   4.670  -3.345  1.00  0.00     0.107 C 
ENDROOT
BRANCH   1   7
HETATM    7  C6  UNL     1      -4.846   2.631  -4.949  1.00  0.00     0.184 C 
HETATM    8 BR1  UNL     1      -6.595   3.248  -5.508  1.00  0.00    -0.064 Br
BRANCH   7   9
HETATM    9  C5  UNL     1      -5.039   1.574  -3.949  1.00  0.00     0.035 C 
HETATM   10  C4  UNL     1      -4.032   0.883  -3.436  1.00  0.00     0.200 C 
BRANCH  10  11
HETATM   11  N1  UNL     1      -4.197  -0.144  -2.468  1.00  0.00    -0.059 N 
HETATM   12  C1  UNL     1      -3.621   0.319  -1.216  1.00  0.00     0.277 C 
HETATM   13  C2  UNL     1      -3.512  -1.361  -2.837  1.00  0.00     0.277 C 
HETATM   14  C3  UNL     1      -5.613  -0.407  -2.233  1.00  0.00     0.277 C 
ENDBRANCH  10  11
ENDBRANCH   7   9
ENDBRANCH   1   7
BRANCH   6  15
HETATM   15  C11 UNL     1      -3.602   4.463  -2.129  1.00  0.00     0.148 C 
BRANCH  15  16
HETATM   16  N3  UNL     1      -4.283   4.417  -0.887  1.00  0.00    -0.357 N 
HETATM   17  C12 UNL     1      -4.464   5.595  -0.115  1.00  0.00     0.250 C 
HETATM   18  O2  UNL     1      -4.018   6.696  -0.535  1.00  0.00    -0.271 OA
ATOM     19  H3  UNL     1      -4.647   3.528  -0.543  1.00  0.00     0.162 HD
BRANCH  17  20
HETATM   20  C13 UNL     1      -5.171   5.585   1.193  1.00  0.00     0.269 C 
HETATM   21 CL1  UNL     1      -5.891   7.180   1.490  1.00  0.00    -0.098 Cl
HETATM   22 CL2  UNL     1      -4.038   5.259   2.538  1.00  0.00    -0.098 Cl
ENDBRANCH  17  20
ENDBRANCH  15  16
ENDBRANCH   6  15
TORSDOF 6
ENDMDL
MODEL 5
REMARK VINA RESULT: -5.959065761      1.541      2.025
REMARK  6 active torsions:
REMARK  status: ('A' for Active; 'I' for Inactive)
REMARK    1  A    between atoms: N1_2  and  C4_5 
REMARK    2  A    between atoms: C5_6  and  C6_7 
REMARK    3  A    between atoms: C6_7  and  N2_9 
REMARK    4  A    between atoms: C10_14  and  C11_15 
REMARK    5  A    between atoms: C11_15  and  N3_16 
REMARK       I    between atoms: N3_16  and  C12_18 
REMARK    6  A    between atoms: C12_18  and  C13_20 
ROOT
HETATM    1  N2  UNL     1      -4.128   4.793  -5.867  1.00  0.00    -0.328 N 
HETATM    2  C7  UNL     1      -2.723   4.702  -5.656  1.00  0.00     0.221 C 
HETATM    3  O1  UNL     1      -2.007   3.759  -6.121  1.00  0.00    -0.273 OA
HETATM    4  C8  UNL     1      -2.292   5.859  -4.832  1.00  0.00     0.105 C 
HETATM    5  C9  UNL     1      -3.575   6.630  -4.621  1.00  0.00     0.036 C 
HETATM    6  C10 UNL     1      -4.618   5.514  -4.679  1.00  0.00     0.107 C 
ENDROOT
BRANCH   1   7
HETATM    7  C6  UNL     1      -4.915   4.299  -6.986  1.00  0.00     0.184 C 
HETATM    8 BR1  UNL     1      -4.735   5.457  -8.529  1.00  0.00    -0.064 Br
BRANCH   7   9
HETATM    9  C5  UNL     1      -6.339   4.231  -6.638  1.00  0.00     0.035 C 
HETATM   10  C4  UNL     1      -7.111   3.212  -6.985  1.00  0.00     0.200 C 
BRANCH  10  11
HETATM   11  N1  UNL     1      -8.491   3.126  -6.658  1.00  0.00    -0.059 N 
HETATM   12  C1  UNL     1      -8.783   4.143  -5.661  1.00  0.00     0.277 C 
HETATM   13  C2  UNL     1      -8.842   1.846  -6.088  1.00  0.00     0.277 C 
HETATM   14  C3  UNL     1      -9.316   3.406  -7.829  1.00  0.00     0.277 C 
ENDBRANCH  10  11
ENDBRANCH   7   9
ENDBRANCH   1   7
BRANCH   6  15
HETATM   15  C11 UNL     1      -4.431   4.675  -3.454  1.00  0.00     0.148 C 
BRANCH  15  16
HETATM   16  N3  UNL     1      -4.933   5.210  -2.241  1.00  0.00    -0.357 N 
HETATM   17  C12 UNL     1      -4.065   5.467  -1.148  1.00  0.00     0.250 C 
HETATM   18  O2  UNL     1      -2.833   5.220  -1.252  1.00  0.00    -0.271 OA
ATOM     19  H3  UNL     1      -5.928   5.412  -2.152  1.00  0.00     0.162 HD
BRANCH  17  20
HETATM   20  C13 UNL     1      -4.555   6.024   0.141  1.00  0.00     0.269 C 
HETATM   21 CL1  UNL     1      -3.769   5.178   1.489  1.00  0.00    -0.098 Cl
HETATM   22 CL2  UNL     1      -6.318   5.781   0.321  1.00  0.00    -0.098 Cl
ENDBRANCH  17  20
ENDBRANCH  15  16
ENDBRANCH   6  15
TORSDOF 6
ENDMDL
