MODEL 1
REMARK VINA RESULT: -5.691874769      0.000      0.000
REMARK  6 active torsions:
REMARK  status: ('A' for Active; 'I' for Inactive)
REMARK    1  A    between atoms: N2_10  and  C7_11 
REMARK    2  A    between atoms: C7_11  and  O2_12 
REMARK    3  A    between atoms: C7_11  and  C8_14 
REMARK    4  A    between atoms: C7_11  and  C10_17 
REMARK    5  A    between atoms: C8_14  and  C9_15 
REMARK    6  A    between atoms: C10_17  and  C13_20 
ROOT
HETATM    1  C7  UNL     1      -3.453   5.572  -4.710  1.00  0.00     0.145 C 
ENDROOT
BRANCH   1   2
HETATM    2  N2  UNL     1      -3.319   4.830  -3.473  1.00  0.00    -0.301 N 
HETATM    3  C3  UNL     1      -3.263   3.458  -3.200  1.00  0.00     0.161 C 
HETATM    4  C2  UNL     1      -4.408   2.507  -3.215  1.00  0.00     0.154 C 
HETATM    5  C4  UNL     1      -3.533   3.338  -1.701  1.00  0.00     0.076 C 
HETATM    6  N1  UNL     1      -3.799   1.976  -1.978  1.00  0.00    -0.382 N 
HETATM    7  C1  UNL     1      -3.583   0.739  -1.367  1.00  0.00     0.149 C 
HETATM    8  C5  UNL     1      -3.328   4.474  -1.120  1.00  0.00     0.208 C 
HETATM    9  F1  UNL     1      -3.343   4.654   0.222  1.00  0.00    -0.198 F 
HETATM   10  C6  UNL     1      -3.180   5.473  -2.175  1.00  0.00     0.287 C 
HETATM   11  O1  UNL     1      -2.968   6.674  -1.890  1.00  0.00    -0.265 OA
ENDBRANCH   1   2
BRANCH   1  12
HETATM   12  O2  UNL     1      -2.649   6.749  -4.536  1.00  0.00    -0.370 OA
ATOM     13  H2  UNL     1      -2.717   7.223  -5.356  1.00  0.00     0.212 HD
ENDBRANCH   1  12
BRANCH   1  14
HETATM   14  C8  UNL     1      -4.813   6.126  -4.973  1.00  0.00     0.073 C 
BRANCH  14  15
HETATM   15  C9  UNL     1      -5.987   5.594  -4.271  1.00  0.00     0.090 C 
HETATM   16 BR1  UNL     1      -7.148   4.432  -5.253  1.00  0.00    -0.096 Br
ENDBRANCH  14  15
ENDBRANCH   1  14
BRANCH   1  17
HETATM   17  C10 UNL     1      -2.859   4.934  -5.919  1.00  0.00     0.012 C 
HETATM   18  C11 UNL     1      -2.729   6.046  -6.993  1.00  0.00     0.020 C 
HETATM   19  C12 UNL     1      -3.669   3.849  -6.568  1.00  0.00     0.020 C 
BRANCH  17  20
HETATM   20  C13 UNL     1      -1.476   4.403  -5.762  1.00  0.00     0.099 C 
HETATM   21 BR2  UNL     1      -0.653   3.780  -7.377  1.00  0.00    -0.096 Br
ENDBRANCH  17  20
ENDBRANCH   1  17
TORSDOF 6
ENDMDL
MODEL 2
REMARK VINA RESULT: -5.542743683      3.340      5.215
REMARK  6 active torsions:
REMARK  status: ('A' for Active; 'I' for Inactive)
REMARK    1  A    between atoms: N2_10  and  C7_11 
REMARK    2  A    between atoms: C7_11  and  O2_12 
REMARK    3  A    between atoms: C7_11  and  C8_14 
REMARK    4  A    between atoms: C7_11  and  C10_17 
REMARK    5  A    between atoms: C8_14  and  C9_15 
REMARK    6  A    between atoms: C10_17  and  C13_20 
ROOT
HETATM    1  C7  UNL     1      -4.609   4.935  -3.633  1.00  0.00     0.145 C 
ENDROOT
BRANCH   1   2
HETATM    2  N2  UNL     1      -3.611   4.983  -4.682  1.00  0.00    -0.301 N 
HETATM    3  C3  UNL     1      -3.177   6.016  -5.521  1.00  0.00     0.161 C 
HETATM    4  C2  UNL     1      -3.905   6.563  -6.699  1.00  0.00     0.154 C 
HETATM    5  C4  UNL     1      -2.422   5.321  -6.653  1.00  0.00     0.076 C 
HETATM    6  N1  UNL     1      -2.580   6.542  -7.351  1.00  0.00    -0.382 N 
HETATM    7  C1  UNL     1      -1.833   7.332  -8.228  1.00  0.00     0.149 C 
HETATM    8  C5  UNL     1      -2.082   4.127  -6.293  1.00  0.00     0.208 C 
HETATM    9  F1  UNL     1      -1.279   3.314  -7.019  1.00  0.00    -0.198 F 
HETATM   10  C6  UNL     1      -2.791   3.837  -5.050  1.00  0.00     0.287 C 
HETATM   11  O1  UNL     1      -2.644   2.736  -4.473  1.00  0.00    -0.265 OA
ENDBRANCH   1   2
BRANCH   1  12
HETATM   12  O2  UNL     1      -5.075   3.577  -3.615  1.00  0.00    -0.370 OA
ATOM     13  H2  UNL     1      -6.017   3.636  -3.509  1.00  0.00     0.212 HD
ENDBRANCH   1  12
BRANCH   1  14
HETATM   14  C8  UNL     1      -5.849   5.717  -3.902  1.00  0.00     0.073 C 
BRANCH  14  15
HETATM   15  C9  UNL     1      -6.978   5.111  -4.619  1.00  0.00     0.090 C 
HETATM   16 BR1  UNL     1      -8.731   5.761  -4.209  1.00  0.00    -0.096 Br
ENDBRANCH  14  15
ENDBRANCH   1  14
BRANCH   1  17
HETATM   17  C10 UNL     1      -4.103   5.135  -2.245  1.00  0.00     0.012 C 
HETATM   18  C11 UNL     1      -3.028   6.251  -2.318  1.00  0.00     0.020 C 
HETATM   19  C12 UNL     1      -3.414   3.962  -1.609  1.00  0.00     0.020 C 
BRANCH  17  20
HETATM   20  C13 UNL     1      -5.097   5.639  -1.256  1.00  0.00     0.099 C 
HETATM   21 BR2  UNL     1      -4.494   5.671   0.563  1.00  0.00    -0.096 Br
ENDBRANCH  17  20
ENDBRANCH   1  17
TORSDOF 6
ENDMDL
MODEL 3
REMARK VINA RESULT: -5.497972172      2.678      3.402
REMARK  6 active torsions:
REMARK  status: ('A' for Active; 'I' for Inactive)
REMARK    1  A    between atoms: N2_10  and  C7_11 
REMARK    2  A    between atoms: C7_11  and  O2_12 
REMARK    3  A    between atoms: C7_11  and  C8_14 
REMARK    4  A    between atoms: C7_11  and  C10_17 
REMARK    5  A    between atoms: C8_14  and  C9_15 
REMARK    6  A    between atoms: C10_17  and  C13_20 
ROOT
HETATM    1  C7  UNL     1      -3.791   4.628  -2.728  1.00  0.00     0.145 C 
ENDROOT
BRANCH   1   2
HETATM    2  N2  UNL     1      -3.771   3.183  -2.616  1.00  0.00    -0.301 N 
HETATM    3  C3  UNL     1      -4.029   2.164  -3.540  1.00  0.00     0.161 C 
HETATM    4  C2  UNL     1      -5.367   1.737  -4.034  1.00  0.00     0.154 C 
HETATM    5  C4  UNL     1      -4.239   0.906  -2.699  1.00  0.00     0.076 C 
HETATM    6  N1  UNL     1      -4.837   0.369  -3.863  1.00  0.00    -0.382 N 
HETATM    7  C1  UNL     1      -4.889  -0.862  -4.521  1.00  0.00     0.149 C 
HETATM    8  C5  UNL     1      -3.737   1.071  -1.519  1.00  0.00     0.208 C 
HETATM    9  F1  UNL     1      -3.636   0.089  -0.592  1.00  0.00    -0.198 F 
HETATM   10  C6  UNL     1      -3.412   2.489  -1.387  1.00  0.00     0.287 C 
HETATM   11  O1  UNL     1      -2.904   2.931  -0.332  1.00  0.00    -0.265 OA
ENDBRANCH   1   2
BRANCH   1  12
HETATM   12  O2  UNL     1      -2.551   5.070  -2.154  1.00  0.00    -0.370 OA
ATOM     13  H2  UNL     1      -2.579   6.018  -2.195  1.00  0.00     0.212 HD
ENDBRANCH   1  12
BRANCH   1  14
HETATM   14  C8  UNL     1      -4.817   5.313  -1.891  1.00  0.00     0.073 C 
BRANCH  14  15
HETATM   15  C9  UNL     1      -4.430   6.044  -0.678  1.00  0.00     0.090 C 
HETATM   16 BR1  UNL     1      -5.651   6.012   0.795  1.00  0.00    -0.096 Br
ENDBRANCH  14  15
ENDBRANCH   1  14
BRANCH   1  17
HETATM   17  C10 UNL     1      -3.733   5.173  -4.114  1.00  0.00     0.012 C 
HETATM   18  C11 UNL     1      -5.195   5.243  -4.627  1.00  0.00     0.020 C 
HETATM   19  C12 UNL     1      -2.997   4.345  -5.127  1.00  0.00     0.020 C 
BRANCH  17  20
HETATM   20  C13 UNL     1      -3.225   6.567  -4.245  1.00  0.00     0.099 C 
HETATM   21 BR2  UNL     1      -3.720   7.468  -5.862  1.00  0.00    -0.096 Br
ENDBRANCH  17  20
ENDBRANCH   1  17
TORSDOF 6
ENDMDL
MODEL 4
REMARK VINA RESULT: -5.462204549      2.343      3.735
REMARK  6 active torsions:
REMARK  status: ('A' for Active; 'I' for Inactive)
REMARK    1  A    between atoms: N2_10  and  C7_11 
REMARK    2  A    between atoms: C7_11  and  O2_12 
REMARK    3  A    between atoms: C7_11  and  C8_14 
REMARK    4  A    between atoms: C7_11  and  C10_17 
REMARK    5  A    between atoms: C8_14  and  C9_15 
REMARK    6  A    between atoms: C10_17  and  C13_20 
ROOT
HETATM    1  C7  UNL     1      -4.498   4.861  -4.632  1.00  0.00     0.145 C 
ENDROOT
BRANCH   1   2
HETATM    2  N2  UNL     1      -4.306   4.450  -3.256  1.00  0.00    -0.301 N 
HETATM    3  C3  UNL     1      -4.661   5.041  -2.038  1.00  0.00     0.161 C 
HETATM    4  C2  UNL     1      -3.994   6.206  -1.394  1.00  0.00     0.154 C 
HETATM    5  C4  UNL     1      -3.821   4.322  -0.984  1.00  0.00     0.076 C 
HETATM    6  N1  UNL     1      -4.139   5.421  -0.151  1.00  0.00    -0.382 N 
HETATM    7  C1  UNL     1      -4.441   5.640   1.195  1.00  0.00     0.149 C 
HETATM    8  C5  UNL     1      -3.391   3.196  -1.451  1.00  0.00     0.208 C 
HETATM    9  F1  UNL     1      -2.742   2.265  -0.713  1.00  0.00    -0.198 F 
HETATM   10  C6  UNL     1      -3.663   3.197  -2.886  1.00  0.00     0.287 C 
HETATM   11  O1  UNL     1      -3.347   2.215  -3.596  1.00  0.00    -0.265 OA
ENDBRANCH   1   2
BRANCH   1  12
HETATM   12  O2  UNL     1      -3.512   4.138  -5.385  1.00  0.00    -0.370 OA
ATOM     13  H2  UNL     1      -2.713   4.646  -5.306  1.00  0.00     0.212 HD
ENDBRANCH   1  12
BRANCH   1  14
HETATM   14  C8  UNL     1      -4.166   6.287  -4.918  1.00  0.00     0.073 C 
BRANCH  14  15
HETATM   15  C9  UNL     1      -2.913   6.645  -5.594  1.00  0.00     0.090 C 
HETATM   16 BR1  UNL     1      -3.030   7.823  -7.097  1.00  0.00    -0.096 Br
ENDBRANCH  14  15
ENDBRANCH   1  14
BRANCH   1  17
HETATM   17  C10 UNL     1      -5.781   4.440  -5.264  1.00  0.00     0.012 C 
HETATM   18  C11 UNL     1      -5.646   4.729  -6.782  1.00  0.00     0.020 C 
HETATM   19  C12 UNL     1      -7.013   5.178  -4.828  1.00  0.00     0.020 C 
BRANCH  17  20
HETATM   20  C13 UNL     1      -6.098   2.987  -5.187  1.00  0.00     0.099 C 
HETATM   21 BR2  UNL     1      -7.827   2.494  -5.850  1.00  0.00    -0.096 Br
ENDBRANCH  17  20
ENDBRANCH   1  17
TORSDOF 6
ENDMDL
MODEL 5
REMARK VINA RESULT: -5.456359150      3.150      4.754
REMARK  6 active torsions:
REMARK  status: ('A' for Active; 'I' for Inactive)
REMARK    1  A    between atoms: N2_10  and  C7_11 
REMARK    2  A    between atoms: C7_11  and  O2_12 
REMARK    3  A    between atoms: C7_11  and  C8_14 
REMARK    4  A    between atoms: C7_11  and  C10_17 
REMARK    5  A    between atoms: C8_14  and  C9_15 
REMARK    6  A    between atoms: C10_17  and  C13_20 
ROOT
HETATM    1  C7  UNL     1      -4.666   5.057  -3.943  1.00  0.00     0.145 C 
ENDROOT
BRANCH   1   2
HETATM    2  N2  UNL     1      -3.858   5.225  -5.135  1.00  0.00    -0.301 N 
HETATM    3  C3  UNL     1      -3.172   4.312  -5.943  1.00  0.00     0.161 C 
HETATM    4  C2  UNL     1      -1.886   3.635  -5.616  1.00  0.00     0.154 C 
HETATM    5  C4  UNL     1      -2.203   5.158  -6.768  1.00  0.00     0.076 C 
HETATM    6  N1  UNL     1      -1.535   3.936  -7.019  1.00  0.00    -0.382 N 
HETATM    7  C1  UNL     1      -0.869   3.325  -8.084  1.00  0.00     0.149 C 
HETATM    8  C5  UNL     1      -2.583   6.394  -6.770  1.00  0.00     0.208 C 
HETATM    9  F1  UNL     1      -2.015   7.361  -7.528  1.00  0.00    -0.198 F 
HETATM   10  C6  UNL     1      -3.632   6.520  -5.762  1.00  0.00     0.287 C 
HETATM   11  O1  UNL     1      -4.185   7.623  -5.552  1.00  0.00    -0.265 OA
ENDBRANCH   1   2
BRANCH   1  12
HETATM   12  O2  UNL     1      -5.090   3.686  -3.963  1.00  0.00    -0.370 OA
ATOM     13  H2  UNL     1      -5.637   3.603  -4.735  1.00  0.00     0.212 HD
ENDBRANCH   1  12
BRANCH   1  14
HETATM   14  C8  UNL     1      -5.952   5.811  -3.939  1.00  0.00     0.073 C 
BRANCH  14  15
HETATM   15  C9  UNL     1      -7.135   5.282  -4.628  1.00  0.00     0.090 C 
HETATM   16 BR1  UNL     1      -8.844   5.948  -4.081  1.00  0.00    -0.096 Br
ENDBRANCH  14  15
ENDBRANCH   1  14
BRANCH   1  17
HETATM   17  C10 UNL     1      -3.941   5.167  -2.646  1.00  0.00     0.012 C 
HETATM   18  C11 UNL     1      -5.007   5.479  -1.563  1.00  0.00     0.020 C 
HETATM   19  C12 UNL     1      -2.931   6.273  -2.537  1.00  0.00     0.020 C 
BRANCH  17  20
HETATM   20  C13 UNL     1      -3.273   3.925  -2.165  1.00  0.00     0.099 C 
HETATM   21 BR2  UNL     1      -2.604   4.000  -0.371  1.00  0.00    -0.096 Br
ENDBRANCH  17  20
ENDBRANCH   1  17
TORSDOF 6
ENDMDL
