MODEL 1
REMARK VINA RESULT: -8.160918660      0.000      0.000
REMARK  6 active torsions:
REMARK  status: ('A' for Active; 'I' for Inactive)
REMARK       I    between atoms: C1_4  and  N3_6 
REMARK    1  A    between atoms: N3_6  and  N4_8 
REMARK    2  A    between atoms: N4_8  and  C2_10 
REMARK    3  A    between atoms: C2_10  and  O1_11 
REMARK       I    between atoms: N5_13  and  C3_15 
REMARK    4  A    between atoms: C3_15  and  C4_17 
REMARK    5  A    between atoms: N6_21  and  S1_22 
REMARK    6  A    between atoms: S1_22  and  N7_23 
ROOT
HETATM    1  C2  UNL     1      14.107  11.363  58.933  1.00  0.00     0.238 C 
HETATM    2  N5  UNL     1      13.938  12.564  59.355  1.00  0.00    -0.290 N 
ATOM      3  H5  UNL     1      13.274  13.157  58.858  1.00  0.00     0.172 HD
HETATM    4  C3  UNL     1      14.617  13.114  60.466  1.00  0.00     0.243 C 
HETATM    5  O2  UNL     1      15.227  12.363  61.253  1.00  0.00    -0.271 OA
ENDROOT
BRANCH   1   6
HETATM    6  N4  UNL     1      13.385  10.890  57.809  1.00  0.00    -0.263 N 
ATOM      7  H4  UNL     1      12.721  10.122  57.902  1.00  0.00     0.190 HD
BRANCH   6   8
HETATM    8  N3  UNL     1      13.603  11.498  56.579  1.00  0.00    -0.271 N 
HETATM    9  C1  UNL     1      14.902  11.792  56.086  1.00  0.00     0.200 C 
HETATM   10  N1  UNL     1      15.546  10.869  55.456  1.00  0.00    -0.372 N 
HETATM   11  N2  UNL     1      15.488  13.080  56.280  1.00  0.00    -0.062 NA
ATOM     12  H12 UNL     1      16.479  11.080  55.102  1.00  0.00     0.158 HD
ATOM     13  H11 UNL     1      15.128   9.950  55.317  1.00  0.00     0.158 HD
ATOM     14  H3  UNL     1      12.796  11.743  56.006  1.00  0.00     0.189 HD
ENDBRANCH   6   8
ENDBRANCH   1   6
BRANCH   1  15
HETATM   15  O1  UNL     1      14.989  10.499  59.553  1.00  0.00    -0.331 OA
ATOM     16  H1  UNL     1      14.840  10.284  60.466  1.00  0.00     0.221 HD
ENDBRANCH   1  15
BRANCH   4  17
HETATM   17  C4  UNL     1      14.617  14.564  60.711  1.00  0.00     0.168 C 
HETATM   18  C5  UNL     1      16.026  15.083  61.027  1.00  0.00     0.032 C 
HETATM   19  C6  UNL     1      15.644  16.358  61.795  1.00  0.00     0.018 C 
HETATM   20  C7  UNL     1      14.558  15.793  62.688  1.00  0.00     0.110 C 
HETATM   21  N6  UNL     1      13.787  14.966  61.801  1.00  0.00    -0.180 NA
BRANCH  21  22
HETATM   22  S1  UNL     1      12.423  15.879  61.245  1.00  0.00     0.297 S 
HETATM   23  O3  UNL     1      12.826  17.258  60.798  1.00  0.00    -0.189 OA
HETATM   24  O4  UNL     1      11.405  16.029  62.339  1.00  0.00    -0.189 OA
BRANCH  22  25
HETATM   25  N7  UNL     1      11.638  15.076  59.929  1.00  0.00    -0.316 N 
ATOM     26  H72 UNL     1      11.224  14.147  59.999  1.00  0.00     0.170 HD
ATOM     27  H71 UNL     1      11.650  15.656  59.090  1.00  0.00     0.170 HD
ENDBRANCH  22  25
ENDBRANCH  21  22
ENDBRANCH   4  17
TORSDOF 6
ENDMDL
MODEL 2
REMARK VINA RESULT: -7.880081440      1.761      2.336
REMARK  6 active torsions:
REMARK  status: ('A' for Active; 'I' for Inactive)
REMARK       I    between atoms: C1_4  and  N3_6 
REMARK    1  A    between atoms: N3_6  and  N4_8 
REMARK    2  A    between atoms: N4_8  and  C2_10 
REMARK    3  A    between atoms: C2_10  and  O1_11 
REMARK       I    between atoms: N5_13  and  C3_15 
REMARK    4  A    between atoms: C3_15  and  C4_17 
REMARK    5  A    between atoms: N6_21  and  S1_22 
REMARK    6  A    between atoms: S1_22  and  N7_23 
ROOT
HETATM    1  C2  UNL     1      13.793  11.772  57.933  1.00  0.00     0.238 C 
HETATM    2  N5  UNL     1      14.175  12.789  58.619  1.00  0.00    -0.290 N 
ATOM      3  H5  UNL     1      15.044  13.250  58.350  1.00  0.00     0.172 HD
HETATM    4  C3  UNL     1      13.464  13.308  59.725  1.00  0.00     0.243 C 
HETATM    5  O2  UNL     1      12.285  12.954  59.924  1.00  0.00    -0.271 OA
ENDROOT
BRANCH   1   6
HETATM    6  N4  UNL     1      14.568  11.316  56.838  1.00  0.00    -0.263 N 
ATOM      7  H4  UNL     1      15.586  11.301  56.890  1.00  0.00     0.190 HD
BRANCH   6   8
HETATM    8  N3  UNL     1      13.908  10.891  55.692  1.00  0.00    -0.271 N 
HETATM    9  C1  UNL     1      13.874   9.531  55.285  1.00  0.00     0.200 C 
HETATM   10  N1  UNL     1      12.968   8.760  55.783  1.00  0.00    -0.372 N 
HETATM   11  N2  UNL     1      14.820   9.022  54.343  1.00  0.00    -0.062 NA
ATOM     12  H12 UNL     1      12.944   7.783  55.490  1.00  0.00     0.158 HD
ATOM     13  H11 UNL     1      12.293   9.123  56.455  1.00  0.00     0.158 HD
ATOM     14  H3  UNL     1      13.428  11.585  55.120  1.00  0.00     0.189 HD
ENDBRANCH   6   8
ENDBRANCH   1   6
BRANCH   1  15
HETATM   15  O1  UNL     1      12.628  11.096  58.235  1.00  0.00    -0.331 OA
ATOM     16  H1  UNL     1      12.348  11.066  59.143  1.00  0.00     0.221 HD
ENDBRANCH   1  15
BRANCH   4  17
HETATM   17  C4  UNL     1      14.092  14.264  60.648  1.00  0.00     0.168 C 
HETATM   18  C5  UNL     1      15.523  13.843  61.009  1.00  0.00     0.032 C 
HETATM   19  C6  UNL     1      15.663  14.593  62.342  1.00  0.00     0.018 C 
HETATM   20  C7  UNL     1      14.327  14.244  62.965  1.00  0.00     0.110 C 
HETATM   21  N6  UNL     1      13.396  14.419  61.884  1.00  0.00    -0.180 NA
BRANCH  21  22
HETATM   22  S1  UNL     1      12.692  15.997  62.014  1.00  0.00     0.297 S 
HETATM   23  O3  UNL     1      11.224  15.923  62.335  1.00  0.00    -0.189 OA
HETATM   24  O4  UNL     1      12.843  16.751  60.724  1.00  0.00    -0.189 OA
BRANCH  22  25
HETATM   25  N7  UNL     1      13.483  16.927  63.241  1.00  0.00    -0.316 N 
ATOM     26  H72 UNL     1      13.655  16.585  64.186  1.00  0.00     0.170 HD
ATOM     27  H71 UNL     1      13.746  17.847  62.887  1.00  0.00     0.170 HD
ENDBRANCH  22  25
ENDBRANCH  21  22
ENDBRANCH   4  17
TORSDOF 6
ENDMDL
MODEL 3
REMARK VINA RESULT: -7.879898583      1.547      1.796
REMARK  6 active torsions:
REMARK  status: ('A' for Active; 'I' for Inactive)
REMARK       I    between atoms: C1_4  and  N3_6 
REMARK    1  A    between atoms: N3_6  and  N4_8 
REMARK    2  A    between atoms: N4_8  and  C2_10 
REMARK    3  A    between atoms: C2_10  and  O1_11 
REMARK       I    between atoms: N5_13  and  C3_15 
REMARK    4  A    between atoms: C3_15  and  C4_17 
REMARK    5  A    between atoms: N6_21  and  S1_22 
REMARK    6  A    between atoms: S1_22  and  N7_23 
ROOT
HETATM    1  C2  UNL     1      14.501  11.643  58.125  1.00  0.00     0.238 C 
HETATM    2  N5  UNL     1      14.259  12.262  59.224  1.00  0.00    -0.290 N 
ATOM      3  H5  UNL     1      13.320  12.193  59.616  1.00  0.00     0.172 HD
HETATM    4  C3  UNL     1      15.215  13.034  59.922  1.00  0.00     0.243 C 
HETATM    5  O2  UNL     1      16.424  12.933  59.632  1.00  0.00    -0.271 OA
ENDROOT
BRANCH   1   6
HETATM    6  N4  UNL     1      13.483  10.890  57.488  1.00  0.00    -0.263 N 
ATOM      7  H4  UNL     1      12.794  10.377  58.037  1.00  0.00     0.190 HD
BRANCH   6   8
HETATM    8  N3  UNL     1      13.446  10.867  56.100  1.00  0.00    -0.271 N 
HETATM    9  C1  UNL     1      13.986   9.799  55.335  1.00  0.00     0.200 C 
HETATM   10  N1  UNL     1      13.249   8.763  55.116  1.00  0.00    -0.372 N 
HETATM   11  N2  UNL     1      15.314   9.865  54.815  1.00  0.00    -0.062 NA
ATOM     12  H12 UNL     1      13.637   7.996  54.566  1.00  0.00     0.158 HD
ATOM     13  H11 UNL     1      12.300   8.716  55.486  1.00  0.00     0.158 HD
ATOM     14  H3  UNL     1      13.014  11.650  55.610  1.00  0.00     0.189 HD
ENDBRANCH   6   8
ENDBRANCH   1   6
BRANCH   1  15
HETATM   15  O1  UNL     1      15.747  11.687  57.532  1.00  0.00    -0.331 OA
ATOM     16  H1  UNL     1      16.187  12.528  57.472  1.00  0.00     0.221 HD
ENDBRANCH   1  15
BRANCH   4  17
HETATM   17  C4  UNL     1      14.808  13.958  60.990  1.00  0.00     0.168 C 
HETATM   18  C5  UNL     1      15.682  13.796  62.241  1.00  0.00     0.032 C 
HETATM   19  C6  UNL     1      14.709  14.362  63.287  1.00  0.00     0.018 C 
HETATM   20  C7  UNL     1      13.440  13.659  62.851  1.00  0.00     0.110 C 
HETATM   21  N6  UNL     1      13.457  13.788  61.420  1.00  0.00    -0.180 NA
BRANCH  21  22
HETATM   22  S1  UNL     1      12.483  15.152  60.979  1.00  0.00     0.297 S 
HETATM   23  O3  UNL     1      13.331  16.327  60.573  1.00  0.00    -0.189 OA
HETATM   24  O4  UNL     1      11.622  15.582  62.131  1.00  0.00    -0.189 OA
BRANCH  22  25
HETATM   25  N7  UNL     1      11.421  14.755  59.672  1.00  0.00    -0.316 N 
ATOM     26  H72 UNL     1      11.557  15.078  58.714  1.00  0.00     0.170 HD
ATOM     27  H71 UNL     1      10.655  14.162  59.992  1.00  0.00     0.170 HD
ENDBRANCH  22  25
ENDBRANCH  21  22
ENDBRANCH   4  17
TORSDOF 6
ENDMDL
MODEL 4
REMARK VINA RESULT: -7.791881703      1.992      2.575
REMARK  6 active torsions:
REMARK  status: ('A' for Active; 'I' for Inactive)
REMARK       I    between atoms: C1_4  and  N3_6 
REMARK    1  A    between atoms: N3_6  and  N4_8 
REMARK    2  A    between atoms: N4_8  and  C2_10 
REMARK    3  A    between atoms: C2_10  and  O1_11 
REMARK       I    between atoms: N5_13  and  C3_15 
REMARK    4  A    between atoms: C3_15  and  C4_17 
REMARK    5  A    between atoms: N6_21  and  S1_22 
REMARK    6  A    between atoms: S1_22  and  N7_23 
ROOT
HETATM    1  C2  UNL     1      14.298  11.792  57.254  1.00  0.00     0.238 C 
HETATM    2  N5  UNL     1      14.056  12.256  58.427  1.00  0.00    -0.290 N 
ATOM      3  H5  UNL     1      13.089  12.256  58.752  1.00  0.00     0.172 HD
HETATM    4  C3  UNL     1      15.048  12.766  59.295  1.00  0.00     0.243 C 
HETATM    5  O2  UNL     1      16.252  12.546  59.056  1.00  0.00    -0.271 OA
ENDROOT
BRANCH   1   6
HETATM    6  N4  UNL     1      13.242  11.300  56.447  1.00  0.00    -0.263 N 
ATOM      7  H4  UNL     1      12.461  11.902  56.185  1.00  0.00     0.190 HD
BRANCH   6   8
HETATM    8  N3  UNL     1      13.296   9.979  56.021  1.00  0.00    -0.271 N 
HETATM    9  C1  UNL     1      12.675   8.917  56.731  1.00  0.00     0.200 C 
HETATM   10  N1  UNL     1      11.429   8.670  56.507  1.00  0.00    -0.372 N 
HETATM   11  N2  UNL     1      13.409   8.135  57.674  1.00  0.00    -0.062 NA
ATOM     12  H12 UNL     1      10.983   7.908  57.018  1.00  0.00     0.158 HD
ATOM     13  H11 UNL     1      10.904   9.228  55.834  1.00  0.00     0.158 HD
ATOM     14  H3  UNL     1      13.802   9.762  55.163  1.00  0.00     0.189 HD
ENDBRANCH   6   8
ENDBRANCH   1   6
BRANCH   1  15
HETATM   15  O1  UNL     1      15.580  11.758  56.743  1.00  0.00    -0.331 OA
ATOM     16  H1  UNL     1      15.691  11.569  55.818  1.00  0.00     0.221 HD
ENDBRANCH   1  15
BRANCH   4  17
HETATM   17  C4  UNL     1      14.683  13.555  60.480  1.00  0.00     0.168 C 
HETATM   18  C5  UNL     1      15.620  13.266  61.661  1.00  0.00     0.032 C 
HETATM   19  C6  UNL     1      14.694  13.692  62.810  1.00  0.00     0.018 C 
HETATM   20  C7  UNL     1      13.413  13.022  62.358  1.00  0.00     0.110 C 
HETATM   21  N6  UNL     1      13.358  13.314  60.952  1.00  0.00    -0.180 NA
BRANCH  21  22
HETATM   22  S1  UNL     1      12.347  14.702  60.718  1.00  0.00     0.297 S 
HETATM   23  O3  UNL     1      13.152  15.911  60.322  1.00  0.00    -0.189 OA
HETATM   24  O4  UNL     1      11.606  15.037  61.980  1.00  0.00    -0.189 OA
BRANCH  22  25
HETATM   25  N7  UNL     1      11.159  14.402  59.496  1.00  0.00    -0.316 N 
ATOM     26  H72 UNL     1      10.187  14.170  59.697  1.00  0.00     0.170 HD
ATOM     27  H71 UNL     1      11.566  14.490  58.565  1.00  0.00     0.170 HD
ENDBRANCH  22  25
ENDBRANCH  21  22
ENDBRANCH   4  17
TORSDOF 6
ENDMDL
MODEL 5
REMARK VINA RESULT: -7.784010116      0.900      1.069
REMARK  6 active torsions:
REMARK  status: ('A' for Active; 'I' for Inactive)
REMARK       I    between atoms: C1_4  and  N3_6 
REMARK    1  A    between atoms: N3_6  and  N4_8 
REMARK    2  A    between atoms: N4_8  and  C2_10 
REMARK    3  A    between atoms: C2_10  and  O1_11 
REMARK       I    between atoms: N5_13  and  C3_15 
REMARK    4  A    between atoms: C3_15  and  C4_17 
REMARK    5  A    between atoms: N6_21  and  S1_22 
REMARK    6  A    between atoms: S1_22  and  N7_23 
ROOT
HETATM    1  C2  UNL     1      13.982  11.446  58.929  1.00  0.00     0.238 C 
HETATM    2  N5  UNL     1      13.832  12.597  59.481  1.00  0.00    -0.290 N 
ATOM      3  H5  UNL     1      13.137  13.230  59.086  1.00  0.00     0.172 HD
HETATM    4  C3  UNL     1      14.572  13.039  60.601  1.00  0.00     0.243 C 
HETATM    5  O2  UNL     1      15.230  12.218  61.271  1.00  0.00    -0.271 OA
ENDROOT
BRANCH   1   6
HETATM    6  N4  UNL     1      13.197  11.083  57.807  1.00  0.00    -0.263 N 
ATOM      7  H4  UNL     1      12.432  10.415  57.900  1.00  0.00     0.190 HD
BRANCH   6   8
HETATM    8  N3  UNL     1      13.495  11.655  56.578  1.00  0.00    -0.271 N 
HETATM    9  C1  UNL     1      14.826  11.831  56.114  1.00  0.00     0.200 C 
HETATM   10  N1  UNL     1      15.404  10.850  55.508  1.00  0.00    -0.372 N 
HETATM   11  N2  UNL     1      15.516  13.066  56.311  1.00  0.00    -0.062 NA
ATOM     12  H12 UNL     1      16.360  10.976  55.176  1.00  0.00     0.158 HD
ATOM     13  H11 UNL     1      14.911   9.968  55.368  1.00  0.00     0.158 HD
ATOM     14  H3  UNL     1      12.726  11.962  55.983  1.00  0.00     0.189 HD
ENDBRANCH   6   8
ENDBRANCH   1   6
BRANCH   1  15
HETATM   15  O1  UNL     1      14.902  10.533  59.406  1.00  0.00    -0.331 OA
ATOM     16  H1  UNL     1      15.205   9.852  58.818  1.00  0.00     0.221 HD
ENDBRANCH   1  15
BRANCH   4  17
HETATM   17  C4  UNL     1      14.579  14.455  60.993  1.00  0.00     0.168 C 
HETATM   18  C5  UNL     1      15.969  14.904  61.464  1.00  0.00     0.032 C 
HETATM   19  C6  UNL     1      15.552  16.105  62.327  1.00  0.00     0.018 C 
HETATM   20  C7  UNL     1      14.391  15.482  63.075  1.00  0.00     0.110 C 
HETATM   21  N6  UNL     1      13.676  14.768  62.052  1.00  0.00    -0.180 NA
BRANCH  21  22
HETATM   22  S1  UNL     1      12.375  15.767  61.492  1.00  0.00     0.297 S 
HETATM   23  O3  UNL     1      11.309  15.926  62.543  1.00  0.00    -0.189 OA
HETATM   24  O4  UNL     1      11.734  15.167  60.274  1.00  0.00    -0.189 OA
BRANCH  22  25
HETATM   25  N7  UNL     1      12.950  17.335  61.043  1.00  0.00    -0.316 N 
ATOM     26  H72 UNL     1      13.934  17.555  60.889  1.00  0.00     0.170 HD
ATOM     27  H71 UNL     1      12.177  17.995  60.954  1.00  0.00     0.170 HD
ENDBRANCH  22  25
ENDBRANCH  21  22
ENDBRANCH   4  17
TORSDOF 6
ENDMDL
