MODEL 1
REMARK VINA RESULT: -3.960056931      0.000      0.000
REMARK  7 active torsions:
REMARK  status: ('A' for Active; 'I' for Inactive)
REMARK    1  A    between atoms: C2_2  and  C3_3 
REMARK    2  A    between atoms: C2_2  and  N2_9 
REMARK    3  A    between atoms: C3_3  and  N1_4 
REMARK    4  A    between atoms: N1_4  and  C4_7 
REMARK    5  A    between atoms: N3_11  and  C6_13 
REMARK    6  A    between atoms: C9_17  and  O1_18 
REMARK    7  A    between atoms: C10_20  and  O2_22 
ROOT
HETATM    1  N2  UNL     1     -34.905  21.523 -24.281  1.00  0.00    -0.306 N 
ATOM      2  H2  UNL     1     -35.349  22.103 -24.994  1.00  0.00     0.186 HD
HETATM    3  N3  UNL     1     -34.660  21.937 -23.139  1.00  0.00    -0.301 N 
ATOM      4  H3  UNL     1     -34.215  21.239 -22.544  1.00  0.00     0.182 HD
ENDROOT
BRANCH   3   5
HETATM    5  C6  UNL     1     -34.870  23.177 -22.491  1.00  0.00     0.372 C 
HETATM    6  N4  UNL     1     -33.929  23.396 -21.398  1.00  0.00     0.114 N 
HETATM    7  C7  UNL     1     -33.735  22.177 -20.633  1.00  0.00     0.312 C 
HETATM    8  C8  UNL     1     -34.617  24.362 -20.577  1.00  0.00     0.309 C 
HETATM    9  C9  UNL     1     -36.048  23.882 -20.570  1.00  0.00     0.184 C 
HETATM   10  C10 UNL     1     -36.254  23.247 -21.927  1.00  0.00     0.131 C 
HETATM   11  C11 UNL     1     -37.121  24.125 -22.812  1.00  0.00     0.053 C 
BRANCH   9  12
HETATM   12  O1  UNL     1     -36.243  22.984 -19.537  1.00  0.00    -0.391 OA
ATOM     13  H1  UNL     1     -35.889  22.135 -19.771  1.00  0.00     0.210 HD
ENDBRANCH   9  12
BRANCH  10  14
HETATM   14  O2  UNL     1     -36.868  22.022 -21.833  1.00  0.00    -0.383 OA
ATOM     15  H2  UNL     1     -37.266  21.736 -22.648  1.00  0.00     0.210 HD
ENDBRANCH  10  14
ENDBRANCH   3   5
BRANCH   1  16
HETATM   16  C2  UNL     1     -34.510  20.147 -24.522  1.00  0.00     0.041 C 
HETATM   17  C1  UNL     1     -34.325  19.372 -23.469  1.00  0.00     0.041 C 
BRANCH  16  18
HETATM   18  C3  UNL     1     -34.316  19.674 -25.915  1.00  0.00     0.289 C 
BRANCH  18  19
HETATM   19  N1  UNL     1     -33.750  18.336 -25.844  1.00  0.00    -0.070 N 
ATOM     20  H12 UNL     1     -32.737  18.376 -25.729  1.00  0.00     0.277 HD
ATOM     21  H11 UNL     1     -34.000  17.883 -24.965  1.00  0.00     0.277 HD
BRANCH  19  22
HETATM   22  C4  UNL     1     -34.108  17.503 -26.973  1.00  0.00     0.228 C 
HETATM   23  C5  UNL     1     -35.618  17.362 -27.006  1.00  0.00     0.034 C 
ENDBRANCH  19  22
ENDBRANCH  18  19
ENDBRANCH  16  18
ENDBRANCH   1  16
TORSDOF 7
ENDMDL
MODEL 2
REMARK VINA RESULT: -3.645031820      3.423      4.547
REMARK  7 active torsions:
REMARK  status: ('A' for Active; 'I' for Inactive)
REMARK    1  A    between atoms: C2_2  and  C3_3 
REMARK    2  A    between atoms: C2_2  and  N2_9 
REMARK    3  A    between atoms: C3_3  and  N1_4 
REMARK    4  A    between atoms: N1_4  and  C4_7 
REMARK    5  A    between atoms: N3_11  and  C6_13 
REMARK    6  A    between atoms: C9_17  and  O1_18 
REMARK    7  A    between atoms: C10_20  and  O2_22 
ROOT
HETATM    1  N2  UNL     1     -33.775  19.388 -25.357  1.00  0.00    -0.306 N 
ATOM      2  H2  UNL     1     -34.033  20.370 -25.458  1.00  0.00     0.186 HD
HETATM    3  N3  UNL     1     -32.978  18.990 -24.496  1.00  0.00    -0.301 N 
ATOM      4  H3  UNL     1     -32.824  17.983 -24.522  1.00  0.00     0.182 HD
ENDROOT
BRANCH   3   5
HETATM    5  C6  UNL     1     -32.237  19.645 -23.484  1.00  0.00     0.372 C 
HETATM    6  N4  UNL     1     -30.884  19.115 -23.358  1.00  0.00     0.114 N 
HETATM    7  C7  UNL     1     -30.885  17.667 -23.462  1.00  0.00     0.312 C 
HETATM    8  C8  UNL     1     -30.522  19.489 -22.013  1.00  0.00     0.309 C 
HETATM    9  C9  UNL     1     -31.770  19.216 -21.209  1.00  0.00     0.184 C 
HETATM   10  C10 UNL     1     -32.914  19.496 -22.157  1.00  0.00     0.131 C 
HETATM   11  C11 UNL     1     -33.616  20.792 -21.794  1.00  0.00     0.053 C 
BRANCH   9  12
HETATM   12  O1  UNL     1     -31.770  17.908 -20.760  1.00  0.00    -0.391 OA
ATOM     13  H1  UNL     1     -31.693  17.311 -21.495  1.00  0.00     0.210 HD
ENDBRANCH   9  12
BRANCH  10  14
HETATM   14  O2  UNL     1     -33.857  18.497 -22.135  1.00  0.00    -0.383 OA
ATOM     15  H2  UNL     1     -34.127  18.252 -21.257  1.00  0.00     0.210 HD
ENDBRANCH  10  14
ENDBRANCH   3   5
BRANCH   1  16
HETATM   16  C2  UNL     1     -34.313  18.343 -26.209  1.00  0.00     0.041 C 
HETATM   17  C1  UNL     1     -35.462  17.797 -25.854  1.00  0.00     0.041 C 
BRANCH  16  18
HETATM   18  C3  UNL     1     -33.560  17.922 -27.416  1.00  0.00     0.289 C 
BRANCH  18  19
HETATM   19  N1  UNL     1     -33.851  16.514 -27.639  1.00  0.00    -0.070 N 
ATOM     20  H12 UNL     1     -32.990  15.968 -27.679  1.00  0.00     0.277 HD
ATOM     21  H11 UNL     1     -34.276  16.096 -26.812  1.00  0.00     0.277 HD
BRANCH  19  22
HETATM   22  C4  UNL     1     -34.666  16.278 -28.813  1.00  0.00     0.228 C 
HETATM   23  C5  UNL     1     -35.489  15.025 -28.582  1.00  0.00     0.034 C 
ENDBRANCH  19  22
ENDBRANCH  18  19
ENDBRANCH  16  18
ENDBRANCH   1  16
TORSDOF 7
ENDMDL
MODEL 3
REMARK VINA RESULT: -3.500303310      1.376      2.530
REMARK  7 active torsions:
REMARK  status: ('A' for Active; 'I' for Inactive)
REMARK    1  A    between atoms: C2_2  and  C3_3 
REMARK    2  A    between atoms: C2_2  and  N2_9 
REMARK    3  A    between atoms: C3_3  and  N1_4 
REMARK    4  A    between atoms: N1_4  and  C4_7 
REMARK    5  A    between atoms: N3_11  and  C6_13 
REMARK    6  A    between atoms: C9_17  and  O1_18 
REMARK    7  A    between atoms: C10_20  and  O2_22 
ROOT
HETATM    1  N2  UNL     1     -34.983  21.636 -24.151  1.00  0.00    -0.306 N 
ATOM      2  H2  UNL     1     -35.522  22.174 -24.831  1.00  0.00     0.186 HD
HETATM    3  N3  UNL     1     -34.691  22.074 -23.030  1.00  0.00    -0.301 N 
ATOM      4  H3  UNL     1     -34.150  21.418 -22.468  1.00  0.00     0.182 HD
ENDROOT
BRANCH   3   5
HETATM    5  C6  UNL     1     -34.954  23.296 -22.368  1.00  0.00     0.372 C 
HETATM    6  N4  UNL     1     -33.998  23.564 -21.299  1.00  0.00     0.114 N 
HETATM    7  C7  UNL     1     -33.713  22.355 -20.547  1.00  0.00     0.312 C 
HETATM    8  C8  UNL     1     -34.717  24.484 -20.453  1.00  0.00     0.309 C 
HETATM    9  C9  UNL     1     -36.118  23.923 -20.410  1.00  0.00     0.184 C 
HETATM   10  C10 UNL     1     -36.324  23.284 -21.765  1.00  0.00     0.131 C 
HETATM   11  C11 UNL     1     -37.264  24.114 -22.620  1.00  0.00     0.053 C 
BRANCH   9  12
HETATM   12  O1  UNL     1     -36.232  23.010 -19.378  1.00  0.00    -0.391 OA
ATOM     13  H1  UNL     1     -36.923  23.275 -18.783  1.00  0.00     0.210 HD
ENDBRANCH   9  12
BRANCH  10  14
HETATM   14  O2  UNL     1     -36.864  22.025 -21.664  1.00  0.00    -0.383 OA
ATOM     15  H2  UNL     1     -37.340  21.882 -20.853  1.00  0.00     0.210 HD
ENDBRANCH  10  14
ENDBRANCH   3   5
BRANCH   1  16
HETATM   16  C2  UNL     1     -34.496  20.295 -24.421  1.00  0.00     0.041 C 
HETATM   17  C1  UNL     1     -34.351  19.940 -25.685  1.00  0.00     0.041 C 
BRANCH  16  18
HETATM   18  C3  UNL     1     -34.199  19.382 -23.290  1.00  0.00     0.289 C 
BRANCH  18  19
HETATM   19  N1  UNL     1     -32.754  19.347 -23.128  1.00  0.00    -0.070 N 
ATOM     20  H12 UNL     1     -32.350  18.566 -23.645  1.00  0.00     0.277 HD
ATOM     21  H11 UNL     1     -32.315  20.121 -23.624  1.00  0.00     0.277 HD
BRANCH  19  22
HETATM   22  C4  UNL     1     -32.335  19.320 -21.741  1.00  0.00     0.228 C 
HETATM   23  C5  UNL     1     -30.888  18.870 -21.686  1.00  0.00     0.034 C 
ENDBRANCH  19  22
ENDBRANCH  18  19
ENDBRANCH  16  18
ENDBRANCH   1  16
TORSDOF 7
ENDMDL
MODEL 4
REMARK VINA RESULT: -3.067210385      4.073      7.234
REMARK  7 active torsions:
REMARK  status: ('A' for Active; 'I' for Inactive)
REMARK    1  A    between atoms: C2_2  and  C3_3 
REMARK    2  A    between atoms: C2_2  and  N2_9 
REMARK    3  A    between atoms: C3_3  and  N1_4 
REMARK    4  A    between atoms: N1_4  and  C4_7 
REMARK    5  A    between atoms: N3_11  and  C6_13 
REMARK    6  A    between atoms: C9_17  and  O1_18 
REMARK    7  A    between atoms: C10_20  and  O2_22 
ROOT
HETATM    1  N2  UNL     1     -34.482  18.785 -24.524  1.00  0.00    -0.306 N 
ATOM      2  H2  UNL     1     -35.317  18.508 -24.008  1.00  0.00     0.186 HD
HETATM    3  N3  UNL     1     -34.165  18.278 -25.609  1.00  0.00    -0.301 N 
ATOM      4  H3  UNL     1     -33.304  18.660 -25.998  1.00  0.00     0.182 HD
ENDROOT
BRANCH   3   5
HETATM    5  C6  UNL     1     -34.752  17.276 -26.418  1.00  0.00     0.372 C 
HETATM    6  N4  UNL     1     -33.759  16.538 -27.191  1.00  0.00     0.114 N 
HETATM    7  C7  UNL     1     -32.751  17.435 -27.727  1.00  0.00     0.312 C 
HETATM    8  C8  UNL     1     -34.539  16.003 -28.280  1.00  0.00     0.309 C 
HETATM    9  C9  UNL     1     -35.449  17.142 -28.671  1.00  0.00     0.184 C 
HETATM   10  C10 UNL     1     -35.725  17.882 -27.381  1.00  0.00     0.131 C 
HETATM   11  C11 UNL     1     -37.142  17.627 -26.900  1.00  0.00     0.053 C 
BRANCH   9  12
HETATM   12  O1  UNL     1     -34.831  17.944 -29.612  1.00  0.00    -0.391 OA
ATOM     13  H1  UNL     1     -34.469  18.717 -29.196  1.00  0.00     0.210 HD
ENDBRANCH   9  12
BRANCH  10  14
HETATM   14  O2  UNL     1     -35.576  19.240 -27.525  1.00  0.00    -0.383 OA
ATOM     15  H2  UNL     1     -36.093  19.744 -26.907  1.00  0.00     0.210 HD
ENDBRANCH  10  14
ENDBRANCH   3   5
BRANCH   1  16
HETATM   16  C2  UNL     1     -33.567  19.807 -24.046  1.00  0.00     0.041 C 
HETATM   17  C1  UNL     1     -32.800  20.405 -24.940  1.00  0.00     0.041 C 
BRANCH  16  18
HETATM   18  C3  UNL     1     -33.515  20.124 -22.598  1.00  0.00     0.289 C 
BRANCH  18  19
HETATM   19  N1  UNL     1     -32.920  18.981 -21.924  1.00  0.00    -0.070 N 
ATOM     20  H12 UNL     1     -33.576  18.571 -21.259  1.00  0.00     0.277 HD
ATOM     21  H11 UNL     1     -32.819  18.194 -22.565  1.00  0.00     0.277 HD
BRANCH  19  22
HETATM   22  C4  UNL     1     -31.658  19.288 -21.283  1.00  0.00     0.228 C 
HETATM   23  C5  UNL     1     -30.544  18.630 -22.074  1.00  0.00     0.034 C 
ENDBRANCH  19  22
ENDBRANCH  18  19
ENDBRANCH  16  18
ENDBRANCH   1  16
TORSDOF 7
ENDMDL
MODEL 5
REMARK VINA RESULT: -2.829309932      2.868      3.902
REMARK  7 active torsions:
REMARK  status: ('A' for Active; 'I' for Inactive)
REMARK    1  A    between atoms: C2_2  and  C3_3 
REMARK    2  A    between atoms: C2_2  and  N2_9 
REMARK    3  A    between atoms: C3_3  and  N1_4 
REMARK    4  A    between atoms: N1_4  and  C4_7 
REMARK    5  A    between atoms: N3_11  and  C6_13 
REMARK    6  A    between atoms: C9_17  and  O1_18 
REMARK    7  A    between atoms: C10_20  and  O2_22 
ROOT
HETATM    1  N2  UNL     1     -34.445  18.887 -24.092  1.00  0.00    -0.306 N 
ATOM      2  H2  UNL     1     -35.222  18.299 -23.790  1.00  0.00     0.186 HD
HETATM    3  N3  UNL     1     -33.707  19.483 -23.296  1.00  0.00    -0.301 N 
ATOM      4  H3  UNL     1     -32.977  20.030 -23.752  1.00  0.00     0.182 HD
ENDROOT
BRANCH   3   5
HETATM    5  C6  UNL     1     -33.668  19.563 -21.884  1.00  0.00     0.372 C 
HETATM    6  N4  UNL     1     -34.176  20.837 -21.387  1.00  0.00     0.114 N 
HETATM    7  C7  UNL     1     -33.703  21.936 -22.209  1.00  0.00     0.312 C 
HETATM    8  C8  UNL     1     -33.570  20.932 -20.082  1.00  0.00     0.309 C 
HETATM    9  C9  UNL     1     -32.157  20.447 -20.299  1.00  0.00     0.184 C 
HETATM   10  C10 UNL     1     -32.265  19.402 -21.387  1.00  0.00     0.131 C 
HETATM   11  C11 UNL     1     -32.082  18.006 -20.820  1.00  0.00     0.053 C 
BRANCH   9  12
HETATM   12  O1  UNL     1     -31.343  21.503 -20.666  1.00  0.00    -0.391 OA
ATOM     13  H1  UNL     1     -31.348  21.606 -21.610  1.00  0.00     0.210 HD
ENDBRANCH   9  12
BRANCH  10  14
HETATM   14  O2  UNL     1     -31.317  19.578 -22.365  1.00  0.00    -0.383 OA
ATOM     15  H2  UNL     1     -31.080  20.488 -22.503  1.00  0.00     0.210 HD
ENDBRANCH  10  14
ENDBRANCH   3   5
BRANCH   1  16
HETATM   16  C2  UNL     1     -34.114  19.093 -25.491  1.00  0.00     0.041 C 
HETATM   17  C1  UNL     1     -33.247  20.047 -25.779  1.00  0.00     0.041 C 
BRANCH  16  18
HETATM   18  C3  UNL     1     -34.761  18.253 -26.529  1.00  0.00     0.289 C 
BRANCH  18  19
HETATM   19  N1  UNL     1     -33.751  17.342 -27.042  1.00  0.00    -0.070 N 
ATOM     20  H12 UNL     1     -32.998  17.855 -27.500  1.00  0.00     0.277 HD
ATOM     21  H11 UNL     1     -33.224  16.918 -26.279  1.00  0.00     0.277 HD
BRANCH  19  22
HETATM   22  C4  UNL     1     -34.292  16.326 -27.921  1.00  0.00     0.228 C 
HETATM   23  C5  UNL     1     -35.789  16.241 -27.693  1.00  0.00     0.034 C 
ENDBRANCH  19  22
ENDBRANCH  18  19
ENDBRANCH  16  18
ENDBRANCH   1  16
TORSDOF 7
ENDMDL
