MODEL 1
REMARK VINA RESULT: -5.342247060      0.000      0.000
REMARK  1 active torsions:
REMARK  status: ('A' for Active; 'I' for Inactive)
REMARK    1  A    between atoms: C12_14  and  N1_15 
ROOT
HETATM    1  C1  UNL     1      20.971  -1.813  23.827  1.00  0.00     0.034 C 
HETATM    2  C2  UNL     1      22.186  -0.856  23.757  1.00  0.00     0.063 C 
HETATM    3 CL1  UNL     1      23.421  -1.812  22.851  1.00  0.00    -0.117 Cl
HETATM    4  C3  UNL     1      22.674  -0.776  25.169  1.00  0.00     0.033 C 
HETATM    5  C4  UNL     1      21.958   0.254  25.892  1.00  0.00     0.008 A 
HETATM    6  C5  UNL     1      22.285   1.150  26.952  1.00  0.00     0.027 A 
HETATM    7  C6  UNL     1      22.865   1.504  25.634  1.00  0.00     0.023 A 
HETATM    8 BR1  UNL     1      24.773   1.263  25.689  1.00  0.00    -0.085 Br
HETATM    9  C7  UNL     1      22.201   2.225  24.564  1.00  0.00     0.035 C 
HETATM   10  C8  UNL     1      22.346   1.660  23.142  1.00  0.00     0.011 C 
HETATM   11  C9  UNL     1      23.756   1.717  22.711  1.00  0.00     0.020 C 
HETATM   12  C10 UNL     1      24.123   1.944  21.305  1.00  0.00     0.024 A 
HETATM   13  C11 UNL     1      23.548   1.461  20.091  1.00  0.00     0.046 A 
HETATM   14  C12 UNL     1      23.281   2.888  20.620  1.00  0.00     0.129 A 
HETATM   15  C13 UNL     1      21.953   3.218  21.155  1.00  0.00     0.062 C 
HETATM   16  C14 UNL     1      21.411   2.499  22.302  1.00  0.00     0.054 C 
HETATM   17 BR2  UNL     1      20.447   3.845  23.366  1.00  0.00    -0.083 Br
HETATM   18  C15 UNL     1      20.288   1.524  21.908  1.00  0.00     0.254 C 
HETATM   19  N2  UNL     1      20.322   0.594  23.051  1.00  0.00    -0.067 N 
ATOM     20  H21 UNL     1      19.688  -0.204  23.013  1.00  0.00     0.277 HD
ATOM     21  H22 UNL     1      19.941   0.937  23.934  1.00  0.00     0.277 HD
HETATM   22  C16 UNL     1      21.771   0.298  23.020  1.00  0.00     0.219 C 
ENDROOT
BRANCH  14  23
HETATM   23  N1  UNL     1      23.900   3.928  19.782  1.00  0.00    -0.070 N 
ATOM     24  H13 UNL     1      23.815   4.827  20.258  1.00  0.00     0.275 HD
ATOM     25  H12 UNL     1      24.912   3.794  19.788  1.00  0.00     0.275 HD
ATOM     26  H11 UNL     1      23.591   4.039  18.817  1.00  0.00     0.275 HD
ENDBRANCH  14  23
TORSDOF 1
ENDMDL
MODEL 2
REMARK VINA RESULT: -4.995366527      2.555      3.916
REMARK  1 active torsions:
REMARK  status: ('A' for Active; 'I' for Inactive)
REMARK    1  A    between atoms: C12_14  and  N1_15 
ROOT
HETATM    1  C1  UNL     1      23.925   0.862  24.523  1.00  0.00     0.034 C 
HETATM    2  C2  UNL     1      22.754   1.731  24.004  1.00  0.00     0.063 C 
HETATM    3 CL1  UNL     1      22.596   3.016  25.263  1.00  0.00    -0.117 Cl
HETATM    4  C3  UNL     1      21.550   0.854  24.151  1.00  0.00     0.033 C 
HETATM    5  C4  UNL     1      21.392   0.017  22.980  1.00  0.00     0.008 A 
HETATM    6  C5  UNL     1      20.277  -0.539  22.285  1.00  0.00     0.027 A 
HETATM    7  C6  UNL     1      20.480   0.914  22.076  1.00  0.00     0.023 A 
HETATM    8 BR1  UNL     1      19.051   1.888  22.918  1.00  0.00    -0.085 Br
HETATM    9  C7  UNL     1      21.392   1.532  21.132  1.00  0.00     0.035 C 
HETATM   10  C8  UNL     1      22.255   2.695  21.646  1.00  0.00     0.011 C 
HETATM   11  C9  UNL     1      21.399   3.836  22.025  1.00  0.00     0.020 C 
HETATM   12  C10 UNL     1      21.852   5.226  21.864  1.00  0.00     0.024 A 
HETATM   13  C11 UNL     1      23.125   5.833  22.080  1.00  0.00     0.046 A 
HETATM   14  C12 UNL     1      22.618   5.462  20.668  1.00  0.00     0.129 A 
HETATM   15  C13 UNL     1      23.239   4.338  19.955  1.00  0.00     0.062 C 
HETATM   16  C14 UNL     1      23.210   2.991  20.514  1.00  0.00     0.054 C 
HETATM   17 BR2  UNL     1      22.957   1.785  18.981  1.00  0.00    -0.083 Br
HETATM   18  C15 UNL     1      24.580   2.550  21.058  1.00  0.00     0.254 C 
HETATM   19  N2  UNL     1      24.171   1.495  22.001  1.00  0.00    -0.067 N 
ATOM     20  H21 UNL     1      24.911   1.058  22.551  1.00  0.00     0.277 HD
ATOM     21  H22 UNL     1      23.862   0.610  21.596  1.00  0.00     0.277 HD
HETATM   22  C16 UNL     1      23.159   2.277  22.745  1.00  0.00     0.219 C 
ENDROOT
BRANCH  14  23
HETATM   23  N1  UNL     1      22.319   6.645  19.844  1.00  0.00    -0.070 N 
ATOM     24  H13 UNL     1      22.097   7.426  20.462  1.00  0.00     0.275 HD
ATOM     25  H12 UNL     1      23.184   6.970  19.413  1.00  0.00     0.275 HD
ATOM     26  H11 UNL     1      21.598   6.582  19.126  1.00  0.00     0.275 HD
ENDBRANCH  14  23
TORSDOF 1
ENDMDL
MODEL 3
REMARK VINA RESULT: -4.458586889      2.534      4.942
REMARK  1 active torsions:
REMARK  status: ('A' for Active; 'I' for Inactive)
REMARK    1  A    between atoms: C12_14  and  N1_15 
ROOT
HETATM    1  C1  UNL     1      19.447   1.556  22.111  1.00  0.00     0.034 C 
HETATM    2  C2  UNL     1      20.853   2.066  22.511  1.00  0.00     0.063 C 
HETATM    3 CL1  UNL     1      20.503   3.327  23.754  1.00  0.00    -0.117 Cl
HETATM    4  C3  UNL     1      21.338   2.799  21.300  1.00  0.00     0.033 C 
HETATM    5  C4  UNL     1      21.979   1.883  20.380  1.00  0.00     0.008 A 
HETATM    6  C5  UNL     1      23.049   1.984  19.442  1.00  0.00     0.027 A 
HETATM    7  C6  UNL     1      23.467   1.944  20.865  1.00  0.00     0.023 A 
HETATM    8 BR1  UNL     1      24.182   3.656  21.370  1.00  0.00    -0.085 Br
HETATM    9  C7  UNL     1      23.636   0.757  21.682  1.00  0.00     0.035 C 
HETATM   10  C8  UNL     1      23.034   0.786  23.096  1.00  0.00     0.011 C 
HETATM   11  C9  UNL     1      23.707   1.812  23.916  1.00  0.00     0.020 C 
HETATM   12  C10 UNL     1      23.900   1.636  25.363  1.00  0.00     0.024 A 
HETATM   13  C11 UNL     1      23.050   1.085  26.368  1.00  0.00     0.046 A 
HETATM   14  C12 UNL     1      24.227   0.291  25.755  1.00  0.00     0.129 A 
HETATM   15  C13 UNL     1      23.942  -0.832  24.852  1.00  0.00     0.062 C 
HETATM   16  C14 UNL     1      23.204  -0.624  23.612  1.00  0.00     0.054 C 
HETATM   17 BR2  UNL     1      24.044  -1.813  22.288  1.00  0.00    -0.083 Br
HETATM   18  C15 UNL     1      21.768  -1.171  23.682  1.00  0.00     0.254 C 
HETATM   19  N2  UNL     1      21.124  -0.382  22.617  1.00  0.00    -0.067 N 
ATOM     20  H21 UNL     1      20.122  -0.519  22.486  1.00  0.00     0.277 HD
ATOM     21  H22 UNL     1      21.350  -0.637  21.656  1.00  0.00     0.277 HD
HETATM   22  C16 UNL     1      21.560   0.956  23.072  1.00  0.00     0.219 C 
ENDROOT
BRANCH  14  23
HETATM   23  N1  UNL     1      25.320   0.068  26.717  1.00  0.00    -0.070 N 
ATOM     24  H13 UNL     1      26.169   0.501  26.354  1.00  0.00     0.275 HD
ATOM     25  H12 UNL     1      25.145   0.634  27.547  1.00  0.00     0.275 HD
ATOM     26  H11 UNL     1      25.538  -0.884  27.009  1.00  0.00     0.275 HD
ENDBRANCH  14  23
TORSDOF 1
ENDMDL
MODEL 4
REMARK VINA RESULT: -4.314829673      2.276      3.161
REMARK  1 active torsions:
REMARK  status: ('A' for Active; 'I' for Inactive)
REMARK    1  A    between atoms: C12_14  and  N1_15 
ROOT
HETATM    1  C1  UNL     1      19.869   2.049  22.742  1.00  0.00     0.034 C 
HETATM    2  C2  UNL     1      21.049   1.066  22.549  1.00  0.00     0.063 C 
HETATM    3 CL1  UNL     1      20.237  -0.476  22.078  1.00  0.00    -0.117 Cl
HETATM    4  C3  UNL     1      21.579   0.852  23.932  1.00  0.00     0.033 C 
HETATM    5  C4  UNL     1      22.545   1.878  24.266  1.00  0.00     0.008 A 
HETATM    6  C5  UNL     1      23.720   1.929  25.072  1.00  0.00     0.027 A 
HETATM    7  C6  UNL     1      23.880   1.220  23.780  1.00  0.00     0.023 A 
HETATM    8 BR1  UNL     1      24.133  -0.658  24.108  1.00  0.00    -0.085 Br
HETATM    9  C7  UNL     1      24.141   1.828  22.489  1.00  0.00     0.035 C 
HETATM   10  C8  UNL     1      23.307   1.330  21.297  1.00  0.00     0.011 C 
HETATM   11  C9  UNL     1      23.603  -0.090  21.025  1.00  0.00     0.020 C 
HETATM   12  C10 UNL     1      23.570  -0.635  19.659  1.00  0.00     0.024 A 
HETATM   13  C11 UNL     1      22.687  -0.388  18.566  1.00  0.00     0.046 A 
HETATM   14  C12 UNL     1      24.089   0.256  18.656  1.00  0.00     0.129 A 
HETATM   15  C13 UNL     1      24.202   1.694  18.932  1.00  0.00     0.062 C 
HETATM   16  C14 UNL     1      23.667   2.262  20.164  1.00  0.00     0.054 C 
HETATM   17 BR2  UNL     1      24.949   3.650  20.711  1.00  0.00    -0.083 Br
HETATM   18  C15 UNL     1      22.382   3.075  19.928  1.00  0.00     0.254 C 
HETATM   19  N2  UNL     1      21.789   3.043  21.276  1.00  0.00    -0.067 N 
ATOM     20  H21 UNL     1      20.874   3.481  21.386  1.00  0.00     0.277 HD
ATOM     21  H22 UNL     1      22.227   3.631  21.986  1.00  0.00     0.277 HD
HETATM   22  C16 UNL     1      21.857   1.580  21.487  1.00  0.00     0.219 C 
ENDROOT
BRANCH  14  23
HETATM   23  N1  UNL     1      25.019  -0.267  17.641  1.00  0.00    -0.070 N 
ATOM     24  H13 UNL     1      25.869  -0.584  18.108  1.00  0.00     0.275 HD
ATOM     25  H12 UNL     1      24.648  -1.147  17.281  1.00  0.00     0.275 HD
ATOM     26  H11 UNL     1      25.280   0.324  16.853  1.00  0.00     0.275 HD
ENDBRANCH  14  23
TORSDOF 1
ENDMDL
MODEL 5
REMARK VINA RESULT: -4.301376118      2.560      4.834
REMARK  1 active torsions:
REMARK  status: ('A' for Active; 'I' for Inactive)
REMARK    1  A    between atoms: C12_14  and  N1_15 
ROOT
HETATM    1  C1  UNL     1      20.119  -0.486  22.453  1.00  0.00     0.034 C 
HETATM    2  C2  UNL     1      20.436   1.022  22.606  1.00  0.00     0.063 C 
HETATM    3 CL1  UNL     1      18.829   1.812  22.381  1.00  0.00    -0.117 Cl
HETATM    4  C3  UNL     1      21.238   1.355  21.387  1.00  0.00     0.033 C 
HETATM    5  C4  UNL     1      22.641   1.080  21.616  1.00  0.00     0.008 A 
HETATM    6  C5  UNL     1      23.865   1.653  21.160  1.00  0.00     0.027 A 
HETATM    7  C6  UNL     1      23.141   2.455  22.175  1.00  0.00     0.023 A 
HETATM    8 BR1  UNL     1      22.466   4.061  21.358  1.00  0.00    -0.085 Br
HETATM    9  C7  UNL     1      23.186   2.273  23.613  1.00  0.00     0.035 C 
HETATM   10  C8  UNL     1      21.847   2.302  24.368  1.00  0.00     0.011 C 
HETATM   11  C9  UNL     1      21.227   3.637  24.255  1.00  0.00     0.020 C 
HETATM   12  C10 UNL     1      20.414   4.202  25.342  1.00  0.00     0.024 A 
HETATM   13  C11 UNL     1      19.465   3.600  26.221  1.00  0.00     0.046 A 
HETATM   14  C12 UNL     1      20.912   3.917  26.661  1.00  0.00     0.129 A 
HETATM   15  C13 UNL     1      21.857   2.812  26.871  1.00  0.00     0.062 C 
HETATM   16  C14 UNL     1      22.198   1.904  25.782  1.00  0.00     0.054 C 
HETATM   17 BR2  UNL     1      24.112   1.508  26.000  1.00  0.00    -0.083 Br
HETATM   18  C15 UNL     1      21.553   0.517  25.949  1.00  0.00     0.254 C 
HETATM   19  N2  UNL     1      21.576   0.037  24.556  1.00  0.00    -0.067 N 
ATOM     20  H21 UNL     1      21.146  -0.870  24.375  1.00  0.00     0.277 HD
ATOM     21  H22 UNL     1      22.483  -0.246  24.183  1.00  0.00     0.277 HD
HETATM   22  C16 UNL     1      20.936   1.215  23.932  1.00  0.00     0.219 C 
ENDROOT
BRANCH  14  23
HETATM   23  N1  UNL     1      20.977   5.002  27.655  1.00  0.00    -0.070 N 
ATOM     24  H13 UNL     1      20.387   5.772  27.339  1.00  0.00     0.275 HD
ATOM     25  H12 UNL     1      20.483   4.704  28.496  1.00  0.00     0.275 HD
ATOM     26  H11 UNL     1      21.886   5.376  27.925  1.00  0.00     0.275 HD
ENDBRANCH  14  23
TORSDOF 1
ENDMDL
