MODEL 1
REMARK VINA RESULT: -6.176228282      0.000      0.000
REMARK  7 active torsions:
REMARK  status: ('A' for Active; 'I' for Inactive)
REMARK    1  A    between atoms: C3_11  and  N4_12 
REMARK    2  A    between atoms: N4_12  and  C4_14 
REMARK    3  A    between atoms: C4_14  and  C5_15 
REMARK    4  A    between atoms: C5_15  and  C6_16 
REMARK    5  A    between atoms: C6_16  and  S2_17 
REMARK    6  A    between atoms: S2_17  and  C7_18 
REMARK    7  A    between atoms: C10_27  and  N8_28 
ROOT
HETATM    1  N1  UNL     1       0.564 -10.263   9.433  1.00  0.00    -0.195 NA
HETATM    2  C1  UNL     1       1.283  -9.389   9.182  1.00  0.00     0.093 C 
HETATM    3  C2  UNL     1       2.216  -8.295   8.863  1.00  0.00     0.269 C 
HETATM    4  N2  UNL     1       3.012  -8.015  10.012  1.00  0.00    -0.278 N 
ATOM      5  H2  UNL     1       2.782  -8.080  11.005  1.00  0.00     0.175 HD
HETATM    6  S1  UNL     1       4.502  -7.524   9.225  1.00  0.00     0.321 S 
HETATM    7  O1  UNL     1       4.505  -6.044   8.979  1.00  0.00    -0.182 OA
HETATM    8  O2  UNL     1       5.682  -7.996   9.996  1.00  0.00    -0.182 OA
HETATM    9  N3  UNL     1       4.262  -8.399   7.757  1.00  0.00    -0.254 N 
ATOM     10  H3  UNL     1       4.965  -8.616   7.051  1.00  0.00     0.181 HD
HETATM   11  C3  UNL     1       3.025  -8.720   7.733  1.00  0.00     0.126 C 
ENDROOT
BRANCH  11  12
HETATM   12  N4  UNL     1       2.468  -9.473   6.628  1.00  0.00    -0.377 N 
ATOM     13  H4  UNL     1       1.609  -9.150   6.181  1.00  0.00     0.160 HD
BRANCH  12  14
HETATM   14  C4  UNL     1       3.113 -10.678   6.149  1.00  0.00     0.121 C 
BRANCH  14  15
HETATM   15  C5  UNL     1       2.676 -11.889   6.911  1.00  0.00     0.030 C 
BRANCH  15  16
HETATM   16  C6  UNL     1       3.848 -12.739   7.360  1.00  0.00     0.084 C 
BRANCH  16  17
HETATM   17  S2  UNL     1       4.996 -11.808   8.384  1.00  0.00    -0.094 SA
BRANCH  17  18
HETATM   18  C7  UNL     1       4.345 -11.532  10.020  1.00  0.00     0.146 A 
HETATM   19  N5  UNL     1       3.157 -11.970  10.468  1.00  0.00    -0.321 N 
HETATM   20  C8  UNL     1       2.989 -11.575  11.760  1.00  0.00     0.139 A 
ATOM     21  H5  UNL     1       2.487 -12.513   9.925  1.00  0.00     0.169 HD
HETATM   22  N6  UNL     1       2.009 -11.737  12.667  1.00  0.00    -0.337 N 
HETATM   23  C11 UNL     1       4.117 -10.871  12.111  1.00  0.00     0.123 A 
HETATM   24  C9  UNL     1       2.144 -11.214  13.890  1.00  0.00     0.183 A 
ATOM     25  H6  UNL     1       1.167 -12.257  12.422  1.00  0.00     0.168 HD
HETATM   26  N7  UNL     1       3.219 -10.526  14.272  1.00  0.00    -0.337 N 
HETATM   27  C10 UNL     1       4.212 -10.351  13.383  1.00  0.00     0.131 A 
ATOM     28  H7  UNL     1       3.286 -10.143  15.215  1.00  0.00     0.168 HD
HETATM   29  N9  UNL     1       4.927 -10.861  11.028  1.00  0.00    -0.331 N 
ATOM     30  H9  UNL     1       5.842 -10.413  10.983  1.00  0.00     0.168 HD
BRANCH  27  31
HETATM   31  N8  UNL     1       5.274  -9.676  13.748  1.00  0.00    -0.383 N 
ATOM     32  H82 UNL     1       5.702  -9.836  14.659  1.00  0.00     0.157 HD
ATOM     33  H81 UNL     1       5.663  -8.987  13.104  1.00  0.00     0.157 HD
ENDBRANCH  27  31
ENDBRANCH  17  18
ENDBRANCH  16  17
ENDBRANCH  15  16
ENDBRANCH  14  15
ENDBRANCH  12  14
ENDBRANCH  11  12
TORSDOF 7
ENDMDL
MODEL 2
REMARK VINA RESULT: -6.168728973      0.919      1.612
REMARK  7 active torsions:
REMARK  status: ('A' for Active; 'I' for Inactive)
REMARK    1  A    between atoms: C3_11  and  N4_12 
REMARK    2  A    between atoms: N4_12  and  C4_14 
REMARK    3  A    between atoms: C4_14  and  C5_15 
REMARK    4  A    between atoms: C5_15  and  C6_16 
REMARK    5  A    between atoms: C6_16  and  S2_17 
REMARK    6  A    between atoms: S2_17  and  C7_18 
REMARK    7  A    between atoms: C10_27  and  N8_28 
ROOT
HETATM    1  N1  UNL     1       0.531 -10.163   9.686  1.00  0.00    -0.195 NA
HETATM    2  C1  UNL     1       1.244  -9.310   9.354  1.00  0.00     0.093 C 
HETATM    3  C2  UNL     1       2.167  -8.244   8.930  1.00  0.00     0.269 C 
HETATM    4  N2  UNL     1       3.062  -7.954  10.001  1.00  0.00    -0.278 N 
ATOM      5  H2  UNL     1       2.916  -7.991  11.010  1.00  0.00     0.175 HD
HETATM    6  S1  UNL     1       4.489  -7.514   9.079  1.00  0.00     0.321 S 
HETATM    7  O1  UNL     1       4.500  -6.041   8.796  1.00  0.00    -0.182 OA
HETATM    8  O2  UNL     1       5.721  -7.992   9.760  1.00  0.00    -0.182 OA
HETATM    9  N3  UNL     1       4.110  -8.418   7.659  1.00  0.00    -0.254 N 
ATOM     10  H3  UNL     1       4.746  -8.667   6.902  1.00  0.00     0.181 HD
HETATM   11  C3  UNL     1       2.869  -8.714   7.748  1.00  0.00     0.126 C 
ENDROOT
BRANCH  11  12
HETATM   12  N4  UNL     1       2.206  -9.481   6.712  1.00  0.00    -0.377 N 
ATOM     13  H4  UNL     1       1.308  -9.162   6.347  1.00  0.00     0.160 HD
BRANCH  12  14
HETATM   14  C4  UNL     1       2.802 -10.693   6.189  1.00  0.00     0.121 C 
BRANCH  14  15
HETATM   15  C5  UNL     1       2.761 -11.811   7.182  1.00  0.00     0.030 C 
BRANCH  15  16
HETATM   16  C6  UNL     1       4.116 -12.077   7.804  1.00  0.00     0.084 C 
BRANCH  16  17
HETATM   17  S2  UNL     1       4.011 -13.248   9.165  1.00  0.00    -0.094 SA
BRANCH  17  18
HETATM   18  C7  UNL     1       3.708 -12.427  10.718  1.00  0.00     0.146 A 
HETATM   19  N5  UNL     1       4.629 -12.202  11.670  1.00  0.00    -0.321 N 
HETATM   20  C8  UNL     1       4.046 -11.555  12.716  1.00  0.00     0.139 A 
ATOM     21  H5  UNL     1       5.610 -12.474  11.617  1.00  0.00     0.169 HD
HETATM   22  N6  UNL     1       4.494 -11.099  13.900  1.00  0.00    -0.337 N 
HETATM   23  C11 UNL     1       2.722 -11.380  12.388  1.00  0.00     0.123 A 
HETATM   24  C9  UNL     1       3.650 -10.486  14.737  1.00  0.00     0.183 A 
ATOM     25  H6  UNL     1       5.473 -11.221  14.158  1.00  0.00     0.168 HD
HETATM   26  N7  UNL     1       2.362 -10.295  14.460  1.00  0.00    -0.337 N 
HETATM   27  C10 UNL     1       1.890 -10.742  13.282  1.00  0.00     0.131 A 
ATOM     28  H7  UNL     1       1.749  -9.822  15.124  1.00  0.00     0.168 HD
HETATM   29  N9  UNL     1       2.546 -11.923  11.162  1.00  0.00    -0.331 N 
ATOM     30  H9  UNL     1       1.663 -11.945  10.652  1.00  0.00     0.168 HD
BRANCH  27  31
HETATM   31  N8  UNL     1       0.624 -10.559  12.999  1.00  0.00    -0.383 N 
ATOM     32  H82 UNL     1      -0.100 -10.840  13.659  1.00  0.00     0.157 HD
ATOM     33  H81 UNL     1       0.378 -10.131  12.107  1.00  0.00     0.157 HD
ENDBRANCH  27  31
ENDBRANCH  17  18
ENDBRANCH  16  17
ENDBRANCH  15  16
ENDBRANCH  14  15
ENDBRANCH  12  14
ENDBRANCH  11  12
TORSDOF 7
ENDMDL
MODEL 3
REMARK VINA RESULT: -6.016343052      2.152      2.716
REMARK  7 active torsions:
REMARK  status: ('A' for Active; 'I' for Inactive)
REMARK    1  A    between atoms: C3_11  and  N4_12 
REMARK    2  A    between atoms: N4_12  and  C4_14 
REMARK    3  A    between atoms: C4_14  and  C5_15 
REMARK    4  A    between atoms: C5_15  and  C6_16 
REMARK    5  A    between atoms: C6_16  and  S2_17 
REMARK    6  A    between atoms: S2_17  and  C7_18 
REMARK    7  A    between atoms: C10_27  and  N8_28 
ROOT
HETATM    1  N1  UNL     1       5.315  -6.312   8.387  1.00  0.00    -0.195 NA
HETATM    2  C1  UNL     1       4.462  -7.073   8.575  1.00  0.00     0.093 C 
HETATM    3  C2  UNL     1       3.367  -8.035   8.791  1.00  0.00     0.269 C 
HETATM    4  N2  UNL     1       2.176  -7.317   9.105  1.00  0.00    -0.278 N 
ATOM      5  H2  UNL     1       2.049  -6.435   9.602  1.00  0.00     0.175 HD
HETATM    6  S1  UNL     1       0.989  -8.393   8.388  1.00  0.00     0.321 S 
HETATM    7  O1  UNL     1       0.527  -9.411   9.389  1.00  0.00    -0.182 OA
HETATM    8  O2  UNL     1      -0.124  -7.616   7.782  1.00  0.00    -0.182 OA
HETATM    9  N3  UNL     1       2.033  -9.105   7.212  1.00  0.00    -0.254 N 
ATOM     10  H3  UNL     1       1.755  -9.643   6.392  1.00  0.00     0.181 HD
HETATM   11  C3  UNL     1       3.224  -8.821   7.578  1.00  0.00     0.126 C 
ENDROOT
BRANCH  11  12
HETATM   12  N4  UNL     1       4.369  -9.267   6.810  1.00  0.00    -0.377 N 
ATOM     13  H4  UNL     1       4.663  -8.735   5.990  1.00  0.00     0.160 HD
BRANCH  12  14
HETATM   14  C4  UNL     1       5.102 -10.456   7.191  1.00  0.00     0.121 C 
BRANCH  14  15
HETATM   15  C5  UNL     1       4.550 -11.687   6.542  1.00  0.00     0.030 C 
BRANCH  15  16
HETATM   16  C6  UNL     1       3.691 -12.500   7.488  1.00  0.00     0.084 C 
BRANCH  16  17
HETATM   17  S2  UNL     1       4.557 -12.881   9.017  1.00  0.00    -0.094 SA
BRANCH  17  18
HETATM   18  C7  UNL     1       3.709 -12.219  10.438  1.00  0.00     0.146 A 
HETATM   19  N5  UNL     1       2.454 -11.742  10.441  1.00  0.00    -0.321 N 
HETATM   20  C8  UNL     1       2.135 -11.319  11.695  1.00  0.00     0.139 A 
ATOM     21  H5  UNL     1       1.836 -11.702   9.630  1.00  0.00     0.169 HD
HETATM   22  N6  UNL     1       1.037 -10.771  12.246  1.00  0.00    -0.337 N 
HETATM   23  C11 UNL     1       3.237 -11.548  12.484  1.00  0.00     0.123 A 
HETATM   24  C9  UNL     1       1.033 -10.458  13.546  1.00  0.00     0.183 A 
ATOM     25  H6  UNL     1       0.211 -10.595  11.674  1.00  0.00     0.168 HD
HETATM   26  N7  UNL     1       2.077 -10.662  14.346  1.00  0.00    -0.337 N 
HETATM   27  C10 UNL     1       3.187 -11.210  13.819  1.00  0.00     0.131 A 
ATOM     28  H7  UNL     1       2.036 -10.411  15.334  1.00  0.00     0.168 HD
HETATM   29  N9  UNL     1       4.182 -12.099  11.688  1.00  0.00    -0.331 N 
ATOM     30  H9  UNL     1       5.114 -12.380  11.993  1.00  0.00     0.168 HD
BRANCH  27  31
HETATM   31  N8  UNL     1       4.220 -11.416  14.597  1.00  0.00    -0.383 N 
ATOM     32  H82 UNL     1       4.702 -10.632  15.036  1.00  0.00     0.157 HD
ATOM     33  H81 UNL     1       4.533 -12.374  14.755  1.00  0.00     0.157 HD
ENDBRANCH  27  31
ENDBRANCH  17  18
ENDBRANCH  16  17
ENDBRANCH  15  16
ENDBRANCH  14  15
ENDBRANCH  12  14
ENDBRANCH  11  12
TORSDOF 7
ENDMDL
MODEL 4
REMARK VINA RESULT: -6.015257607      2.319      3.052
REMARK  7 active torsions:
REMARK  status: ('A' for Active; 'I' for Inactive)
REMARK    1  A    between atoms: C3_11  and  N4_12 
REMARK    2  A    between atoms: N4_12  and  C4_14 
REMARK    3  A    between atoms: C4_14  and  C5_15 
REMARK    4  A    between atoms: C5_15  and  C6_16 
REMARK    5  A    between atoms: C6_16  and  S2_17 
REMARK    6  A    between atoms: S2_17  and  C7_18 
REMARK    7  A    between atoms: C10_27  and  N8_28 
ROOT
HETATM    1  N1  UNL     1       4.096  -6.909  10.266  1.00  0.00    -0.195 NA
HETATM    2  C1  UNL     1       4.663  -7.160   9.287  1.00  0.00     0.093 C 
HETATM    3  C2  UNL     1       5.385  -7.503   8.050  1.00  0.00     0.269 C 
HETATM    4  N2  UNL     1       6.756  -7.739   8.364  1.00  0.00    -0.278 N 
ATOM      5  H2  UNL     1       7.349  -7.319   9.081  1.00  0.00     0.175 HD
HETATM    6  S1  UNL     1       7.127  -8.959   7.159  1.00  0.00     0.321 S 
HETATM    7  O1  UNL     1       7.624  -8.319   5.896  1.00  0.00    -0.182 OA
HETATM    8  O2  UNL     1       8.061  -9.974   7.711  1.00  0.00    -0.182 OA
HETATM    9  N3  UNL     1       5.520  -9.557   6.962  1.00  0.00    -0.254 N 
ATOM     10  H3  UNL     1       5.242 -10.434   6.523  1.00  0.00     0.181 HD
HETATM   11  C3  UNL     1       4.749  -8.678   7.480  1.00  0.00     0.126 C 
ENDROOT
BRANCH  11  12
HETATM   12  N4  UNL     1       3.311  -8.858   7.491  1.00  0.00    -0.377 N 
ATOM     13  H4  UNL     1       2.733  -8.248   8.069  1.00  0.00     0.160 HD
BRANCH  12  14
HETATM   14  C4  UNL     1       2.685  -9.891   6.692  1.00  0.00     0.121 C 
BRANCH  14  15
HETATM   15  C5  UNL     1       1.241 -10.071   7.042  1.00  0.00     0.030 C 
BRANCH  15  16
HETATM   16  C6  UNL     1       0.876  -9.391   8.345  1.00  0.00     0.084 C 
BRANCH  16  17
HETATM   17  S2  UNL     1       0.508 -10.581   9.642  1.00  0.00    -0.094 SA
BRANCH  17  18
HETATM   18  C7  UNL     1       1.661 -10.458  10.996  1.00  0.00     0.146 A 
HETATM   19  N5  UNL     1       1.408 -10.814  12.265  1.00  0.00    -0.321 N 
HETATM   20  C8  UNL     1       2.512 -10.583  13.027  1.00  0.00     0.139 A 
ATOM     21  H5  UNL     1       0.526 -11.197  12.606  1.00  0.00     0.169 HD
HETATM   22  N6  UNL     1       2.803 -10.755  14.329  1.00  0.00    -0.337 N 
HETATM   23  C11 UNL     1       3.473 -10.068  12.188  1.00  0.00     0.123 A 
HETATM   24  C9  UNL     1       4.015 -10.423  14.787  1.00  0.00     0.183 A 
ATOM     25  H6  UNL     1       2.102 -11.136  14.964  1.00  0.00     0.168 HD
HETATM   26  N7  UNL     1       4.974  -9.922  14.011  1.00  0.00    -0.337 N 
HETATM   27  C10 UNL     1       4.708  -9.742  12.705  1.00  0.00     0.131 A 
ATOM     28  H7  UNL     1       5.887  -9.682  14.397  1.00  0.00     0.168 HD
HETATM   29  N9  UNL     1       2.923 -10.004  10.954  1.00  0.00    -0.331 N 
ATOM     30  H9  UNL     1       3.397  -9.662  10.118  1.00  0.00     0.168 HD
BRANCH  27  31
HETATM   31  N8  UNL     1       5.644  -9.250  11.932  1.00  0.00    -0.383 N 
ATOM     32  H82 UNL     1       5.774  -9.606  10.986  1.00  0.00     0.157 HD
ATOM     33  H81 UNL     1       6.239  -8.505  12.295  1.00  0.00     0.157 HD
ENDBRANCH  27  31
ENDBRANCH  17  18
ENDBRANCH  16  17
ENDBRANCH  15  16
ENDBRANCH  14  15
ENDBRANCH  12  14
ENDBRANCH  11  12
TORSDOF 7
ENDMDL
MODEL 5
REMARK VINA RESULT: -5.978293253      1.911      5.201
REMARK  7 active torsions:
REMARK  status: ('A' for Active; 'I' for Inactive)
REMARK    1  A    between atoms: C3_11  and  N4_12 
REMARK    2  A    between atoms: N4_12  and  C4_14 
REMARK    3  A    between atoms: C4_14  and  C5_15 
REMARK    4  A    between atoms: C5_15  and  C6_16 
REMARK    5  A    between atoms: C6_16  and  S2_17 
REMARK    6  A    between atoms: S2_17  and  C7_18 
REMARK    7  A    between atoms: C10_27  and  N8_28 
ROOT
HETATM    1  N1  UNL     1       3.689 -12.928   9.701  1.00  0.00    -0.195 NA
HETATM    2  C1  UNL     1       4.550 -12.204   9.978  1.00  0.00     0.093 C 
HETATM    3  C2  UNL     1       5.629 -11.270  10.344  1.00  0.00     0.269 C 
HETATM    4  N2  UNL     1       5.480 -10.071   9.587  1.00  0.00    -0.278 N 
ATOM      5  H2  UNL     1       5.117  -9.928   8.644  1.00  0.00     0.175 HD
HETATM    6  S1  UNL     1       6.100  -8.912  10.749  1.00  0.00     0.321 S 
HETATM    7  O1  UNL     1       7.579  -8.728  10.572  1.00  0.00    -0.182 OA
HETATM    8  O2  UNL     1       5.336  -7.639  10.679  1.00  0.00    -0.182 OA
HETATM    9  N3  UNL     1       5.753  -9.829  12.169  1.00  0.00    -0.254 N 
ATOM     10  H3  UNL     1       5.728  -9.488  13.129  1.00  0.00     0.181 HD
HETATM   11  C3  UNL     1       5.534 -11.025  11.773  1.00  0.00     0.126 C 
ENDROOT
BRANCH  11  12
HETATM   12  N4  UNL     1       5.207 -12.077  12.715  1.00  0.00    -0.377 N 
ATOM     13  H4  UNL     1       4.881 -12.980  12.368  1.00  0.00     0.160 HD
BRANCH  12  14
HETATM   14  C4  UNL     1       5.337 -11.864  14.141  1.00  0.00     0.121 C 
BRANCH  14  15
HETATM   15  C5  UNL     1       4.049 -11.421  14.761  1.00  0.00     0.030 C 
BRANCH  15  16
HETATM   16  C6  UNL     1       2.853 -11.728  13.882  1.00  0.00     0.084 C 
BRANCH  16  17
HETATM   17  S2  UNL     1       1.966 -10.236  13.414  1.00  0.00    -0.094 SA
BRANCH  17  18
HETATM   18  C7  UNL     1       1.870 -10.054  11.644  1.00  0.00     0.146 A 
HETATM   19  N5  UNL     1       1.186 -10.860  10.816  1.00  0.00    -0.321 N 
HETATM   20  C8  UNL     1       1.336 -10.424   9.536  1.00  0.00     0.139 A 
ATOM     21  H5  UNL     1       0.639 -11.672  11.103  1.00  0.00     0.169 HD
HETATM   22  N6  UNL     1       0.878 -10.848   8.344  1.00  0.00    -0.337 N 
HETATM   23  C11 UNL     1       2.141  -9.310   9.587  1.00  0.00     0.123 A 
HETATM   24  C9  UNL     1       1.212 -10.185   7.231  1.00  0.00     0.183 A 
ATOM     25  H6  UNL     1       0.279 -11.671   8.289  1.00  0.00     0.168 HD
HETATM   26  N7  UNL     1       1.988  -9.103   7.235  1.00  0.00    -0.337 N 
HETATM   27  C10 UNL     1       2.458  -8.659   8.414  1.00  0.00     0.131 A 
ATOM     28  H7  UNL     1       2.220  -8.623   6.365  1.00  0.00     0.168 HD
HETATM   29  N9  UNL     1       2.451  -9.109  10.888  1.00  0.00    -0.331 N 
ATOM     30  H9  UNL     1       3.038  -8.354  11.240  1.00  0.00     0.168 HD
BRANCH  27  31
HETATM   31  N8  UNL     1       3.222  -7.596   8.430  1.00  0.00    -0.383 N 
ATOM     32  H82 UNL     1       3.794  -7.358   7.620  1.00  0.00     0.157 HD
ATOM     33  H81 UNL     1       3.234  -7.012   9.265  1.00  0.00     0.157 HD
ENDBRANCH  27  31
ENDBRANCH  17  18
ENDBRANCH  16  17
ENDBRANCH  15  16
ENDBRANCH  14  15
ENDBRANCH  12  14
ENDBRANCH  11  12
TORSDOF 7
ENDMDL
