MODEL 1
REMARK VINA RESULT: -7.847431370      0.000      0.000
REMARK  2 active torsions:
REMARK  status: ('A' for Active; 'I' for Inactive)
REMARK    1  A    between atoms: C7_7  and  O1_8 
REMARK    2  A    between atoms: C22_26  and  C23_27 
ROOT
HETATM    1  C1  UNL     1      25.820   1.062  19.154  1.00  0.00     0.044 C 
HETATM    2  C2  UNL     1      24.923   2.068  19.819  1.00  0.00    -0.070 C 
HETATM    3  C3  UNL     1      24.599   1.742  21.044  1.00  0.00    -0.018 C 
HETATM    4  C4  UNL     1      23.781   2.373  22.067  1.00  0.00     0.022 C 
HETATM    5  C5  UNL     1      22.571   3.078  21.506  1.00  0.00     0.031 C 
HETATM    6  C6  UNL     1      21.624   2.056  20.993  1.00  0.00     0.042 C 
HETATM    7  C7  UNL     1      21.078   1.315  22.230  1.00  0.00     0.127 C 
HETATM    8  C8  UNL     1      22.215   0.543  22.852  1.00  0.00    -0.014 C 
HETATM    9  C9  UNL     1      22.574  -0.640  22.025  1.00  0.00     0.018 C 
HETATM   10  C10 UNL     1      21.718   0.002  24.203  1.00  0.00     0.013 C 
HETATM   11  C11 UNL     1      22.841  -0.626  24.984  1.00  0.00     0.016 C 
HETATM   12  C12 UNL     1      24.037   0.263  25.156  1.00  0.00     0.058 C 
HETATM   13 BR1  UNL     1      25.449  -0.787  25.954  1.00  0.00    -0.091 Br
HETATM   14  C13 UNL     1      24.513   0.737  23.799  1.00  0.00     0.022 C 
HETATM   15  C14 UNL     1      23.339   1.463  23.171  1.00  0.00     0.006 C 
HETATM   16  C15 UNL     1      22.902   4.197  20.640  1.00  0.00    -0.021 A 
HETATM   17  C16 UNL     1      23.774   4.260  19.579  1.00  0.00    -0.033 A 
HETATM   18  C17 UNL     1      23.976   5.479  18.908  1.00  0.00     0.009 A 
HETATM   19  C18 UNL     1      23.307   6.619  19.297  1.00  0.00     0.009 A 
HETATM   20  C19 UNL     1      22.434   6.553  20.355  1.00  0.00    -0.037 A 
HETATM   21  C20 UNL     1      21.712   7.779  20.774  1.00  0.00     0.050 C 
HETATM   22  C21 UNL     1      22.237   5.359  21.015  1.00  0.00     0.059 A 
HETATM   23  N1  UNL     1      21.347   5.253  22.107  1.00  0.00    -0.101 NA
HETATM   24  C22 UNL     1      24.586   3.212  18.968  1.00  0.00     0.155 C 
ENDROOT
BRANCH  24  25
HETATM   25  C23 UNL     1      24.096   2.768  17.620  1.00  0.00     0.399 C 
HETATM   26  F1  UNL     1      24.100   3.796  16.672  1.00  0.00    -0.170 F 
HETATM   27  F2  UNL     1      22.833   2.237  17.628  1.00  0.00    -0.170 F 
HETATM   28  F3  UNL     1      24.946   1.818  17.053  1.00  0.00    -0.170 F 
ENDBRANCH  24  25
BRANCH   7  29
HETATM   29  O1  UNL     1      19.995   0.533  21.923  1.00  0.00    -0.395 OA
ATOM     30  H1  UNL     1      20.166  -0.037  21.182  1.00  0.00     0.210 HD
ENDBRANCH   7  29
TORSDOF 2
ENDMDL
MODEL 2
REMARK VINA RESULT: -7.784662618      1.782      2.407
REMARK  2 active torsions:
REMARK  status: ('A' for Active; 'I' for Inactive)
REMARK    1  A    between atoms: C7_7  and  O1_8 
REMARK    2  A    between atoms: C22_26  and  C23_27 
ROOT
HETATM    1  C1  UNL     1      25.282   2.596  20.210  1.00  0.00     0.044 C 
HETATM    2  C2  UNL     1      24.228   2.993  21.204  1.00  0.00    -0.070 C 
HETATM    3  C3  UNL     1      24.049   2.107  22.151  1.00  0.00    -0.018 C 
HETATM    4  C4  UNL     1      23.170   2.038  23.307  1.00  0.00     0.022 C 
HETATM    5  C5  UNL     1      21.809   2.635  23.054  1.00  0.00     0.031 C 
HETATM    6  C6  UNL     1      21.077   1.758  22.105  1.00  0.00     0.042 C 
HETATM    7  C7  UNL     1      20.771   0.456  22.869  1.00  0.00     0.127 C 
HETATM    8  C8  UNL     1      22.079  -0.243  23.146  1.00  0.00    -0.014 C 
HETATM    9  C9  UNL     1      22.639  -0.841  21.904  1.00  0.00     0.018 C 
HETATM   10  C10 UNL     1      21.783  -1.410  24.103  1.00  0.00     0.013 C 
HETATM   11  C11 UNL     1      23.056  -2.054  24.584  1.00  0.00     0.016 C 
HETATM   12  C12 UNL     1      24.040  -1.092  25.180  1.00  0.00     0.058 C 
HETATM   13 BR1  UNL     1      25.686  -2.050  25.507  1.00  0.00    -0.091 Br
HETATM   14  C13 UNL     1      24.329   0.015  24.187  1.00  0.00     0.022 C 
HETATM   15  C14 UNL     1      22.995   0.668  23.884  1.00  0.00     0.006 C 
HETATM   16  C15 UNL     1      21.844   4.061  22.776  1.00  0.00    -0.021 A 
HETATM   17  C16 UNL     1      22.623   4.766  21.889  1.00  0.00    -0.033 A 
HETATM   18  C17 UNL     1      22.523   6.167  21.825  1.00  0.00     0.009 A 
HETATM   19  C18 UNL     1      21.646   6.850  22.639  1.00  0.00     0.009 A 
HETATM   20  C19 UNL     1      20.866   6.145  23.522  1.00  0.00    -0.037 A 
HETATM   21  C20 UNL     1      19.921   6.878  24.398  1.00  0.00     0.050 C 
HETATM   22  C21 UNL     1      20.966   4.771  23.588  1.00  0.00     0.059 A 
HETATM   23  N1  UNL     1      20.180   4.012  24.483  1.00  0.00    -0.101 NA
HETATM   24  C22 UNL     1      23.608   4.290  20.921  1.00  0.00     0.155 C 
ENDROOT
BRANCH  24  25
HETATM   25  C23 UNL     1      23.152   4.380  19.493  1.00  0.00     0.399 C 
HETATM   26  F1  UNL     1      22.880   3.131  18.927  1.00  0.00    -0.170 F 
HETATM   27  F2  UNL     1      24.035   5.013  18.659  1.00  0.00    -0.170 F 
HETATM   28  F3  UNL     1      21.928   5.043  19.388  1.00  0.00    -0.170 F 
ENDBRANCH  24  25
BRANCH   7  29
HETATM   29  O1  UNL     1      19.866  -0.329  22.204  1.00  0.00    -0.395 OA
ATOM     30  H1  UNL     1      20.009  -0.319  21.265  1.00  0.00     0.210 HD
ENDBRANCH   7  29
TORSDOF 2
ENDMDL
MODEL 3
REMARK VINA RESULT: -7.649273410      0.811      1.121
REMARK  2 active torsions:
REMARK  status: ('A' for Active; 'I' for Inactive)
REMARK    1  A    between atoms: C7_7  and  O1_8 
REMARK    2  A    between atoms: C22_26  and  C23_27 
ROOT
HETATM    1  C1  UNL     1      26.225   1.717  19.085  1.00  0.00     0.044 C 
HETATM    2  C2  UNL     1      25.230   2.710  19.615  1.00  0.00    -0.070 C 
HETATM    3  C3  UNL     1      24.789   2.413  20.811  1.00  0.00    -0.018 C 
HETATM    4  C4  UNL     1      23.846   3.046  21.718  1.00  0.00     0.022 C 
HETATM    5  C5  UNL     1      22.680   3.687  21.009  1.00  0.00     0.031 C 
HETATM    6  C6  UNL     1      21.828   2.614  20.438  1.00  0.00     0.042 C 
HETATM    7  C7  UNL     1      21.178   1.894  21.636  1.00  0.00     0.127 C 
HETATM    8  C8  UNL     1      22.268   1.186  22.402  1.00  0.00    -0.014 C 
HETATM    9  C9  UNL     1      22.753  -0.009  21.660  1.00  0.00     0.018 C 
HETATM   10  C10 UNL     1      21.649   0.671  23.712  1.00  0.00     0.013 C 
HETATM   11  C11 UNL     1      22.704   0.111  24.629  1.00  0.00     0.016 C 
HETATM   12  C12 UNL     1      23.844   1.049  24.892  1.00  0.00     0.058 C 
HETATM   13 BR1  UNL     1      25.199   0.079  25.872  1.00  0.00    -0.091 Br
HETATM   14  C13 UNL     1      24.446   1.496  23.576  1.00  0.00     0.022 C 
HETATM   15  C14 UNL     1      23.321   2.157  22.802  1.00  0.00     0.006 C 
HETATM   16  C15 UNL     1      23.063   4.789  20.142  1.00  0.00    -0.021 A 
HETATM   17  C16 UNL     1      24.040   4.850  19.176  1.00  0.00    -0.033 A 
HETATM   18  C17 UNL     1      24.271   6.052  18.487  1.00  0.00     0.009 A 
HETATM   19  C18 UNL     1      23.527   7.178  18.762  1.00  0.00     0.009 A 
HETATM   20  C19 UNL     1      22.549   7.115  19.724  1.00  0.00    -0.037 A 
HETATM   21  C20 UNL     1      21.747   8.326  20.020  1.00  0.00     0.050 C 
HETATM   22  C21 UNL     1      22.323   5.936  20.403  1.00  0.00     0.059 A 
HETATM   23  N1  UNL     1      21.328   5.834  21.399  1.00  0.00    -0.101 NA
HETATM   24  C22 UNL     1      24.947   3.812  18.692  1.00  0.00     0.155 C 
ENDROOT
BRANCH  24  25
HETATM   25  C23 UNL     1      24.617   3.307  17.318  1.00  0.00     0.399 C 
HETATM   26  F1  UNL     1      23.584   2.365  17.316  1.00  0.00    -0.170 F 
HETATM   27  F2  UNL     1      25.675   2.740  16.657  1.00  0.00    -0.170 F 
HETATM   28  F3  UNL     1      24.113   4.324  16.505  1.00  0.00    -0.170 F 
ENDBRANCH  24  25
BRANCH   7  29
HETATM   29  O1  UNL     1      20.161   1.064  21.246  1.00  0.00    -0.395 OA
ATOM     30  H1  UNL     1      19.988   0.386  21.889  1.00  0.00     0.210 HD
ENDBRANCH   7  29
TORSDOF 2
ENDMDL
MODEL 4
REMARK VINA RESULT: -7.587908865      1.270      1.460
REMARK  2 active torsions:
REMARK  status: ('A' for Active; 'I' for Inactive)
REMARK    1  A    between atoms: C7_7  and  O1_8 
REMARK    2  A    between atoms: C22_26  and  C23_27 
ROOT
HETATM    1  C1  UNL     1      24.953  -0.144  20.370  1.00  0.00     0.044 C 
HETATM    2  C2  UNL     1      24.371   1.212  20.650  1.00  0.00    -0.070 C 
HETATM    3  C3  UNL     1      24.020   1.377  21.900  1.00  0.00    -0.018 C 
HETATM    4  C4  UNL     1      23.429   2.481  22.639  1.00  0.00     0.022 C 
HETATM    5  C5  UNL     1      22.422   3.262  21.833  1.00  0.00     0.031 C 
HETATM    6  C6  UNL     1      21.226   2.410  21.618  1.00  0.00     0.042 C 
HETATM    7  C7  UNL     1      20.553   2.254  22.996  1.00  0.00     0.127 C 
HETATM    8  C8  UNL     1      21.475   1.449  23.878  1.00  0.00    -0.014 C 
HETATM    9  C9  UNL     1      21.487   0.018  23.473  1.00  0.00     0.018 C 
HETATM   10  C10 UNL     1      20.906   1.499  25.305  1.00  0.00     0.013 C 
HETATM   11  C11 UNL     1      21.858   0.879  26.293  1.00  0.00     0.016 C 
HETATM   12  C12 UNL     1      23.247   1.440  26.236  1.00  0.00     0.058 C 
HETATM   13 BR1  UNL     1      24.370   0.365  27.384  1.00  0.00    -0.091 Br
HETATM   14  C13 UNL     1      23.779   1.332  24.822  1.00  0.00     0.022 C 
HETATM   15  C14 UNL     1      22.809   2.103  23.948  1.00  0.00     0.006 C 
HETATM   16  C15 UNL     1      22.997   3.934  20.680  1.00  0.00    -0.021 A 
HETATM   17  C16 UNL     1      23.817   3.440  19.692  1.00  0.00    -0.033 A 
HETATM   18  C17 UNL     1      24.301   4.297  18.688  1.00  0.00     0.009 A 
HETATM   19  C18 UNL     1      23.962   5.632  18.675  1.00  0.00     0.009 A 
HETATM   20  C19 UNL     1      23.141   6.123  19.661  1.00  0.00    -0.037 A 
HETATM   21  C20 UNL     1      22.775   7.560  19.647  1.00  0.00     0.050 C 
HETATM   22  C21 UNL     1      22.668   5.284  20.647  1.00  0.00     0.059 A 
HETATM   23  N1  UNL     1      21.822   5.754  21.676  1.00  0.00    -0.101 NA
HETATM   24  C22 UNL     1      24.309   2.083  19.472  1.00  0.00     0.155 C 
ENDROOT
BRANCH  24  25
HETATM   25  C23 UNL     1      23.671   1.385  18.306  1.00  0.00     0.399 C 
HETATM   26  F1  UNL     1      22.909   2.242  17.507  1.00  0.00    -0.170 F 
HETATM   27  F2  UNL     1      22.860   0.336  18.653  1.00  0.00    -0.170 F 
HETATM   28  F3  UNL     1      24.628   0.897  17.416  1.00  0.00    -0.170 F 
ENDBRANCH  24  25
BRANCH   7  29
HETATM   29  O1  UNL     1      19.295   1.720  22.895  1.00  0.00    -0.395 OA
ATOM     30  H1  UNL     1      19.226   0.884  23.342  1.00  0.00     0.210 HD
ENDBRANCH   7  29
TORSDOF 2
ENDMDL
MODEL 5
REMARK VINA RESULT: -7.486000543      2.213      2.863
REMARK  2 active torsions:
REMARK  status: ('A' for Active; 'I' for Inactive)
REMARK    1  A    between atoms: C7_7  and  O1_8 
REMARK    2  A    between atoms: C22_26  and  C23_27 
ROOT
HETATM    1  C1  UNL     1      24.805   3.584  20.219  1.00  0.00     0.044 C 
HETATM    2  C2  UNL     1      23.784   3.787  21.302  1.00  0.00    -0.070 C 
HETATM    3  C3  UNL     1      23.696   2.775  22.127  1.00  0.00    -0.018 C 
HETATM    4  C4  UNL     1      22.882   2.505  23.300  1.00  0.00     0.022 C 
HETATM    5  C5  UNL     1      21.481   3.054  23.189  1.00  0.00     0.031 C 
HETATM    6  C6  UNL     1      20.747   2.271  22.163  1.00  0.00     0.042 C 
HETATM    7  C7  UNL     1      20.544   0.864  22.758  1.00  0.00     0.127 C 
HETATM    8  C8  UNL     1      21.897   0.209  22.881  1.00  0.00    -0.014 C 
HETATM    9  C9  UNL     1      22.423  -0.188  21.547  1.00  0.00     0.018 C 
HETATM   10  C10 UNL     1      21.708  -1.089  23.684  1.00  0.00     0.013 C 
HETATM   11  C11 UNL     1      23.034  -1.720  24.019  1.00  0.00     0.016 C 
HETATM   12  C12 UNL     1      23.998  -0.792  24.695  1.00  0.00     0.058 C 
HETATM   13 BR1  UNL     1      25.703  -1.692  24.819  1.00  0.00    -0.091 Br
HETATM   14  C13 UNL     1      24.182   0.451  23.849  1.00  0.00     0.022 C 
HETATM   15  C14 UNL     1      22.803   1.063  23.695  1.00  0.00     0.006 C 
HETATM   16  C15 UNL     1      21.432   4.504  23.104  1.00  0.00    -0.021 A 
HETATM   17  C16 UNL     1      22.131   5.362  22.288  1.00  0.00    -0.033 A 
HETATM   18  C17 UNL     1      21.958   6.751  22.417  1.00  0.00     0.009 A 
HETATM   19  C18 UNL     1      21.091   7.271  23.353  1.00  0.00     0.009 A 
HETATM   20  C19 UNL     1      20.391   6.413  24.166  1.00  0.00    -0.037 A 
HETATM   21  C20 UNL     1      19.458   6.970  25.173  1.00  0.00     0.050 C 
HETATM   22  C21 UNL     1      20.562   5.050  24.041  1.00  0.00     0.059 A 
HETATM   23  N1  UNL     1      19.861   4.137  24.860  1.00  0.00    -0.101 NA
HETATM   24  C22 UNL     1      23.087   5.074  21.222  1.00  0.00     0.155 C 
ENDROOT
BRANCH  24  25
HETATM   25  C23 UNL     1      22.556   5.326  19.841  1.00  0.00     0.399 C 
HETATM   26  F1  UNL     1      21.708   6.436  19.777  1.00  0.00    -0.170 F 
HETATM   27  F2  UNL     1      21.873   4.270  19.299  1.00  0.00    -0.170 F 
HETATM   28  F3  UNL     1      23.578   5.664  18.953  1.00  0.00    -0.170 F 
ENDBRANCH  24  25
BRANCH   7  29
HETATM   29  O1  UNL     1      19.647   0.125  22.033  1.00  0.00    -0.395 OA
ATOM     30  H1  UNL     1      18.748   0.335  22.257  1.00  0.00     0.210 HD
ENDBRANCH   7  29
TORSDOF 2
ENDMDL
