MODEL 1
REMARK VINA RESULT: -7.953332738      0.000      0.000
REMARK  9 active torsions:
REMARK  status: ('A' for Active; 'I' for Inactive)
REMARK    1  A    between atoms: N1_1  and  N2_4 
REMARK    2  A    between atoms: N2_4  and  C1_6 
REMARK    3  A    between atoms: C2_7  and  O1_8 
REMARK    4  A    between atoms: C3_12  and  N4_13 
REMARK    5  A    between atoms: C4_16  and  N6_17 
REMARK    6  A    between atoms: N6_17  and  N7_19 
REMARK       I    between atoms: N8_21  and  C5_23 
REMARK    7  A    between atoms: C5_23  and  C6_25 
REMARK    8  A    between atoms: C6_25  and  N9_26 
REMARK    9  A    between atoms: C6_25  and  C7_30 
ROOT
HETATM    1  N4  UNL     1      29.081  61.103 -26.820  1.00  0.00    -0.151 N 
HETATM    2  N5  UNL     1      29.199  62.295 -26.282  1.00  0.00    -0.117 N 
ATOM      3  H5  UNL     1      28.423  62.852 -25.925  1.00  0.00     0.206 HD
HETATM    4  C4  UNL     1      30.487  62.676 -26.269  1.00  0.00     0.717 A 
HETATM    5  N10 UNL     1      31.159  61.656 -26.829  1.00  0.00    -0.137 N 
ATOM      6  H10 UNL     1      32.168  61.625 -26.973  1.00  0.00     0.189 HD
HETATM    7  C8  UNL     1      30.302  60.683 -27.170  1.00  0.00     0.363 A 
HETATM    8  O5  UNL     1      30.632  59.593 -27.718  1.00  0.00    -0.244 OA
ENDROOT
BRANCH   4   9
HETATM    9  N6  UNL     1      30.960  63.808 -25.805  1.00  0.00    -0.116 N 
ATOM     10  H6  UNL     1      31.756  63.838 -25.168  1.00  0.00     0.207 HD
BRANCH   9  11
HETATM   11  N7  UNL     1      30.313  64.968 -26.230  1.00  0.00    -0.226 N 
HETATM   12  N8  UNL     1      30.063  65.887 -25.377  1.00  0.00    -0.253 N 
HETATM   13  C5  UNL     1      30.436  65.736 -24.020  1.00  0.00     0.278 C 
ATOM     14  H8  UNL     1      29.591  66.739 -25.678  1.00  0.00     0.191 HD
HETATM   15  O2  UNL     1      31.632  65.532 -23.760  1.00  0.00    -0.269 OA
ATOM     16  H7  UNL     1      30.043  65.081 -27.207  1.00  0.00     0.209 HD
BRANCH  13  17
HETATM   17  C6  UNL     1      29.464  65.810 -22.907  1.00  0.00     0.375 C 
BRANCH  17  18
HETATM   18  N9  UNL     1      29.290  67.188 -22.488  1.00  0.00    -0.056 N 
ATOM     19  H93 UNL     1      30.184  67.655 -22.333  1.00  0.00     0.275 HD
ATOM     20  H92 UNL     1      28.944  67.777 -23.246  1.00  0.00     0.275 HD
ATOM     21  H91 UNL     1      28.689  67.231 -21.665  1.00  0.00     0.275 HD
ENDBRANCH  17  18
BRANCH  17  22
HETATM   22  C7  UNL     1      28.163  65.214 -23.268  1.00  0.00     0.214 C 
HETATM   23  O3  UNL     1      27.119  65.675 -22.770  1.00  0.00    -0.646 OA
HETATM   24  O4  UNL     1      28.120  64.159 -24.148  1.00  0.00    -0.646 OA
ENDBRANCH  17  22
ENDBRANCH  13  17
ENDBRANCH   9  11
ENDBRANCH   4   9
BRANCH   1  25
HETATM   25  C3  UNL     1      27.850  60.368 -27.003  1.00  0.00     0.260 A 
HETATM   26  N3  UNL     1      27.753  59.125 -26.510  1.00  0.00    -0.299 N 
HETATM   27  C2  UNL     1      26.616  58.423 -26.668  1.00  0.00     0.178 A 
ATOM     28  H3  UNL     1      28.541  58.711 -26.014  1.00  0.00     0.171 HD
HETATM   29  C1  UNL     1      25.581  59.034 -27.350  1.00  0.00     0.175 A 
HETATM   30  C9  UNL     1      25.737  60.321 -27.840  1.00  0.00     0.323 A 
HETATM   31  O6  UNL     1      26.877  60.947 -27.646  1.00  0.00    -0.239 OA
HETATM   32  O7  UNL     1      24.771  60.841 -28.453  1.00  0.00    -0.257 OA
BRANCH  27  33
HETATM   33  O1  UNL     1      26.439  57.135 -26.187  1.00  0.00    -0.344 OA
ATOM     34  H1  UNL     1      27.138  56.728 -25.690  1.00  0.00     0.219 HD
ENDBRANCH  27  33
BRANCH  29  35
HETATM   35  N2  UNL     1      24.375  58.304 -27.525  1.00  0.00    -0.298 N 
ATOM     36  H2  UNL     1      23.847  57.971 -26.719  1.00  0.00     0.186 HD
BRANCH  35  37
HETATM   37  N1  UNL     1      23.930  58.054 -28.816  1.00  0.00    -0.344 N 
ATOM     38  H12 UNL     1      24.598  58.035 -29.586  1.00  0.00     0.176 HD
ATOM     39  H11 UNL     1      22.935  57.893 -28.967  1.00  0.00     0.176 HD
ENDBRANCH  35  37
ENDBRANCH  29  35
ENDBRANCH   1  25
TORSDOF 9
ENDMDL
MODEL 2
REMARK VINA RESULT: -7.885538107      1.373      2.177
REMARK  9 active torsions:
REMARK  status: ('A' for Active; 'I' for Inactive)
REMARK    1  A    between atoms: N1_1  and  N2_4 
REMARK    2  A    between atoms: N2_4  and  C1_6 
REMARK    3  A    between atoms: C2_7  and  O1_8 
REMARK    4  A    between atoms: C3_12  and  N4_13 
REMARK    5  A    between atoms: C4_16  and  N6_17 
REMARK    6  A    between atoms: N6_17  and  N7_19 
REMARK       I    between atoms: N8_21  and  C5_23 
REMARK    7  A    between atoms: C5_23  and  C6_25 
REMARK    8  A    between atoms: C6_25  and  N9_26 
REMARK    9  A    between atoms: C6_25  and  C7_30 
ROOT
HETATM    1  N4  UNL     1      28.525  61.880 -27.519  1.00  0.00    -0.151 N 
HETATM    2  N5  UNL     1      29.228  62.381 -26.530  1.00  0.00    -0.117 N 
ATOM      3  H5  UNL     1      29.257  62.000 -25.585  1.00  0.00     0.206 HD
HETATM    4  C4  UNL     1      29.904  63.467 -26.941  1.00  0.00     0.717 A 
HETATM    5  N10 UNL     1      29.580  63.610 -28.237  1.00  0.00    -0.137 N 
ATOM      6  H10 UNL     1      29.927  64.347 -28.851  1.00  0.00     0.189 HD
HETATM    7  C8  UNL     1      28.732  62.638 -28.602  1.00  0.00     0.363 A 
HETATM    8  O5  UNL     1      28.247  62.504 -29.761  1.00  0.00    -0.244 OA
ENDROOT
BRANCH   4   9
HETATM    9  N6  UNL     1      30.702  64.210 -26.212  1.00  0.00    -0.116 N 
ATOM     10  H6  UNL     1      31.424  63.802 -25.618  1.00  0.00     0.207 HD
BRANCH   9  11
HETATM   11  N7  UNL     1      30.508  65.588 -26.293  1.00  0.00    -0.226 N 
HETATM   12  N8  UNL     1      30.405  66.265 -25.213  1.00  0.00    -0.253 N 
HETATM   13  C5  UNL     1      30.486  65.630 -23.950  1.00  0.00     0.278 C 
ATOM     14  H8  UNL     1      30.263  67.274 -25.262  1.00  0.00     0.191 HD
HETATM   15  O2  UNL     1      31.508  64.977 -23.688  1.00  0.00    -0.269 OA
ATOM     16  H7  UNL     1      30.450  66.049 -27.200  1.00  0.00     0.209 HD
BRANCH  13  17
HETATM   17  C6  UNL     1      29.410  65.714 -22.938  1.00  0.00     0.375 C 
BRANCH  17  18
HETATM   18  N9  UNL     1      29.281  67.077 -22.460  1.00  0.00    -0.056 N 
ATOM     19  H93 UNL     1      29.777  67.221 -21.580  1.00  0.00     0.275 HD
ATOM     20  H92 UNL     1      29.806  67.735 -23.036  1.00  0.00     0.275 HD
ATOM     21  H91 UNL     1      28.296  67.332 -22.388  1.00  0.00     0.275 HD
ENDBRANCH  17  18
BRANCH  17  22
HETATM   22  C7  UNL     1      28.119  65.228 -23.463  1.00  0.00     0.214 C 
HETATM   23  O3  UNL     1      28.108  64.459 -24.443  1.00  0.00    -0.646 OA
HETATM   24  O4  UNL     1      26.947  65.628 -22.866  1.00  0.00    -0.646 OA
ENDBRANCH  17  22
ENDBRANCH  13  17
ENDBRANCH   9  11
ENDBRANCH   4   9
BRANCH   1  25
HETATM   25  C3  UNL     1      27.674  60.713 -27.456  1.00  0.00     0.260 A 
HETATM   26  N3  UNL     1      26.380  60.831 -27.785  1.00  0.00    -0.299 N 
HETATM   27  C2  UNL     1      25.570  59.758 -27.734  1.00  0.00     0.178 A 
ATOM     28  H3  UNL     1      26.009  61.734 -28.076  1.00  0.00     0.171 HD
HETATM   29  C1  UNL     1      26.127  58.559 -27.331  1.00  0.00     0.175 A 
HETATM   30  C9  UNL     1      27.472  58.496 -27.000  1.00  0.00     0.323 A 
HETATM   31  O6  UNL     1      28.203  59.585 -27.076  1.00  0.00    -0.239 OA
HETATM   32  O7  UNL     1      27.939  57.386 -26.640  1.00  0.00    -0.257 OA
BRANCH  27  33
HETATM   33  O1  UNL     1      24.224  59.800 -28.060  1.00  0.00    -0.344 OA
ATOM     34  H1  UNL     1      23.778  60.638 -28.074  1.00  0.00     0.219 HD
ENDBRANCH  27  33
BRANCH  29  35
HETATM   35  N2  UNL     1      25.284  57.418 -27.271  1.00  0.00    -0.298 N 
ATOM     36  H2  UNL     1      25.181  56.805 -28.079  1.00  0.00     0.186 HD
BRANCH  35  37
HETATM   37  N1  UNL     1      24.603  57.155 -26.091  1.00  0.00    -0.344 N 
ATOM     38  H12 UNL     1      23.955  57.847 -25.715  1.00  0.00     0.176 HD
ATOM     39  H11 UNL     1      24.767  56.265 -25.620  1.00  0.00     0.176 HD
ENDBRANCH  35  37
ENDBRANCH  29  35
ENDBRANCH   1  25
TORSDOF 9
ENDMDL
MODEL 3
REMARK VINA RESULT: -7.788977270      6.002      8.573
REMARK  9 active torsions:
REMARK  status: ('A' for Active; 'I' for Inactive)
REMARK    1  A    between atoms: N1_1  and  N2_4 
REMARK    2  A    between atoms: N2_4  and  C1_6 
REMARK    3  A    between atoms: C2_7  and  O1_8 
REMARK    4  A    between atoms: C3_12  and  N4_13 
REMARK    5  A    between atoms: C4_16  and  N6_17 
REMARK    6  A    between atoms: N6_17  and  N7_19 
REMARK       I    between atoms: N8_21  and  C5_23 
REMARK    7  A    between atoms: C5_23  and  C6_25 
REMARK    8  A    between atoms: C6_25  and  N9_26 
REMARK    9  A    between atoms: C6_25  and  C7_30 
ROOT
HETATM    1  N4  UNL     1      24.014  59.432 -31.991  1.00  0.00    -0.151 N 
HETATM    2  N5  UNL     1      24.251  60.527 -32.676  1.00  0.00    -0.117 N 
ATOM      3  H5  UNL     1      24.673  61.373 -32.294  1.00  0.00     0.206 HD
HETATM    4  C4  UNL     1      23.857  60.374 -33.951  1.00  0.00     0.717 A 
HETATM    5  N10 UNL     1      23.364  59.126 -34.017  1.00  0.00    -0.137 N 
ATOM      6  H10 UNL     1      22.978  58.691 -34.854  1.00  0.00     0.189 HD
HETATM    7  C8  UNL     1      23.457  58.539 -32.815  1.00  0.00     0.363 A 
HETATM    8  O5  UNL     1      23.076  57.361 -32.559  1.00  0.00    -0.244 OA
ENDROOT
BRANCH   4   9
HETATM    9  N6  UNL     1      23.946  61.269 -34.907  1.00  0.00    -0.116 N 
ATOM     10  H6  UNL     1      24.708  61.258 -35.585  1.00  0.00     0.207 HD
BRANCH   9  11
HETATM   11  N7  UNL     1      22.942  62.234 -34.943  1.00  0.00    -0.226 N 
HETATM   12  N8  UNL     1      23.234  63.445 -34.656  1.00  0.00    -0.253 N 
HETATM   13  C5  UNL     1      24.557  63.807 -34.305  1.00  0.00     0.278 C 
ATOM     14  H8  UNL     1      22.506  64.159 -34.680  1.00  0.00     0.191 HD
HETATM   15  O2  UNL     1      25.465  63.561 -35.114  1.00  0.00    -0.269 OA
ATOM     16  H7  UNL     1      21.988  61.978 -35.196  1.00  0.00     0.209 HD
BRANCH  13  17
HETATM   17  C6  UNL     1      24.897  64.461 -33.021  1.00  0.00     0.375 C 
BRANCH  17  18
HETATM   18  N9  UNL     1      26.278  64.903 -33.039  1.00  0.00    -0.056 N 
ATOM     19  H93 UNL     1      26.491  65.523 -32.256  1.00  0.00     0.275 HD
ATOM     20  H92 UNL     1      26.924  64.147 -32.810  1.00  0.00     0.275 HD
ATOM     21  H91 UNL     1      26.497  65.334 -33.936  1.00  0.00     0.275 HD
ENDBRANCH  17  18
BRANCH  17  22
HETATM   22  C7  UNL     1      23.997  65.591 -32.722  1.00  0.00     0.214 C 
HETATM   23  O3  UNL     1      24.484  66.694 -32.408  1.00  0.00    -0.646 OA
HETATM   24  O4  UNL     1      22.636  65.414 -32.792  1.00  0.00    -0.646 OA
ENDBRANCH  17  22
ENDBRANCH  13  17
ENDBRANCH   9  11
ENDBRANCH   4   9
BRANCH   1  25
HETATM   25  C3  UNL     1      24.303  59.224 -30.590  1.00  0.00     0.260 A 
HETATM   26  N3  UNL     1      24.275  57.978 -30.096  1.00  0.00    -0.299 N 
HETATM   27  C2  UNL     1      24.542  57.760 -28.796  1.00  0.00     0.178 A 
ATOM     28  H3  UNL     1      24.052  57.193 -30.708  1.00  0.00     0.171 HD
HETATM   29  C1  UNL     1      24.836  58.861 -28.015  1.00  0.00     0.175 A 
HETATM   30  C9  UNL     1      24.850  60.128 -28.578  1.00  0.00     0.323 A 
HETATM   31  O6  UNL     1      24.581  60.264 -29.857  1.00  0.00    -0.239 OA
HETATM   32  O7  UNL     1      25.124  61.102 -27.832  1.00  0.00    -0.257 OA
BRANCH  27  33
HETATM   33  O1  UNL     1      24.534  56.503 -28.213  1.00  0.00    -0.344 OA
ATOM     34  H1  UNL     1      23.938  56.331 -27.494  1.00  0.00     0.219 HD
ENDBRANCH  27  33
BRANCH  29  35
HETATM   35  N2  UNL     1      25.120  58.647 -26.639  1.00  0.00    -0.298 N 
ATOM     36  H2  UNL     1      24.584  59.128 -25.917  1.00  0.00     0.186 HD
BRANCH  35  37
HETATM   37  N1  UNL     1      26.140  57.770 -26.299  1.00  0.00    -0.344 N 
ATOM     38  H12 UNL     1      26.684  57.931 -25.451  1.00  0.00     0.176 HD
ATOM     39  H11 UNL     1      26.326  56.975 -26.910  1.00  0.00     0.176 HD
ENDBRANCH  35  37
ENDBRANCH  29  35
ENDBRANCH   1  25
TORSDOF 9
ENDMDL
MODEL 4
REMARK VINA RESULT: -7.788764107      1.461      2.179
REMARK  9 active torsions:
REMARK  status: ('A' for Active; 'I' for Inactive)
REMARK    1  A    between atoms: N1_1  and  N2_4 
REMARK    2  A    between atoms: N2_4  and  C1_6 
REMARK    3  A    between atoms: C2_7  and  O1_8 
REMARK    4  A    between atoms: C3_12  and  N4_13 
REMARK    5  A    between atoms: C4_16  and  N6_17 
REMARK    6  A    between atoms: N6_17  and  N7_19 
REMARK       I    between atoms: N8_21  and  C5_23 
REMARK    7  A    between atoms: C5_23  and  C6_25 
REMARK    8  A    between atoms: C6_25  and  N9_26 
REMARK    9  A    between atoms: C6_25  and  C7_30 
ROOT
HETATM    1  N4  UNL     1      27.874  61.478 -27.720  1.00  0.00    -0.151 N 
HETATM    2  N5  UNL     1      28.502  61.933 -26.661  1.00  0.00    -0.117 N 
ATOM      3  H5  UNL     1      28.445  61.525 -25.728  1.00  0.00     0.206 HD
HETATM    4  C4  UNL     1      29.232  63.015 -26.981  1.00  0.00     0.717 A 
HETATM    5  N10 UNL     1      29.020  63.203 -28.295  1.00  0.00    -0.137 N 
ATOM      6  H10 UNL     1      29.431  63.949 -28.855  1.00  0.00     0.189 HD
HETATM    7  C8  UNL     1      28.186  62.261 -28.758  1.00  0.00     0.363 A 
HETATM    8  O5  UNL     1      27.796  62.172 -29.957  1.00  0.00    -0.244 OA
ENDROOT
BRANCH   4   9
HETATM    9  N6  UNL     1      29.981  63.718 -26.166  1.00  0.00    -0.116 N 
ATOM     10  H6  UNL     1      30.530  63.280 -25.426  1.00  0.00     0.207 HD
BRANCH   9  11
HETATM   11  N7  UNL     1      29.985  65.098 -26.366  1.00  0.00    -0.226 N 
HETATM   12  N8  UNL     1      30.134  65.871 -25.359  1.00  0.00    -0.253 N 
HETATM   13  C5  UNL     1      30.294  65.340 -24.056  1.00  0.00     0.278 C 
ATOM     14  H8  UNL     1      30.138  66.882 -25.494  1.00  0.00     0.191 HD
HETATM   15  O2  UNL     1      31.234  64.555 -23.855  1.00  0.00    -0.269 OA
ATOM     16  H7  UNL     1      29.870  65.485 -27.302  1.00  0.00     0.209 HD
BRANCH  13  17
HETATM   17  C6  UNL     1      29.393  65.681 -22.933  1.00  0.00     0.375 C 
BRANCH  17  18
HETATM   18  N9  UNL     1      29.543  67.079 -22.581  1.00  0.00    -0.056 N 
ATOM     19  H93 UNL     1      30.486  67.292 -22.253  1.00  0.00     0.275 HD
ATOM     20  H92 UNL     1      29.532  67.684 -23.403  1.00  0.00     0.275 HD
ATOM     21  H91 UNL     1      28.833  67.348 -21.900  1.00  0.00     0.275 HD
ENDBRANCH  17  18
BRANCH  17  22
HETATM   22  C7  UNL     1      27.983  65.376 -23.244  1.00  0.00     0.214 C 
HETATM   23  O3  UNL     1      27.080  65.890 -22.556  1.00  0.00    -0.646 OA
HETATM   24  O4  UNL     1      27.683  64.530 -24.285  1.00  0.00    -0.646 OA
ENDBRANCH  17  22
ENDBRANCH  13  17
ENDBRANCH   9  11
ENDBRANCH   4   9
BRANCH   1  25
HETATM   25  C3  UNL     1      26.997  60.329 -27.762  1.00  0.00     0.260 A 
HETATM   26  N3  UNL     1      26.039  60.274 -28.699  1.00  0.00    -0.299 N 
HETATM   27  C2  UNL     1      25.212  59.214 -28.757  1.00  0.00     0.178 A 
ATOM     28  H3  UNL     1      25.937  61.036 -29.368  1.00  0.00     0.171 HD
HETATM   29  C1  UNL     1      25.396  58.212 -27.823  1.00  0.00     0.175 A 
HETATM   30  C9  UNL     1      26.403  58.322 -26.877  1.00  0.00     0.323 A 
HETATM   31  O6  UNL     1      27.174  59.387 -26.881  1.00  0.00    -0.239 OA
HETATM   32  O7  UNL     1      26.537  57.388 -26.046  1.00  0.00    -0.257 OA
BRANCH  27  33
HETATM   33  O1  UNL     1      24.200  59.084 -29.695  1.00  0.00    -0.344 OA
ATOM     34  H1  UNL     1      23.582  59.796 -29.808  1.00  0.00     0.219 HD
ENDBRANCH  27  33
BRANCH  29  35
HETATM   35  N2  UNL     1      24.530  57.087 -27.873  1.00  0.00    -0.298 N 
ATOM     36  H2  UNL     1      24.378  56.586 -28.748  1.00  0.00     0.186 HD
BRANCH  35  37
HETATM   37  N1  UNL     1      23.895  56.685 -26.706  1.00  0.00    -0.344 N 
ATOM     38  H12 UNL     1      22.943  56.994 -26.516  1.00  0.00     0.176 HD
ATOM     39  H11 UNL     1      24.401  56.082 -26.057  1.00  0.00     0.176 HD
ENDBRANCH  35  37
ENDBRANCH  29  35
ENDBRANCH   1  25
TORSDOF 9
ENDMDL
MODEL 5
REMARK VINA RESULT: -7.784654562      1.203      1.418
REMARK  9 active torsions:
REMARK  status: ('A' for Active; 'I' for Inactive)
REMARK    1  A    between atoms: N1_1  and  N2_4 
REMARK    2  A    between atoms: N2_4  and  C1_6 
REMARK    3  A    between atoms: C2_7  and  O1_8 
REMARK    4  A    between atoms: C3_12  and  N4_13 
REMARK    5  A    between atoms: C4_16  and  N6_17 
REMARK    6  A    between atoms: N6_17  and  N7_19 
REMARK       I    between atoms: N8_21  and  C5_23 
REMARK    7  A    between atoms: C5_23  and  C6_25 
REMARK    8  A    between atoms: C6_25  and  N9_26 
REMARK    9  A    between atoms: C6_25  and  C7_30 
ROOT
HETATM    1  N4  UNL     1      28.150  60.441 -26.777  1.00  0.00    -0.151 N 
HETATM    2  N5  UNL     1      28.428  61.716 -26.630  1.00  0.00    -0.117 N 
ATOM      3  H5  UNL     1      27.828  62.482 -26.936  1.00  0.00     0.206 HD
HETATM    4  C4  UNL     1      29.616  61.867 -26.022  1.00  0.00     0.717 A 
HETATM    5  N10 UNL     1      30.056  60.617 -25.800  1.00  0.00    -0.137 N 
ATOM      6  H10 UNL     1      30.939  60.377 -25.349  1.00  0.00     0.189 HD
HETATM    7  C8  UNL     1      29.160  59.733 -26.261  1.00  0.00     0.363 A 
HETATM    8  O5  UNL     1      29.290  58.477 -26.198  1.00  0.00    -0.244 OA
ENDROOT
BRANCH   4   9
HETATM    9  N6  UNL     1      30.198  63.004 -25.721  1.00  0.00    -0.116 N 
ATOM     10  H6  UNL     1      31.045  63.041 -25.154  1.00  0.00     0.207 HD
BRANCH   9  11
HETATM   11  N7  UNL     1      29.594  64.157 -26.220  1.00  0.00    -0.226 N 
HETATM   12  N8  UNL     1      29.620  65.225 -25.517  1.00  0.00    -0.253 N 
HETATM   13  C5  UNL     1      30.252  65.242 -24.250  1.00  0.00     0.278 C 
ATOM     14  H8  UNL     1      29.182  66.074 -25.873  1.00  0.00     0.191 HD
HETATM   15  O2  UNL     1      31.450  64.924 -24.189  1.00  0.00    -0.269 OA
ATOM     16  H7  UNL     1      29.139  64.149 -27.132  1.00  0.00     0.209 HD
BRANCH  13  17
HETATM   17  C6  UNL     1      29.546  65.621 -23.006  1.00  0.00     0.375 C 
BRANCH  17  18
HETATM   18  N9  UNL     1      29.643  67.052 -22.794  1.00  0.00    -0.056 N 
ATOM     19  H93 UNL     1      30.590  67.398 -22.949  1.00  0.00     0.275 HD
ATOM     20  H92 UNL     1      29.170  67.579 -23.529  1.00  0.00     0.275 HD
ATOM     21  H91 UNL     1      29.295  67.293 -21.866  1.00  0.00     0.275 HD
ENDBRANCH  17  18
BRANCH  17  22
HETATM   22  C7  UNL     1      28.133  65.196 -23.021  1.00  0.00     0.214 C 
HETATM   23  O3  UNL     1      27.820  64.134 -23.592  1.00  0.00    -0.646 OA
HETATM   24  O4  UNL     1      27.181  65.975 -22.408  1.00  0.00    -0.646 OA
ENDBRANCH  17  22
ENDBRANCH  13  17
ENDBRANCH   9  11
ENDBRANCH   4   9
BRANCH   1  25
HETATM   25  C3  UNL     1      26.959  59.892 -27.387  1.00  0.00     0.260 A 
HETATM   26  N3  UNL     1      26.454  58.744 -26.915  1.00  0.00    -0.299 N 
HETATM   27  C2  UNL     1      25.347  58.216 -27.467  1.00  0.00     0.178 A 
ATOM     28  H3  UNL     1      26.909  58.270 -26.135  1.00  0.00     0.171 HD
HETATM   29  C1  UNL     1      24.774  58.901 -28.521  1.00  0.00     0.175 A 
HETATM   30  C9  UNL     1      25.339  60.084 -28.969  1.00  0.00     0.323 A 
HETATM   31  O6  UNL     1      26.422  60.541 -28.380  1.00  0.00    -0.239 OA
HETATM   32  O7  UNL     1      24.787  60.677 -29.930  1.00  0.00    -0.257 OA
BRANCH  27  33
HETATM   33  O1  UNL     1      24.765  57.035 -27.035  1.00  0.00    -0.344 OA
ATOM     34  H1  UNL     1      25.288  56.243 -27.014  1.00  0.00     0.219 HD
ENDBRANCH  27  33
BRANCH  29  35
HETATM   35  N2  UNL     1      23.604  58.355 -29.115  1.00  0.00    -0.298 N 
ATOM     36  H2  UNL     1      22.772  58.175 -28.554  1.00  0.00     0.186 HD
BRANCH  35  37
HETATM   37  N1  UNL     1      23.618  58.072 -30.474  1.00  0.00    -0.344 N 
ATOM     38  H12 UNL     1      23.959  58.772 -31.132  1.00  0.00     0.176 HD
ATOM     39  H11 UNL     1      23.282  57.162 -30.787  1.00  0.00     0.176 HD
ENDBRANCH  35  37
ENDBRANCH  29  35
ENDBRANCH   1  25
TORSDOF 9
ENDMDL
