MODEL 1
REMARK VINA RESULT: -7.700448459      0.000      0.000
REMARK  9 active torsions:
REMARK  status: ('A' for Active; 'I' for Inactive)
REMARK    1  A    between atoms: C2_3  and  N2_4 
REMARK       I    between atoms: N2_4  and  C3_6 
REMARK    2  A    between atoms: C3_6  and  C4_8 
REMARK    3  A    between atoms: C5_9  and  C6_10 
REMARK    4  A    between atoms: C9_15  and  C10_16 
REMARK    5  A    between atoms: C10_16  and  O3_17 
REMARK    6  A    between atoms: C11_19  and  O4_20 
REMARK    7  A    between atoms: C12_22  and  N3_23 
REMARK    8  A    between atoms: N3_23  and  C13_25 
REMARK    9  A    between atoms: C13_25  and  C14_26 
ROOT
HETATM    1  N1  UNL     1       5.447 -20.412  73.463  1.00  0.00    -0.196 NA
HETATM    2  C1  UNL     1       6.258 -19.696  73.853  1.00  0.00     0.078 C 
HETATM    3  C2  UNL     1       7.275 -18.774  74.359  1.00  0.00     0.247 C 
ENDROOT
BRANCH   3   4
HETATM    4  N2  UNL     1       7.734 -17.954  73.262  1.00  0.00    -0.345 N 
HETATM    5  C3  UNL     1       8.278 -16.667  73.504  1.00  0.00     0.241 C 
HETATM    6  O1  UNL     1       8.353 -16.258  74.688  1.00  0.00    -0.269 OA
ATOM      7  H2  UNL     1       7.666 -18.304  72.306  1.00  0.00     0.163 HD
BRANCH   5   8
HETATM    8  C4  UNL     1       8.755 -15.798  72.446  1.00  0.00     0.072 C 
HETATM    9  C5  UNL     1       8.755 -16.177  71.183  1.00  0.00     0.011 C 
BRANCH   9  10
HETATM   10  C6  UNL     1       9.249 -15.266  70.121  1.00  0.00     0.154 C 
HETATM   11  C7  UNL     1      10.251 -14.313  70.729  1.00  0.00     0.112 C 
HETATM   12  S1  UNL     1      11.163 -13.603  69.299  1.00  0.00    -0.132 SA
HETATM   13  C8  UNL     1       9.863 -13.458  68.014  1.00  0.00     0.214 C 
HETATM   14  O2  UNL     1       9.927 -14.526  67.136  1.00  0.00    -0.363 OA
HETATM   15  C20 UNL     1       8.555 -13.480  68.816  1.00  0.00     0.186 C 
HETATM   16  C9  UNL     1       8.778 -14.713  66.404  1.00  0.00     0.177 C 
HETATM   17  C11 UNL     1       7.780 -13.615  66.471  1.00  0.00     0.174 C 
HETATM   18  C12 UNL     1       7.475 -13.084  67.830  1.00  0.00     0.140 C 
HETATM   19  O5  UNL     1       8.272 -14.682  69.380  1.00  0.00    -0.370 OA
BRANCH  16  20
HETATM   20  C10 UNL     1       9.197 -14.849  64.934  1.00  0.00     0.198 C 
BRANCH  20  21
HETATM   21  O3  UNL     1       9.168 -13.641  64.274  1.00  0.00    -0.398 OA
ATOM     22  H3  UNL     1       9.685 -12.979  64.718  1.00  0.00     0.209 HD
ENDBRANCH  20  21
ENDBRANCH  16  20
BRANCH  17  23
HETATM   23  O4  UNL     1       6.580 -14.107  65.902  1.00  0.00    -0.391 OA
ATOM     24  H4  UNL     1       6.013 -14.361  66.622  1.00  0.00     0.210 HD
ENDBRANCH  17  23
BRANCH  18  25
HETATM   25  N3  UNL     1       7.458 -11.664  67.785  1.00  0.00    -0.408 N 
ATOM     26  H3  UNL     1       7.847 -11.151  66.994  1.00  0.00     0.154 HD
BRANCH  25  27
HETATM   27  C13 UNL     1       6.878 -10.997  68.886  1.00  0.00     0.153 C 
BRANCH  27  28
HETATM   28  C14 UNL     1       7.794 -10.085  69.593  1.00  0.00    -0.041 A 
HETATM   29  C15 UNL     1       7.341  -8.953  70.239  1.00  0.00     0.009 A 
HETATM   30  C16 UNL     1       8.206  -8.093  70.914  1.00  0.00     0.001 A 
HETATM   31  C17 UNL     1       9.562  -8.346  70.960  1.00  0.00     0.000 A 
HETATM   32  C18 UNL     1      10.017  -9.478  70.315  1.00  0.00     0.001 A 
HETATM   33  C19 UNL     1       9.153 -10.332  69.645  1.00  0.00     0.009 A 
ENDBRANCH  27  28
ENDBRANCH  25  27
ENDBRANCH  18  25
ENDBRANCH   9  10
ENDBRANCH   5   8
ENDBRANCH   3   4
TORSDOF 9
ENDMDL
MODEL 2
REMARK VINA RESULT: -7.554701589      0.546      1.031
REMARK  9 active torsions:
REMARK  status: ('A' for Active; 'I' for Inactive)
REMARK    1  A    between atoms: C2_3  and  N2_4 
REMARK       I    between atoms: N2_4  and  C3_6 
REMARK    2  A    between atoms: C3_6  and  C4_8 
REMARK    3  A    between atoms: C5_9  and  C6_10 
REMARK    4  A    between atoms: C9_15  and  C10_16 
REMARK    5  A    between atoms: C10_16  and  O3_17 
REMARK    6  A    between atoms: C11_19  and  O4_20 
REMARK    7  A    between atoms: C12_22  and  N3_23 
REMARK    8  A    between atoms: N3_23  and  C13_25 
REMARK    9  A    between atoms: C13_25  and  C14_26 
ROOT
HETATM    1  N1  UNL     1       5.090 -20.391  73.469  1.00  0.00    -0.196 NA
HETATM    2  C1  UNL     1       5.933 -19.708  73.850  1.00  0.00     0.078 C 
HETATM    3  C2  UNL     1       6.989 -18.826  74.345  1.00  0.00     0.247 C 
ENDROOT
BRANCH   3   4
HETATM    4  N2  UNL     1       7.437 -17.992  73.253  1.00  0.00    -0.345 N 
HETATM    5  C3  UNL     1       8.799 -17.610  73.151  1.00  0.00     0.241 C 
HETATM    6  O1  UNL     1       9.604 -18.010  74.026  1.00  0.00    -0.269 OA
ATOM      7  H2  UNL     1       6.768 -17.676  72.551  1.00  0.00     0.163 HD
BRANCH   5   8
HETATM    8  C4  UNL     1       9.308 -16.775  72.081  1.00  0.00     0.072 C 
HETATM    9  C5  UNL     1       8.504 -16.084  71.296  1.00  0.00     0.011 C 
BRANCH   9  10
HETATM   10  C6  UNL     1       9.053 -15.238  70.208  1.00  0.00     0.154 C 
HETATM   11  C7  UNL     1      10.096 -14.315  70.794  1.00  0.00     0.112 C 
HETATM   12  S1  UNL     1      11.057 -13.704  69.350  1.00  0.00    -0.132 SA
HETATM   13  C8  UNL     1       9.777 -13.539  68.046  1.00  0.00     0.214 C 
HETATM   14  O2  UNL     1       9.795 -14.640  67.207  1.00  0.00    -0.363 OA
HETATM   15  C20 UNL     1       8.463 -13.466  68.834  1.00  0.00     0.186 C 
HETATM   16  C9  UNL     1       8.645 -14.794  66.469  1.00  0.00     0.177 C 
HETATM   17  C11 UNL     1       7.703 -13.645  66.486  1.00  0.00     0.174 C 
HETATM   18  C12 UNL     1       7.414 -13.051  67.823  1.00  0.00     0.140 C 
HETATM   19  O5  UNL     1       8.114 -14.632  69.436  1.00  0.00    -0.370 OA
BRANCH  16  20
HETATM   20  C10 UNL     1       9.070 -15.003  65.010  1.00  0.00     0.198 C 
BRANCH  20  21
HETATM   21  O3  UNL     1       9.110 -13.820  64.307  1.00  0.00    -0.398 OA
ATOM     22  H3  UNL     1       9.826 -13.799  63.684  1.00  0.00     0.209 HD
ENDBRANCH  20  21
ENDBRANCH  16  20
BRANCH  17  23
HETATM   23  O4  UNL     1       6.486 -14.096  65.922  1.00  0.00    -0.391 OA
ATOM     24  H4  UNL     1       6.516 -13.895  64.994  1.00  0.00     0.210 HD
ENDBRANCH  17  23
BRANCH  18  25
HETATM   25  N3  UNL     1       7.470 -11.635  67.728  1.00  0.00    -0.408 N 
ATOM     26  H3  UNL     1       7.919 -11.171  66.939  1.00  0.00     0.154 HD
BRANCH  25  27
HETATM   27  C13 UNL     1       6.875 -10.901  68.777  1.00  0.00     0.153 C 
BRANCH  27  28
HETATM   28  C14 UNL     1       7.818 -10.067  69.544  1.00  0.00    -0.041 A 
HETATM   29  C15 UNL     1       9.168 -10.342  69.580  1.00  0.00     0.009 A 
HETATM   30  C16 UNL     1      10.063  -9.551  70.300  1.00  0.00     0.001 A 
HETATM   31  C17 UNL     1       9.622  -8.453  71.011  1.00  0.00     0.000 A 
HETATM   32  C18 UNL     1       8.271  -8.177  70.976  1.00  0.00     0.001 A 
HETATM   33  C19 UNL     1       7.385  -8.966  70.257  1.00  0.00     0.009 A 
ENDBRANCH  27  28
ENDBRANCH  25  27
ENDBRANCH  18  25
ENDBRANCH   9  10
ENDBRANCH   5   8
ENDBRANCH   3   4
TORSDOF 9
ENDMDL
MODEL 3
REMARK VINA RESULT: -5.775888770      1.379      1.753
REMARK  9 active torsions:
REMARK  status: ('A' for Active; 'I' for Inactive)
REMARK    1  A    between atoms: C2_3  and  N2_4 
REMARK       I    between atoms: N2_4  and  C3_6 
REMARK    2  A    between atoms: C3_6  and  C4_8 
REMARK    3  A    between atoms: C5_9  and  C6_10 
REMARK    4  A    between atoms: C9_15  and  C10_16 
REMARK    5  A    between atoms: C10_16  and  O3_17 
REMARK    6  A    between atoms: C11_19  and  O4_20 
REMARK    7  A    between atoms: C12_22  and  N3_23 
REMARK    8  A    between atoms: N3_23  and  C13_25 
REMARK    9  A    between atoms: C13_25  and  C14_26 
ROOT
HETATM    1  N1  UNL     1       6.397 -20.387  74.569  1.00  0.00    -0.196 NA
HETATM    2  C1  UNL     1       7.232 -19.596  74.565  1.00  0.00     0.078 C 
HETATM    3  C2  UNL     1       8.281 -18.577  74.575  1.00  0.00     0.247 C 
ENDROOT
BRANCH   3   4
HETATM    4  N2  UNL     1       8.225 -17.853  73.327  1.00  0.00    -0.345 N 
HETATM    5  C3  UNL     1       8.345 -16.439  73.309  1.00  0.00     0.241 C 
HETATM    6  O1  UNL     1       8.502 -15.835  74.397  1.00  0.00    -0.269 OA
ATOM      7  H2  UNL     1       8.097 -18.361  72.451  1.00  0.00     0.163 HD
BRANCH   5   8
HETATM    8  C4  UNL     1       8.296 -15.656  72.090  1.00  0.00     0.072 C 
HETATM    9  C5  UNL     1       9.135 -15.868  71.094  1.00  0.00     0.011 C 
BRANCH   9  10
HETATM   10  C6  UNL     1       9.061 -15.051  69.857  1.00  0.00     0.154 C 
HETATM   11  C7  UNL     1      10.430 -14.478  69.575  1.00  0.00     0.112 C 
HETATM   12  S1  UNL     1      10.370 -13.942  67.817  1.00  0.00    -0.132 SA
HETATM   13  C8  UNL     1       8.652 -13.325  67.635  1.00  0.00     0.214 C 
HETATM   14  O2  UNL     1       7.849 -14.290  67.053  1.00  0.00    -0.363 OA
HETATM   15  C20 UNL     1       8.214 -13.039  69.077  1.00  0.00     0.186 C 
HETATM   16  C9  UNL     1       6.503 -14.080  67.239  1.00  0.00     0.177 C 
HETATM   17  C11 UNL     1       6.124 -12.751  67.786  1.00  0.00     0.174 C 
HETATM   18  C12 UNL     1       6.915 -12.271  68.955  1.00  0.00     0.140 C 
HETATM   19  O5  UNL     1       8.043 -14.153  69.834  1.00  0.00    -0.370 OA
BRANCH  16  20
HETATM   20  C10 UNL     1       5.832 -14.207  65.865  1.00  0.00     0.198 C 
BRANCH  20  21
HETATM   21  O3  UNL     1       5.150 -13.064  65.514  1.00  0.00    -0.398 OA
ATOM     22  H3  UNL     1       5.681 -12.481  64.983  1.00  0.00     0.209 HD
ENDBRANCH  20  21
ENDBRANCH  16  20
BRANCH  17  23
HETATM   23  O4  UNL     1       4.763 -12.831  68.167  1.00  0.00    -0.391 OA
ATOM     24  H4  UNL     1       4.268 -12.301  67.552  1.00  0.00     0.210 HD
ENDBRANCH  17  23
BRANCH  18  25
HETATM   25  N3  UNL     1       7.259 -10.907  68.757  1.00  0.00    -0.408 N 
ATOM     26  H3  UNL     1       6.590 -10.238  68.376  1.00  0.00     0.154 HD
BRANCH  25  27
HETATM   27  C13 UNL     1       8.569 -10.520  69.114  1.00  0.00     0.153 C 
BRANCH  27  28
HETATM   28  C14 UNL     1       8.633  -9.496  70.171  1.00  0.00    -0.041 A 
HETATM   29  C15 UNL     1       7.729  -8.457  70.234  1.00  0.00     0.009 A 
HETATM   30  C16 UNL     1       7.783  -7.491  71.237  1.00  0.00     0.001 A 
HETATM   31  C17 UNL     1       8.756  -7.541  72.215  1.00  0.00     0.000 A 
HETATM   32  C18 UNL     1       9.661  -8.580  72.155  1.00  0.00     0.001 A 
HETATM   33  C19 UNL     1       9.603  -9.540  71.154  1.00  0.00     0.009 A 
ENDBRANCH  27  28
ENDBRANCH  25  27
ENDBRANCH  18  25
ENDBRANCH   9  10
ENDBRANCH   5   8
ENDBRANCH   3   4
TORSDOF 9
ENDMDL
MODEL 4
REMARK VINA RESULT: -5.659442539      3.029      6.777
REMARK  9 active torsions:
REMARK  status: ('A' for Active; 'I' for Inactive)
REMARK    1  A    between atoms: C2_3  and  N2_4 
REMARK       I    between atoms: N2_4  and  C3_6 
REMARK    2  A    between atoms: C3_6  and  C4_8 
REMARK    3  A    between atoms: C5_9  and  C6_10 
REMARK    4  A    between atoms: C9_15  and  C10_16 
REMARK    5  A    between atoms: C10_16  and  O3_17 
REMARK    6  A    between atoms: C11_19  and  O4_20 
REMARK    7  A    between atoms: C12_22  and  N3_23 
REMARK    8  A    between atoms: N3_23  and  C13_25 
REMARK    9  A    between atoms: C13_25  and  C14_26 
ROOT
HETATM    1  N1  UNL     1      13.115 -17.856  62.055  1.00  0.00    -0.196 NA
HETATM    2  C1  UNL     1      12.019 -17.507  62.088  1.00  0.00     0.078 C 
HETATM    3  C2  UNL     1      10.632 -17.044  62.121  1.00  0.00     0.247 C 
ENDROOT
BRANCH   3   4
HETATM    4  N2  UNL     1      10.304 -16.684  63.481  1.00  0.00    -0.345 N 
HETATM    5  C3  UNL     1       9.881 -15.367  63.795  1.00  0.00     0.241 C 
HETATM    6  O1  UNL     1       9.799 -14.524  62.869  1.00  0.00    -0.269 OA
ATOM      7  H2  UNL     1      10.376 -17.382  64.221  1.00  0.00     0.163 HD
BRANCH   5   8
HETATM    8  C4  UNL     1       9.538 -14.945  65.139  1.00  0.00     0.072 C 
HETATM    9  C5  UNL     1       8.301 -14.638  65.476  1.00  0.00     0.011 C 
BRANCH   9  10
HETATM   10  C6  UNL     1       7.979 -14.210  66.860  1.00  0.00     0.154 C 
HETATM   11  C7  UNL     1       7.070 -13.004  66.793  1.00  0.00     0.112 C 
HETATM   12  S1  UNL     1       6.328 -12.873  68.470  1.00  0.00    -0.132 SA
HETATM   13  C8  UNL     1       7.702 -13.391  69.569  1.00  0.00     0.214 C 
HETATM   14  O2  UNL     1       7.555 -14.717  69.938  1.00  0.00    -0.363 OA
HETATM   15  C20 UNL     1       8.953 -13.196  68.703  1.00  0.00     0.186 C 
HETATM   16  C9  UNL     1       8.708 -15.293  70.415  1.00  0.00     0.177 C 
HETATM   17  C11 UNL     1       9.829 -14.360  70.702  1.00  0.00     0.174 C 
HETATM   18  C12 UNL     1      10.124 -13.343  69.653  1.00  0.00     0.140 C 
HETATM   19  O5  UNL     1       9.057 -14.076  67.674  1.00  0.00    -0.370 OA
BRANCH  16  20
HETATM   20  C10 UNL     1       8.354 -15.988  71.736  1.00  0.00     0.198 C 
BRANCH  20  21
HETATM   21  O3  UNL     1       8.451 -15.135  72.812  1.00  0.00    -0.398 OA
ATOM     22  H3  UNL     1       7.956 -15.448  73.561  1.00  0.00     0.209 HD
ENDBRANCH  20  21
ENDBRANCH  16  20
BRANCH  17  23
HETATM   23  O4  UNL     1      10.987 -15.149  70.901  1.00  0.00    -0.391 OA
ATOM     24  H4  UNL     1      11.691 -14.557  71.140  1.00  0.00     0.210 HD
ENDBRANCH  17  23
BRANCH  18  25
HETATM   25  N3  UNL     1      10.316 -12.077  70.269  1.00  0.00    -0.408 N 
ATOM     26  H3  UNL     1      10.505 -11.994  71.268  1.00  0.00     0.154 HD
BRANCH  25  27
HETATM   27  C13 UNL     1      10.235 -10.941  69.435  1.00  0.00     0.153 C 
BRANCH  27  28
HETATM   28  C14 UNL     1       9.418  -9.844  69.983  1.00  0.00    -0.041 A 
HETATM   29  C15 UNL     1       9.962  -8.860  70.781  1.00  0.00     0.009 A 
HETATM   30  C16 UNL     1       9.193  -7.818  71.295  1.00  0.00     0.001 A 
HETATM   31  C17 UNL     1       7.843  -7.733  71.021  1.00  0.00     0.000 A 
HETATM   32  C18 UNL     1       7.297  -8.717  70.222  1.00  0.00     0.001 A 
HETATM   33  C19 UNL     1       8.067  -9.752  69.712  1.00  0.00     0.009 A 
ENDBRANCH  27  28
ENDBRANCH  25  27
ENDBRANCH  18  25
ENDBRANCH   9  10
ENDBRANCH   5   8
ENDBRANCH   3   4
TORSDOF 9
ENDMDL
MODEL 5
REMARK VINA RESULT: -5.124527200      1.573      2.141
REMARK  9 active torsions:
REMARK  status: ('A' for Active; 'I' for Inactive)
REMARK    1  A    between atoms: C2_3  and  N2_4 
REMARK       I    between atoms: N2_4  and  C3_6 
REMARK    2  A    between atoms: C3_6  and  C4_8 
REMARK    3  A    between atoms: C5_9  and  C6_10 
REMARK    4  A    between atoms: C9_15  and  C10_16 
REMARK    5  A    between atoms: C10_16  and  O3_17 
REMARK    6  A    between atoms: C11_19  and  O4_20 
REMARK    7  A    between atoms: C12_22  and  N3_23 
REMARK    8  A    between atoms: N3_23  and  C13_25 
REMARK    9  A    between atoms: C13_25  and  C14_26 
ROOT
HETATM    1  N1  UNL     1       3.601 -20.186  73.732  1.00  0.00    -0.196 NA
HETATM    2  C1  UNL     1       4.639 -19.939  74.161  1.00  0.00     0.078 C 
HETATM    3  C2  UNL     1       5.950 -19.606  74.718  1.00  0.00     0.247 C 
ENDROOT
BRANCH   3   4
HETATM    4  N2  UNL     1       6.731 -18.959  73.690  1.00  0.00    -0.345 N 
HETATM    5  C3  UNL     1       8.046 -18.503  73.965  1.00  0.00     0.241 C 
HETATM    6  O1  UNL     1       8.514 -18.675  75.117  1.00  0.00    -0.269 OA
ATOM      7  H2  UNL     1       6.335 -18.828  72.759  1.00  0.00     0.163 HD
BRANCH   5   8
HETATM    8  C4  UNL     1       8.879 -17.846  72.977  1.00  0.00     0.072 C 
HETATM    9  C5  UNL     1       8.508 -16.725  72.391  1.00  0.00     0.011 C 
BRANCH   9  10
HETATM   10  C6  UNL     1       9.381 -16.074  71.382  1.00  0.00     0.154 C 
HETATM   11  C7  UNL     1      10.813 -16.165  71.854  1.00  0.00     0.112 C 
HETATM   12  S1  UNL     1      11.830 -15.822  70.361  1.00  0.00    -0.132 SA
HETATM   13  C8  UNL     1      10.843 -14.555  69.474  1.00  0.00     0.214 C 
HETATM   14  O2  UNL     1      10.100 -15.140  68.463  1.00  0.00    -0.363 OA
HETATM   15  C20 UNL     1       9.932 -13.977  70.564  1.00  0.00     0.186 C 
HETATM   16  C9  UNL     1       9.056 -14.362  68.020  1.00  0.00     0.177 C 
HETATM   17  C11 UNL     1       9.050 -12.953  68.491  1.00  0.00     0.174 C 
HETATM   18  C12 UNL     1       9.303 -12.745  69.946  1.00  0.00     0.140 C 
HETATM   19  O5  UNL     1       8.976 -14.836  71.000  1.00  0.00    -0.370 OA
BRANCH  16  20
HETATM   20  C10 UNL     1       9.141 -14.322  66.489  1.00  0.00     0.198 C 
BRANCH  20  21
HETATM   21  O3  UNL     1       7.935 -14.622  65.895  1.00  0.00    -0.398 OA
ATOM     22  H3  UNL     1       7.736 -14.034  65.176  1.00  0.00     0.209 HD
ENDBRANCH  20  21
ENDBRANCH  16  20
BRANCH  17  23
HETATM   23  O4  UNL     1       7.781 -12.412  68.175  1.00  0.00    -0.391 OA
ATOM     24  H4  UNL     1       7.149 -12.825  68.752  1.00  0.00     0.210 HD
ENDBRANCH  17  23
BRANCH  18  25
HETATM   25  N3  UNL     1      10.228 -11.681  70.113  1.00  0.00    -0.408 N 
ATOM     26  H3  UNL     1      11.053 -11.779  70.705  1.00  0.00     0.154 HD
BRANCH  25  27
HETATM   27  C13 UNL     1       9.953 -10.480  69.423  1.00  0.00     0.153 C 
BRANCH  27  28
HETATM   28  C14 UNL     1       9.261  -9.461  70.231  1.00  0.00    -0.041 A 
HETATM   29  C15 UNL     1       8.012  -8.987  69.890  1.00  0.00     0.009 A 
HETATM   30  C16 UNL     1       7.352  -8.028  70.657  1.00  0.00     0.001 A 
HETATM   31  C17 UNL     1       7.933  -7.512  71.798  1.00  0.00     0.000 A 
HETATM   32  C18 UNL     1       9.183  -7.986  72.141  1.00  0.00     0.001 A 
HETATM   33  C19 UNL     1       9.836  -8.941  71.375  1.00  0.00     0.009 A 
ENDBRANCH  27  28
ENDBRANCH  25  27
ENDBRANCH  18  25
ENDBRANCH   9  10
ENDBRANCH   5   8
ENDBRANCH   3   4
TORSDOF 9
ENDMDL
