MODEL 1
REMARK VINA RESULT: -7.112810248      0.000      0.000
REMARK  10 active torsions:
REMARK  status: ('A' for Active; 'I' for Inactive)
REMARK    1  A    between atoms: S1_2  and  C2_3 
REMARK    2  A    between atoms: C2_3  and  N1_4 
REMARK    3  A    between atoms: C2_3  and  C10_14 
REMARK       I    between atoms: N1_4  and  C3_6 
REMARK    4  A    between atoms: C3_6  and  C4_8 
REMARK    5  A    between atoms: C10_14  and  S2_16 
REMARK    6  A    between atoms: S2_16  and  C11_17 
REMARK    7  A    between atoms: C12_18  and  C13_19 
REMARK    8  A    between atoms: C13_19  and  C14_20 
REMARK    9  A    between atoms: C14_20  and  C15_21 
REMARK   10  A    between atoms: C17_26  and  C18_27 
ROOT
HETATM    1  C10 UNL     1       8.616 -14.803  70.147  1.00  0.00     0.219 C 
HETATM    2  O2  UNL     1       7.723 -15.467  69.600  1.00  0.00    -0.282 OA
ENDROOT
BRANCH   1   3
HETATM    3  C2  UNL     1       9.003 -13.569  69.462  1.00  0.00     0.228 C 
BRANCH   3   4
HETATM    4  S1  UNL     1      10.546 -12.920  70.258  1.00  0.00    -0.140 SA
HETATM    5  C1  UNL     1      11.913 -13.872  69.543  1.00  0.00     0.092 C 
ENDBRANCH   3   4
BRANCH   3   6
HETATM    6  N1  UNL     1       9.435 -13.844  68.084  1.00  0.00    -0.336 N 
HETATM    7  C3  UNL     1       8.651 -13.352  67.037  1.00  0.00     0.252 C 
HETATM    8  O1  UNL     1       7.581 -12.679  67.241  1.00  0.00    -0.268 OA
ATOM      9  H1  UNL     1      10.283 -14.379  67.897  1.00  0.00     0.164 HD
BRANCH   7  10
HETATM   10  C4  UNL     1       8.988 -13.569  65.632  1.00  0.00     0.032 A 
HETATM   11  C5  UNL     1       9.052 -12.523  64.731  1.00  0.00     0.017 A 
HETATM   12  C6  UNL     1       9.376 -12.687  63.407  1.00  0.00     0.001 A 
HETATM   13  C7  UNL     1       9.657 -13.936  62.913  1.00  0.00     0.000 A 
HETATM   14  C8  UNL     1       9.598 -14.999  63.801  1.00  0.00     0.001 A 
HETATM   15  C9  UNL     1       9.273 -14.835  65.130  1.00  0.00     0.017 A 
ENDBRANCH   7  10
ENDBRANCH   3   6
ENDBRANCH   1   3
BRANCH   1  16
HETATM   16  S2  UNL     1       9.285 -15.391  71.626  1.00  0.00    -0.081 SA
BRANCH  16  17
HETATM   17  C11 UNL     1       8.350 -16.494  72.649  1.00  0.00     0.107 C 
HETATM   18  C12 UNL     1       8.971 -17.844  72.885  1.00  0.00     0.111 C 
HETATM   19  N2  UNL     1       8.956 -18.067  74.306  1.00  0.00    -0.141 NA
HETATM   20  N3  UNL     1       8.050 -17.171  74.848  1.00  0.00    -0.131 NA
HETATM   21  C17 UNL     1       8.025 -15.997  74.029  1.00  0.00     0.211 C 
BRANCH  18  22
HETATM   22  C13 UNL     1       8.273 -18.964  72.142  1.00  0.00     0.026 C 
BRANCH  22  23
HETATM   23  C14 UNL     1       7.615 -19.973  73.037  1.00  0.00     0.036 C 
BRANCH  23  24
HETATM   24  C15 UNL     1       6.106 -19.887  72.851  1.00  0.00     0.145 A 
HETATM   25  C16 UNL     1       5.341 -19.821  74.155  1.00  0.00     0.200 A 
HETATM   26  O3  UNL     1       5.482 -18.684  73.183  1.00  0.00    -0.381 OA
ENDBRANCH  23  24
ENDBRANCH  22  23
ENDBRANCH  18  22
BRANCH  21  27
HETATM   27  C18 UNL     1       6.628 -15.433  74.072  1.00  0.00     0.195 C 
HETATM   28  O4  UNL     1       6.260 -14.502  73.328  1.00  0.00    -0.647 OA
HETATM   29  O5  UNL     1       5.765 -15.996  74.977  1.00  0.00    -0.647 OA
ENDBRANCH  21  27
ENDBRANCH  16  17
ENDBRANCH   1  16
TORSDOF 10
ENDMDL
MODEL 2
REMARK VINA RESULT: -7.032394466      2.577      4.080
REMARK  10 active torsions:
REMARK  status: ('A' for Active; 'I' for Inactive)
REMARK    1  A    between atoms: S1_2  and  C2_3 
REMARK    2  A    between atoms: C2_3  and  N1_4 
REMARK    3  A    between atoms: C2_3  and  C10_14 
REMARK       I    between atoms: N1_4  and  C3_6 
REMARK    4  A    between atoms: C3_6  and  C4_8 
REMARK    5  A    between atoms: C10_14  and  S2_16 
REMARK    6  A    between atoms: S2_16  and  C11_17 
REMARK    7  A    between atoms: C12_18  and  C13_19 
REMARK    8  A    between atoms: C13_19  and  C14_20 
REMARK    9  A    between atoms: C14_20  and  C15_21 
REMARK   10  A    between atoms: C17_26  and  C18_27 
ROOT
HETATM    1  C10 UNL     1       9.000 -15.157  70.208  1.00  0.00     0.219 C 
HETATM    2  O2  UNL     1       7.840 -15.368  69.820  1.00  0.00    -0.282 OA
ENDROOT
BRANCH   1   3
HETATM    3  C2  UNL     1       9.690 -14.034  69.572  1.00  0.00     0.228 C 
BRANCH   3   4
HETATM    4  S1  UNL     1       9.516 -14.207  67.735  1.00  0.00    -0.140 SA
HETATM    5  C1  UNL     1       8.207 -13.050  67.249  1.00  0.00     0.092 C 
ENDBRANCH   3   4
BRANCH   3   6
HETATM    6  N1  UNL     1       9.001 -12.766  69.850  1.00  0.00    -0.336 N 
HETATM    7  C3  UNL     1       9.768 -11.599  69.913  1.00  0.00     0.252 C 
HETATM    8  O1  UNL     1      11.036 -11.603  69.740  1.00  0.00    -0.268 OA
ATOM      9  H1  UNL     1       7.991 -12.738  69.993  1.00  0.00     0.164 HD
BRANCH   7  10
HETATM   10  C4  UNL     1       9.184 -10.287  70.185  1.00  0.00     0.032 A 
HETATM   11  C5  UNL     1       7.930  -9.940  69.717  1.00  0.00     0.017 A 
HETATM   12  C6  UNL     1       7.346  -8.722  69.960  1.00  0.00     0.001 A 
HETATM   13  C7  UNL     1       8.004  -7.774  70.701  1.00  0.00     0.000 A 
HETATM   14  C8  UNL     1       9.263  -8.102  71.179  1.00  0.00     0.001 A 
HETATM   15  C9  UNL     1       9.851  -9.324  70.935  1.00  0.00     0.017 A 
ENDBRANCH   7  10
ENDBRANCH   3   6
ENDBRANCH   1   3
BRANCH   1  16
HETATM   16  S2  UNL     1       9.654 -16.184  71.432  1.00  0.00    -0.081 SA
BRANCH  16  17
HETATM   17  C11 UNL     1       8.575 -17.020  72.562  1.00  0.00     0.107 C 
HETATM   18  C12 UNL     1       8.945 -18.443  72.880  1.00  0.00     0.111 C 
HETATM   19  N2  UNL     1       8.950 -18.562  74.313  1.00  0.00    -0.141 NA
HETATM   20  N3  UNL     1       8.250 -17.477  74.813  1.00  0.00    -0.131 NA
HETATM   21  C17 UNL     1       8.408 -16.378  73.910  1.00  0.00     0.211 C 
BRANCH  18  22
HETATM   22  C13 UNL     1       8.021 -19.460  72.244  1.00  0.00     0.026 C 
BRANCH  22  23
HETATM   23  C14 UNL     1       7.068 -20.106  73.208  1.00  0.00     0.036 C 
BRANCH  23  24
HETATM   24  C15 UNL     1       5.654 -19.646  72.884  1.00  0.00     0.145 A 
HETATM   25  C16 UNL     1       4.710 -19.722  74.064  1.00  0.00     0.200 A 
HETATM   26  O3  UNL     1       5.218 -18.448  73.450  1.00  0.00    -0.381 OA
ENDBRANCH  23  24
ENDBRANCH  22  23
ENDBRANCH  18  22
BRANCH  21  27
HETATM   27  C18 UNL     1       7.143 -15.560  73.951  1.00  0.00     0.195 C 
HETATM   28  O4  UNL     1       6.861 -14.719  73.075  1.00  0.00    -0.647 OA
HETATM   29  O5  UNL     1       6.300 -15.784  75.010  1.00  0.00    -0.647 OA
ENDBRANCH  21  27
ENDBRANCH  16  17
ENDBRANCH   1  16
TORSDOF 10
ENDMDL
MODEL 3
REMARK VINA RESULT: -6.953104844      3.388      5.480
REMARK  10 active torsions:
REMARK  status: ('A' for Active; 'I' for Inactive)
REMARK    1  A    between atoms: S1_2  and  C2_3 
REMARK    2  A    between atoms: C2_3  and  N1_4 
REMARK    3  A    between atoms: C2_3  and  C10_14 
REMARK       I    between atoms: N1_4  and  C3_6 
REMARK    4  A    between atoms: C3_6  and  C4_8 
REMARK    5  A    between atoms: C10_14  and  S2_16 
REMARK    6  A    between atoms: S2_16  and  C11_17 
REMARK    7  A    between atoms: C12_18  and  C13_19 
REMARK    8  A    between atoms: C13_19  and  C14_20 
REMARK    9  A    between atoms: C14_20  and  C15_21 
REMARK   10  A    between atoms: C17_26  and  C18_27 
ROOT
HETATM    1  C10 UNL     1       8.315 -13.977  67.684  1.00  0.00     0.219 C 
HETATM    2  O2  UNL     1       8.318 -14.841  66.794  1.00  0.00    -0.282 OA
ENDROOT
BRANCH   1   3
HETATM    3  C2  UNL     1       8.701 -12.628  67.264  1.00  0.00     0.228 C 
BRANCH   3   4
HETATM    4  S1  UNL     1       7.680 -12.163  65.788  1.00  0.00    -0.140 SA
HETATM    5  C1  UNL     1       8.830 -12.101  64.388  1.00  0.00     0.092 C 
ENDBRANCH   3   4
BRANCH   3   6
HETATM    6  N1  UNL     1       8.304 -11.630  68.266  1.00  0.00    -0.336 N 
HETATM    7  C3  UNL     1       9.307 -10.857  68.859  1.00  0.00     0.252 C 
HETATM    8  O1  UNL     1      10.544 -10.993  68.559  1.00  0.00    -0.268 OA
ATOM      9  H1  UNL     1       7.325 -11.505  68.523  1.00  0.00     0.164 HD
BRANCH   7  10
HETATM   10  C4  UNL     1       9.022  -9.838  69.868  1.00  0.00     0.032 A 
HETATM   11  C5  UNL     1       7.855  -9.099  69.843  1.00  0.00     0.017 A 
HETATM   12  C6  UNL     1       7.549  -8.142  70.778  1.00  0.00     0.001 A 
HETATM   13  C7  UNL     1       8.417  -7.875  71.805  1.00  0.00     0.000 A 
HETATM   14  C8  UNL     1       9.594  -8.606  71.848  1.00  0.00     0.001 A 
HETATM   15  C9  UNL     1       9.903  -9.566  70.910  1.00  0.00     0.017 A 
ENDBRANCH   7  10
ENDBRANCH   3   6
ENDBRANCH   1   3
BRANCH   1  16
HETATM   16  S2  UNL     1       7.858 -14.446  69.281  1.00  0.00    -0.081 SA
BRANCH  16  17
HETATM   17  C11 UNL     1       9.100 -14.860  70.475  1.00  0.00     0.107 C 
HETATM   18  C12 UNL     1       8.773 -16.020  71.376  1.00  0.00     0.111 C 
HETATM   19  N2  UNL     1       9.900 -16.913  71.330  1.00  0.00    -0.141 NA
HETATM   20  N3  UNL     1      10.967 -16.195  70.816  1.00  0.00    -0.131 NA
HETATM   21  C17 UNL     1      10.457 -15.197  69.925  1.00  0.00     0.211 C 
BRANCH  18  22
HETATM   22  C13 UNL     1       8.454 -15.607  72.796  1.00  0.00     0.026 C 
BRANCH  22  23
HETATM   23  C14 UNL     1       8.996 -16.539  73.841  1.00  0.00     0.036 C 
BRANCH  23  24
HETATM   24  C15 UNL     1       7.875 -17.456  74.311  1.00  0.00     0.145 A 
HETATM   25  C16 UNL     1       7.889 -18.815  73.647  1.00  0.00     0.200 A 
HETATM   26  O3  UNL     1       8.226 -18.560  75.088  1.00  0.00    -0.381 OA
ENDBRANCH  23  24
ENDBRANCH  22  23
ENDBRANCH  18  22
BRANCH  21  27
HETATM   27  C18 UNL     1      11.369 -14.000  70.001  1.00  0.00     0.195 C 
HETATM   28  O4  UNL     1      12.527 -14.010  69.537  1.00  0.00    -0.647 OA
HETATM   29  O5  UNL     1      10.864 -12.879  70.609  1.00  0.00    -0.647 OA
ENDBRANCH  21  27
ENDBRANCH  16  17
ENDBRANCH   1  16
TORSDOF 10
ENDMDL
MODEL 4
REMARK VINA RESULT: -6.836186524      3.406      4.958
REMARK  10 active torsions:
REMARK  status: ('A' for Active; 'I' for Inactive)
REMARK    1  A    between atoms: S1_2  and  C2_3 
REMARK    2  A    between atoms: C2_3  and  N1_4 
REMARK    3  A    between atoms: C2_3  and  C10_14 
REMARK       I    between atoms: N1_4  and  C3_6 
REMARK    4  A    between atoms: C3_6  and  C4_8 
REMARK    5  A    between atoms: C10_14  and  S2_16 
REMARK    6  A    between atoms: S2_16  and  C11_17 
REMARK    7  A    between atoms: C12_18  and  C13_19 
REMARK    8  A    between atoms: C13_19  and  C14_20 
REMARK    9  A    between atoms: C14_20  and  C15_21 
REMARK   10  A    between atoms: C17_26  and  C18_27 
ROOT
HETATM    1  C10 UNL     1       8.193 -17.782  74.167  1.00  0.00     0.219 C 
HETATM    2  O2  UNL     1       8.423 -18.604  75.068  1.00  0.00    -0.282 OA
ENDROOT
BRANCH   1   3
HETATM    3  C2  UNL     1       8.651 -18.158  72.829  1.00  0.00     0.228 C 
BRANCH   3   4
HETATM    4  S1  UNL     1       7.543 -19.500  72.190  1.00  0.00    -0.140 SA
HETATM    5  C1  UNL     1       8.630 -20.895  71.792  1.00  0.00     0.092 C 
ENDBRANCH   3   4
BRANCH   3   6
HETATM    6  N1  UNL     1       8.431 -17.066  71.870  1.00  0.00    -0.336 N 
HETATM    7  C3  UNL     1       9.547 -16.368  71.400  1.00  0.00     0.252 C 
HETATM    8  O1  UNL     1      10.738 -16.647  71.776  1.00  0.00    -0.268 OA
ATOM      9  H1  UNL     1       7.491 -16.824  71.557  1.00  0.00     0.164 HD
BRANCH   7  10
HETATM   10  C4  UNL     1       9.441 -15.265  70.447  1.00  0.00     0.032 A 
HETATM   11  C5  UNL     1      10.557 -14.590  69.991  1.00  0.00     0.017 A 
HETATM   12  C6  UNL     1      10.497 -13.557  69.089  1.00  0.00     0.001 A 
HETATM   13  C7  UNL     1       9.288 -13.143  68.590  1.00  0.00     0.000 A 
HETATM   14  C8  UNL     1       8.156 -13.807  69.035  1.00  0.00     0.001 A 
HETATM   15  C9  UNL     1       8.215 -14.844  69.941  1.00  0.00     0.017 A 
ENDBRANCH   7  10
ENDBRANCH   3   6
ENDBRANCH   1   3
BRANCH   1  16
HETATM   16  S2  UNL     1       7.372 -16.321  74.582  1.00  0.00    -0.081 SA
BRANCH  16  17
HETATM   17  C11 UNL     1       5.621 -16.188  74.349  1.00  0.00     0.107 C 
HETATM   18  C12 UNL     1       4.839 -17.454  74.575  1.00  0.00     0.111 C 
HETATM   19  N2  UNL     1       3.765 -17.125  75.474  1.00  0.00    -0.141 NA
HETATM   20  N3  UNL     1       3.635 -15.747  75.464  1.00  0.00    -0.131 NA
HETATM   21  C17 UNL     1       4.918 -15.170  75.200  1.00  0.00     0.211 C 
BRANCH  18  22
HETATM   22  C13 UNL     1       4.318 -18.074  73.296  1.00  0.00     0.026 C 
BRANCH  22  23
HETATM   23  C14 UNL     1       3.590 -19.372  73.499  1.00  0.00     0.036 C 
BRANCH  23  24
HETATM   24  C15 UNL     1       4.571 -20.408  74.029  1.00  0.00     0.145 A 
HETATM   25  C16 UNL     1       4.136 -21.037  75.335  1.00  0.00     0.200 A 
HETATM   26  O3  UNL     1       4.172 -21.745  74.010  1.00  0.00    -0.381 OA
ENDBRANCH  23  24
ENDBRANCH  22  23
ENDBRANCH  18  22
BRANCH  21  27
HETATM   27  C18 UNL     1       4.701 -13.894  74.426  1.00  0.00     0.195 C 
HETATM   28  O4  UNL     1       4.227 -12.867  74.949  1.00  0.00    -0.647 OA
HETATM   29  O5  UNL     1       5.056 -13.912  73.101  1.00  0.00    -0.647 OA
ENDBRANCH  21  27
ENDBRANCH  16  17
ENDBRANCH   1  16
TORSDOF 10
ENDMDL
MODEL 5
REMARK VINA RESULT: -6.492304223      2.396      8.565
REMARK  10 active torsions:
REMARK  status: ('A' for Active; 'I' for Inactive)
REMARK    1  A    between atoms: S1_2  and  C2_3 
REMARK    2  A    between atoms: C2_3  and  N1_4 
REMARK    3  A    between atoms: C2_3  and  C10_14 
REMARK       I    between atoms: N1_4  and  C3_6 
REMARK    4  A    between atoms: C3_6  and  C4_8 
REMARK    5  A    between atoms: C10_14  and  S2_16 
REMARK    6  A    between atoms: S2_16  and  C11_17 
REMARK    7  A    between atoms: C12_18  and  C13_19 
REMARK    8  A    between atoms: C13_19  and  C14_20 
REMARK    9  A    between atoms: C14_20  and  C15_21 
REMARK   10  A    between atoms: C17_26  and  C18_27 
ROOT
HETATM    1  C10 UNL     1       9.118 -16.529  71.636  1.00  0.00     0.219 C 
HETATM    2  O2  UNL     1       9.657 -17.414  70.955  1.00  0.00    -0.282 OA
ENDROOT
BRANCH   1   3
HETATM    3  C2  UNL     1       8.803 -16.892  73.019  1.00  0.00     0.228 C 
BRANCH   3   4
HETATM    4  S1  UNL     1       8.440 -15.337  73.961  1.00  0.00    -0.140 SA
HETATM    5  C1  UNL     1       6.633 -15.236  74.077  1.00  0.00     0.092 C 
ENDBRANCH   3   4
BRANCH   3   6
HETATM    6  N1  UNL     1       7.532 -17.626  73.095  1.00  0.00    -0.336 N 
HETATM    7  C3  UNL     1       7.353 -18.526  74.149  1.00  0.00     0.252 C 
HETATM    8  O1  UNL     1       8.252 -18.727  75.038  1.00  0.00    -0.268 OA
ATOM      9  H1  UNL     1       6.802 -17.484  72.397  1.00  0.00     0.164 HD
BRANCH   7  10
HETATM   10  C4  UNL     1       6.129 -19.308  74.317  1.00  0.00     0.032 A 
HETATM   11  C5  UNL     1       5.012 -19.085  73.534  1.00  0.00     0.017 A 
HETATM   12  C6  UNL     1       3.851 -19.806  73.657  1.00  0.00     0.001 A 
HETATM   13  C7  UNL     1       3.751 -20.806  74.590  1.00  0.00     0.000 A 
HETATM   14  C8  UNL     1       4.861 -21.045  75.385  1.00  0.00     0.001 A 
HETATM   15  C9  UNL     1       6.028 -20.322  75.264  1.00  0.00     0.017 A 
ENDBRANCH   7  10
ENDBRANCH   3   6
ENDBRANCH   1   3
BRANCH   1  16
HETATM   16  S2  UNL     1       8.811 -14.998  70.898  1.00  0.00    -0.081 SA
BRANCH  16  17
HETATM   17  C11 UNL     1       9.905 -14.378  69.650  1.00  0.00     0.107 C 
HETATM   18  C12 UNL     1       9.277 -13.466  68.631  1.00  0.00     0.111 C 
HETATM   19  N2  UNL     1      10.099 -12.288  68.564  1.00  0.00    -0.141 NA
HETATM   20  N3  UNL     1      11.316 -12.608  69.140  1.00  0.00    -0.131 NA
HETATM   21  C17 UNL     1      11.096 -13.607  70.142  1.00  0.00     0.211 C 
BRANCH  18  22
HETATM   22  C13 UNL     1       9.118 -14.107  67.269  1.00  0.00     0.026 C 
BRANCH  22  23
HETATM   23  C14 UNL     1       7.837 -13.750  66.572  1.00  0.00     0.036 C 
BRANCH  23  24
HETATM   24  C15 UNL     1       6.690 -13.854  67.568  1.00  0.00     0.145 A 
HETATM   25  C16 UNL     1       5.324 -13.866  66.915  1.00  0.00     0.200 A 
HETATM   26  O3  UNL     1       5.963 -15.045  67.594  1.00  0.00    -0.381 OA
ENDBRANCH  23  24
ENDBRANCH  22  23
ENDBRANCH  18  22
BRANCH  21  27
HETATM   27  C18 UNL     1      12.316 -14.492  70.188  1.00  0.00     0.195 C 
HETATM   28  O4  UNL     1      12.269 -15.676  70.574  1.00  0.00    -0.647 OA
HETATM   29  O5  UNL     1      13.498 -13.931  69.777  1.00  0.00    -0.647 OA
ENDBRANCH  21  27
ENDBRANCH  16  17
ENDBRANCH   1  16
TORSDOF 10
ENDMDL
