MODEL 1
REMARK VINA RESULT: -7.232551004      0.000      0.000
REMARK  9 active torsions:
REMARK  status: ('A' for Active; 'I' for Inactive)
REMARK       I    between atoms: N1_2  and  C2_4 
REMARK    1  A    between atoms: C2_4  and  C3_6 
REMARK    2  A    between atoms: C3_6  and  C4_7 
REMARK    3  A    between atoms: C3_6  and  N2_13 
REMARK    4  A    between atoms: C4_7  and  C5_8 
REMARK    5  A    between atoms: C10_15  and  C11_16 
REMARK    6  A    between atoms: C11_16  and  O3_17 
REMARK    7  A    between atoms: C11_16  and  C12_19 
REMARK    8  A    between atoms: C12_19  and  N3_20 
REMARK    9  A    between atoms: N3_20  and  C13_23 
ROOT
HETATM    1  C11 UNL     1       8.657 -18.540  73.660  1.00  0.00     0.196 C 
ENDROOT
BRANCH   1   2
HETATM    2  C10 UNL     1       8.673 -17.247  72.948  1.00  0.00     0.074 A 
HETATM    3  C9  UNL     1       9.069 -17.080  71.633  1.00  0.00     0.142 A 
HETATM    4  N2  UNL     1       8.942 -15.772  71.356  1.00  0.00    -0.273 N 
HETATM    5  N6  UNL     1       8.496 -15.181  72.440  1.00  0.00    -0.240 N 
HETATM    6  N5  UNL     1       8.324 -16.041  73.414  1.00  0.00    -0.286 N 
ATOM      7  H6  UNL     1       8.308 -14.182  72.515  1.00  0.00     0.208 HD
ATOM      8  H5  UNL     1       7.987 -15.831  74.353  1.00  0.00     0.188 HD
BRANCH   4   9
HETATM    9  C3  UNL     1       9.253 -15.115  70.059  1.00  0.00     0.203 C 
BRANCH   9  10
HETATM   10  C2  UNL     1      10.481 -14.335  70.170  1.00  0.00     0.242 C 
HETATM   11  N1  UNL     1      11.776 -14.848  69.898  1.00  0.00    -0.364 N 
HETATM   12  C1  UNL     1      12.964 -14.040  70.014  1.00  0.00     0.149 C 
ATOM     13  H1  UNL     1      11.869 -15.822  69.610  1.00  0.00     0.161 HD
HETATM   14  O1  UNL     1      10.405 -13.114  70.530  1.00  0.00    -0.271 OA
ENDBRANCH   9  10
BRANCH   9  15
HETATM   15  C4  UNL     1       8.053 -14.401  69.543  1.00  0.00     0.069 C 
BRANCH  15  16
HETATM   16  C5  UNL     1       8.109 -13.992  68.130  1.00  0.00     0.123 C 
HETATM   17  C6  UNL     1       7.807 -12.584  67.785  1.00  0.00     0.034 C 
HETATM   18  C7  UNL     1       7.593 -12.708  66.258  1.00  0.00     0.029 C 
HETATM   19  C8  UNL     1       7.076 -14.103  66.139  1.00  0.00     0.168 C 
HETATM   20  O2  UNL     1       7.153 -14.695  67.374  1.00  0.00    -0.386 OA
ENDBRANCH  15  16
ENDBRANCH   9  15
ENDBRANCH   4   9
ENDBRANCH   1   2
BRANCH   1  21
HETATM   21  O3  UNL     1       8.540 -18.395  75.040  1.00  0.00    -0.388 OA
ATOM     22  H3  UNL     1       8.233 -19.185  75.469  1.00  0.00     0.210 HD
ENDBRANCH   1  21
BRANCH   1  23
HETATM   23  C12 UNL     1       7.552 -19.443  73.128  1.00  0.00     0.270 C 
BRANCH  23  24
HETATM   24  N3  UNL     1       6.536 -19.607  74.163  1.00  0.00    -0.066 N 
ATOM     25  H32 UNL     1       6.781 -20.355  74.812  1.00  0.00     0.277 HD
ATOM     26  H31 UNL     1       6.540 -18.824  74.816  1.00  0.00     0.277 HD
BRANCH  24  27
HETATM   27  C13 UNL     1       5.238 -19.809  73.595  1.00  0.00     0.220 C 
HETATM   28  C14 UNL     1       4.609 -18.479  73.308  1.00  0.00     0.019 C 
HETATM   29  C15 UNL     1       4.380 -17.675  74.536  1.00  0.00     0.013 C 
HETATM   30  C22 UNL     1       3.323 -18.751  72.554  1.00  0.00     0.011 C 
HETATM   31  C16 UNL     1       3.278 -18.176  75.426  1.00  0.00     0.012 C 
HETATM   32  C17 UNL     1       3.655 -19.270  76.356  1.00  0.00     0.237 C 
HETATM   33  C21 UNL     1       2.014 -18.493  74.616  1.00  0.00     0.011 C 
HETATM   34  N4  UNL     1       4.617 -20.206  75.853  1.00  0.00    -0.069 N 
HETATM   35  C18 UNL     1       4.390 -20.631  74.510  1.00  0.00     0.217 C 
ATOM     36  H42 UNL     1       5.560 -19.830  75.950  1.00  0.00     0.277 HD
ATOM     37  H41 UNL     1       4.684 -21.013  76.473  1.00  0.00     0.277 HD
HETATM   38  C19 UNL     1       2.940 -20.683  74.122  1.00  0.00     0.039 C 
HETATM   39  C20 UNL     1       2.392 -19.449  73.512  1.00  0.00    -0.012 C 
ENDBRANCH  24  27
ENDBRANCH  23  24
ENDBRANCH   1  23
TORSDOF 9
ENDMDL
MODEL 2
REMARK VINA RESULT: -7.065701034      0.940      1.446
REMARK  9 active torsions:
REMARK  status: ('A' for Active; 'I' for Inactive)
REMARK       I    between atoms: N1_2  and  C2_4 
REMARK    1  A    between atoms: C2_4  and  C3_6 
REMARK    2  A    between atoms: C3_6  and  C4_7 
REMARK    3  A    between atoms: C3_6  and  N2_13 
REMARK    4  A    between atoms: C4_7  and  C5_8 
REMARK    5  A    between atoms: C10_15  and  C11_16 
REMARK    6  A    between atoms: C11_16  and  O3_17 
REMARK    7  A    between atoms: C11_16  and  C12_19 
REMARK    8  A    between atoms: C12_19  and  N3_20 
REMARK    9  A    between atoms: N3_20  and  C13_23 
ROOT
HETATM    1  C11 UNL     1       9.089 -18.515  73.230  1.00  0.00     0.196 C 
ENDROOT
BRANCH   1   2
HETATM    2  C10 UNL     1       8.954 -17.201  72.569  1.00  0.00     0.074 A 
HETATM    3  C9  UNL     1       9.422 -16.908  71.301  1.00  0.00     0.142 A 
HETATM    4  N2  UNL     1       9.109 -15.625  71.062  1.00  0.00    -0.273 N 
HETATM    5  N6  UNL     1       8.486 -15.167  72.123  1.00  0.00    -0.240 N 
HETATM    6  N5  UNL     1       8.377 -16.091  73.046  1.00  0.00    -0.286 N 
ATOM      7  H6  UNL     1       8.132 -14.215  72.217  1.00  0.00     0.208 HD
ATOM      8  H5  UNL     1       7.935 -15.984  73.959  1.00  0.00     0.188 HD
BRANCH   4   9
HETATM    9  C3  UNL     1       9.413 -14.863  69.822  1.00  0.00     0.203 C 
BRANCH   9  10
HETATM   10  C2  UNL     1      10.686 -14.163  69.959  1.00  0.00     0.242 C 
HETATM   11  N1  UNL     1      11.953 -14.798  69.891  1.00  0.00    -0.364 N 
HETATM   12  C1  UNL     1      13.189 -14.068  70.026  1.00  0.00     0.149 C 
ATOM     13  H1  UNL     1      11.991 -15.806  69.741  1.00  0.00     0.161 HD
HETATM   14  O1  UNL     1      10.679 -12.903  70.150  1.00  0.00    -0.271 OA
ENDBRANCH   9  10
BRANCH   9  15
HETATM   15  C4  UNL     1       8.239 -14.040  69.421  1.00  0.00     0.069 C 
BRANCH  15  16
HETATM   16  C5  UNL     1       8.067 -13.830  67.974  1.00  0.00     0.123 C 
HETATM   17  C6  UNL     1       7.684 -12.484  67.492  1.00  0.00     0.034 C 
HETATM   18  C7  UNL     1       7.238 -12.818  66.049  1.00  0.00     0.029 C 
HETATM   19  C8  UNL     1       6.740 -14.216  66.204  1.00  0.00     0.168 C 
HETATM   20  O2  UNL     1       7.020 -14.631  67.481  1.00  0.00    -0.386 OA
ENDBRANCH  15  16
ENDBRANCH   9  15
ENDBRANCH   4   9
ENDBRANCH   1   2
BRANCH   1  21
HETATM   21  O3  UNL     1       8.819 -18.463  74.594  1.00  0.00    -0.388 OA
ATOM     22  H3  UNL     1       9.211 -17.709  75.019  1.00  0.00     0.210 HD
ENDBRANCH   1  21
BRANCH   1  23
HETATM   23  C12 UNL     1       8.209 -19.559  72.556  1.00  0.00     0.270 C 
BRANCH  23  24
HETATM   24  N3  UNL     1       6.829 -19.083  72.554  1.00  0.00    -0.066 N 
ATOM     25  H32 UNL     1       6.784 -18.069  72.656  1.00  0.00     0.277 HD
ATOM     26  H31 UNL     1       6.407 -19.167  71.630  1.00  0.00     0.277 HD
BRANCH  24  27
HETATM   27  C13 UNL     1       6.045 -19.747  73.551  1.00  0.00     0.220 C 
HETATM   28  C14 UNL     1       4.707 -20.102  72.976  1.00  0.00     0.019 C 
HETATM   29  C15 UNL     1       3.916 -18.907  72.584  1.00  0.00     0.013 C 
HETATM   30  C22 UNL     1       3.992 -20.948  74.009  1.00  0.00     0.011 C 
HETATM   31  C16 UNL     1       3.379 -18.097  73.731  1.00  0.00     0.012 C 
HETATM   32  C17 UNL     1       4.329 -17.124  74.326  1.00  0.00     0.237 C 
HETATM   33  C21 UNL     1       2.714 -18.997  74.779  1.00  0.00     0.011 C 
HETATM   34  N4  UNL     1       5.702 -17.538  74.353  1.00  0.00    -0.069 N 
HETATM   35  C18 UNL     1       5.911 -18.887  74.766  1.00  0.00     0.217 C 
ATOM     36  H42 UNL     1       6.139 -17.373  73.447  1.00  0.00     0.277 HD
ATOM     37  H41 UNL     1       6.252 -16.902  74.931  1.00  0.00     0.277 HD
HETATM   38  C19 UNL     1       4.901 -19.385  75.761  1.00  0.00     0.039 C 
HETATM   39  C20 UNL     1       3.708 -20.055  75.189  1.00  0.00    -0.012 C 
ENDBRANCH  24  27
ENDBRANCH  23  24
ENDBRANCH   1  23
TORSDOF 9
ENDMDL
MODEL 3
REMARK VINA RESULT: -7.012888711      1.929      8.310
REMARK  9 active torsions:
REMARK  status: ('A' for Active; 'I' for Inactive)
REMARK       I    between atoms: N1_2  and  C2_4 
REMARK    1  A    between atoms: C2_4  and  C3_6 
REMARK    2  A    between atoms: C3_6  and  C4_7 
REMARK    3  A    between atoms: C3_6  and  N2_13 
REMARK    4  A    between atoms: C4_7  and  C5_8 
REMARK    5  A    between atoms: C10_15  and  C11_16 
REMARK    6  A    between atoms: C11_16  and  O3_17 
REMARK    7  A    between atoms: C11_16  and  C12_19 
REMARK    8  A    between atoms: C12_19  and  N3_20 
REMARK    9  A    between atoms: N3_20  and  C13_23 
ROOT
HETATM    1  C11 UNL     1      10.263 -15.146  70.310  1.00  0.00     0.196 C 
ENDROOT
BRANCH   1   2
HETATM    2  C10 UNL     1       9.367 -15.613  71.387  1.00  0.00     0.074 A 
HETATM    3  C9  UNL     1       9.247 -16.929  71.793  1.00  0.00     0.142 A 
HETATM    4  N2  UNL     1       8.343 -16.946  72.786  1.00  0.00    -0.273 N 
HETATM    5  N6  UNL     1       7.938 -15.710  72.971  1.00  0.00    -0.240 N 
HETATM    6  N5  UNL     1       8.536 -14.886  72.145  1.00  0.00    -0.286 N 
ATOM      7  H6  UNL     1       7.249 -15.429  73.666  1.00  0.00     0.208 HD
ATOM      8  H5  UNL     1       8.395 -13.878  72.091  1.00  0.00     0.188 HD
BRANCH   4   9
HETATM    9  C3  UNL     1       7.884 -18.144  73.536  1.00  0.00     0.203 C 
BRANCH   9  10
HETATM   10  C2  UNL     1       7.681 -19.264  72.622  1.00  0.00     0.242 C 
HETATM   11  N1  UNL     1       8.523 -20.404  72.562  1.00  0.00    -0.364 N 
HETATM   12  C1  UNL     1       8.283 -21.492  71.647  1.00  0.00     0.149 C 
ATOM     13  H1  UNL     1       9.326 -20.456  73.188  1.00  0.00     0.161 HD
HETATM   14  O1  UNL     1       6.688 -19.234  71.822  1.00  0.00    -0.271 OA
ENDBRANCH   9  10
BRANCH   9  15
HETATM   15  C4  UNL     1       6.743 -17.792  74.423  1.00  0.00     0.069 C 
BRANCH  15  16
HETATM   16  C5  UNL     1       5.439 -18.364  74.050  1.00  0.00     0.123 C 
HETATM   17  C6  UNL     1       4.220 -17.553  74.261  1.00  0.00     0.034 C 
HETATM   18  C7  UNL     1       3.129 -18.642  74.128  1.00  0.00     0.029 C 
HETATM   19  C8  UNL     1       3.854 -19.854  74.610  1.00  0.00     0.168 C 
HETATM   20  O2  UNL     1       5.167 -19.514  74.815  1.00  0.00    -0.386 OA
ENDBRANCH  15  16
ENDBRANCH   9  15
ENDBRANCH   4   9
ENDBRANCH   1   2
BRANCH   1  21
HETATM   21  O3  UNL     1      10.219 -15.958  69.181  1.00  0.00    -0.388 OA
ATOM     22  H3  UNL     1      10.712 -16.763  69.287  1.00  0.00     0.210 HD
ENDBRANCH   1  21
BRANCH   1  23
HETATM   23  C12 UNL     1       9.959 -13.702  69.935  1.00  0.00     0.270 C 
BRANCH  23  24
HETATM   24  N3  UNL     1       9.978 -13.578  68.481  1.00  0.00    -0.066 N 
ATOM     25  H32 UNL     1      10.899 -13.301  68.142  1.00  0.00     0.277 HD
ATOM     26  H31 UNL     1       9.910 -14.488  68.028  1.00  0.00     0.277 HD
BRANCH  24  27
HETATM   27  C13 UNL     1       8.959 -12.685  68.019  1.00  0.00     0.220 C 
HETATM   28  C14 UNL     1       7.677 -12.980  68.737  1.00  0.00     0.019 C 
HETATM   29  C15 UNL     1       7.162 -14.345  68.456  1.00  0.00     0.013 C 
HETATM   30  C22 UNL     1       6.689 -11.903  68.341  1.00  0.00     0.011 C 
HETATM   31  C16 UNL     1       6.610 -14.542  67.073  1.00  0.00     0.012 C 
HETATM   32  C17 UNL     1       7.614 -14.834  66.020  1.00  0.00     0.237 C 
HETATM   33  C21 UNL     1       5.659 -13.401  66.690  1.00  0.00     0.011 C 
HETATM   34  N4  UNL     1       8.879 -14.177  66.173  1.00  0.00    -0.069 N 
HETATM   35  C18 UNL     1       8.797 -12.801  66.538  1.00  0.00     0.217 C 
ATOM     36  H42 UNL     1       9.463 -14.685  66.836  1.00  0.00     0.277 HD
ATOM     37  H41 UNL     1       9.439 -14.286  65.327  1.00  0.00     0.277 HD
HETATM   38  C19 UNL     1       7.586 -12.096  65.996  1.00  0.00     0.039 C 
HETATM   39  C20 UNL     1       6.393 -12.096  66.875  1.00  0.00    -0.012 C 
ENDBRANCH  24  27
ENDBRANCH  23  24
ENDBRANCH   1  23
TORSDOF 9
ENDMDL
MODEL 4
REMARK VINA RESULT: -6.880585762      1.903      8.331
REMARK  9 active torsions:
REMARK  status: ('A' for Active; 'I' for Inactive)
REMARK       I    between atoms: N1_2  and  C2_4 
REMARK    1  A    between atoms: C2_4  and  C3_6 
REMARK    2  A    between atoms: C3_6  and  C4_7 
REMARK    3  A    between atoms: C3_6  and  N2_13 
REMARK    4  A    between atoms: C4_7  and  C5_8 
REMARK    5  A    between atoms: C10_15  and  C11_16 
REMARK    6  A    between atoms: C11_16  and  O3_17 
REMARK    7  A    between atoms: C11_16  and  C12_19 
REMARK    8  A    between atoms: C12_19  and  N3_20 
REMARK    9  A    between atoms: N3_20  and  C13_23 
ROOT
HETATM    1  C11 UNL     1      10.159 -15.944  70.994  1.00  0.00     0.196 C 
ENDROOT
BRANCH   1   2
HETATM    2  C10 UNL     1       9.168 -15.915  72.089  1.00  0.00     0.074 A 
HETATM    3  C9  UNL     1       8.501 -17.024  72.574  1.00  0.00     0.142 A 
HETATM    4  N2  UNL     1       7.696 -16.590  73.557  1.00  0.00    -0.273 N 
HETATM    5  N6  UNL     1       7.865 -15.292  73.661  1.00  0.00    -0.240 N 
HETATM    6  N5  UNL     1       8.744 -14.857  72.792  1.00  0.00    -0.286 N 
ATOM      7  H6  UNL     1       7.376 -14.700  74.331  1.00  0.00     0.208 HD
ATOM      8  H5  UNL     1       9.049 -13.891  72.673  1.00  0.00     0.188 HD
BRANCH   4   9
HETATM    9  C3  UNL     1       6.780 -17.427  74.376  1.00  0.00     0.203 C 
BRANCH   9  10
HETATM   10  C2  UNL     1       6.954 -18.838  74.045  1.00  0.00     0.242 C 
HETATM   11  N1  UNL     1       6.907 -19.357  72.726  1.00  0.00    -0.364 N 
HETATM   12  C1  UNL     1       7.090 -20.758  72.442  1.00  0.00     0.149 C 
ATOM     13  H1  UNL     1       6.738 -18.715  71.951  1.00  0.00     0.161 HD
HETATM   14  O1  UNL     1       7.165 -19.670  74.988  1.00  0.00    -0.271 OA
ENDBRANCH   9  10
BRANCH   9  15
HETATM   15  C4  UNL     1       5.393 -16.892  74.308  1.00  0.00     0.069 C 
BRANCH  15  16
HETATM   16  C5  UNL     1       4.315 -17.876  74.507  1.00  0.00     0.123 C 
HETATM   17  C6  UNL     1       3.447 -18.221  73.360  1.00  0.00     0.034 C 
HETATM   18  C7  UNL     1       2.279 -18.923  74.092  1.00  0.00     0.029 C 
HETATM   19  C8  UNL     1       2.291 -18.229  75.413  1.00  0.00     0.168 C 
HETATM   20  O2  UNL     1       3.385 -17.404  75.453  1.00  0.00    -0.386 OA
ENDBRANCH  15  16
ENDBRANCH   9  15
ENDBRANCH   4   9
ENDBRANCH   1   2
BRANCH   1  21
HETATM   21  O3  UNL     1       9.954 -16.999  70.109  1.00  0.00    -0.388 OA
ATOM     22  H3  UNL     1      10.077 -16.748  69.201  1.00  0.00     0.210 HD
ENDBRANCH   1  21
BRANCH   1  23
HETATM   23  C12 UNL     1      10.182 -14.621  70.242  1.00  0.00     0.270 C 
BRANCH  23  24
HETATM   24  N3  UNL     1       9.479 -14.785  68.974  1.00  0.00    -0.066 N 
ATOM     25  H32 UNL     1      10.103 -15.125  68.243  1.00  0.00     0.277 HD
ATOM     26  H31 UNL     1       8.830 -15.570  69.007  1.00  0.00     0.277 HD
BRANCH  24  27
HETATM   27  C13 UNL     1       8.820 -13.576  68.581  1.00  0.00     0.220 C 
HETATM   28  C14 UNL     1       7.342 -13.728  68.783  1.00  0.00     0.019 C 
HETATM   29  C15 UNL     1       6.753 -14.793  67.931  1.00  0.00     0.013 C 
HETATM   30  C22 UNL     1       6.718 -12.373  68.520  1.00  0.00     0.011 C 
HETATM   31  C16 UNL     1       6.674 -14.463  66.467  1.00  0.00     0.012 C 
HETATM   32  C17 UNL     1       7.917 -14.697  65.691  1.00  0.00     0.237 C 
HETATM   33  C21 UNL     1       6.089 -13.062  66.248  1.00  0.00     0.011 C 
HETATM   34  N4  UNL     1       9.141 -14.441  66.393  1.00  0.00    -0.069 N 
HETATM   35  C18 UNL     1       9.149 -13.240  67.163  1.00  0.00     0.217 C 
ATOM     36  H42 UNL     1       9.385 -15.239  66.979  1.00  0.00     0.277 HD
ATOM     37  H41 UNL     1       9.929 -14.451  65.745  1.00  0.00     0.277 HD
HETATM   38  C19 UNL     1       8.310 -12.138  66.583  1.00  0.00     0.039 C 
HETATM   39  C20 UNL     1       6.905 -12.081  67.053  1.00  0.00    -0.012 C 
ENDBRANCH  24  27
ENDBRANCH  23  24
ENDBRANCH   1  23
TORSDOF 9
ENDMDL
MODEL 5
REMARK VINA RESULT: -6.869849289      2.154      3.445
REMARK  9 active torsions:
REMARK  status: ('A' for Active; 'I' for Inactive)
REMARK       I    between atoms: N1_2  and  C2_4 
REMARK    1  A    between atoms: C2_4  and  C3_6 
REMARK    2  A    between atoms: C3_6  and  C4_7 
REMARK    3  A    between atoms: C3_6  and  N2_13 
REMARK    4  A    between atoms: C4_7  and  C5_8 
REMARK    5  A    between atoms: C10_15  and  C11_16 
REMARK    6  A    between atoms: C11_16  and  O3_17 
REMARK    7  A    between atoms: C11_16  and  C12_19 
REMARK    8  A    between atoms: C12_19  and  N3_20 
REMARK    9  A    between atoms: N3_20  and  C13_23 
ROOT
HETATM    1  C11 UNL     1       8.924 -16.269  73.356  1.00  0.00     0.196 C 
ENDROOT
BRANCH   1   2
HETATM    2  C10 UNL     1       9.198 -15.829  71.972  1.00  0.00     0.074 A 
HETATM    3  C9  UNL     1       8.687 -14.680  71.398  1.00  0.00     0.142 A 
HETATM    4  N2  UNL     1       9.163 -14.632  70.143  1.00  0.00    -0.273 N 
HETATM    5  N6  UNL     1       9.919 -15.692  69.968  1.00  0.00    -0.240 N 
HETATM    6  N5  UNL     1       9.960 -16.431  71.050  1.00  0.00    -0.286 N 
ATOM      7  H6  UNL     1      10.411 -15.911  69.102  1.00  0.00     0.208 HD
ATOM      8  H5  UNL     1      10.477 -17.302  71.167  1.00  0.00     0.188 HD
BRANCH   4   9
HETATM    9  C3  UNL     1       8.884 -13.574  69.138  1.00  0.00     0.203 C 
BRANCH   9  10
HETATM   10  C2  UNL     1       8.434 -14.174  67.885  1.00  0.00     0.242 C 
HETATM   11  N1  UNL     1       9.153 -14.097  66.664  1.00  0.00    -0.364 N 
HETATM   12  C1  UNL     1       8.675 -14.709  65.450  1.00  0.00     0.149 C 
ATOM     13  H1  UNL     1      10.038 -13.591  66.645  1.00  0.00     0.161 HD
HETATM   14  O1  UNL     1       7.331 -14.812  67.869  1.00  0.00    -0.271 OA
ENDBRANCH   9  10
BRANCH   9  15
HETATM   15  C4  UNL     1      10.030 -12.629  69.051  1.00  0.00     0.069 C 
BRANCH  15  16
HETATM   16  C5  UNL     1       9.701 -11.203  69.211  1.00  0.00     0.123 C 
HETATM   17  C6  UNL     1      10.241 -10.476  70.381  1.00  0.00     0.034 C 
HETATM   18  C7  UNL     1       9.353  -9.209  70.361  1.00  0.00     0.029 C 
HETATM   19  C8  UNL     1       8.091  -9.737  69.763  1.00  0.00     0.168 C 
HETATM   20  O2  UNL     1       8.313 -11.033  69.370  1.00  0.00    -0.386 OA
ENDBRANCH  15  16
ENDBRANCH   9  15
ENDBRANCH   4   9
ENDBRANCH   1   2
BRANCH   1  21
HETATM   21  O3  UNL     1       8.311 -15.283  74.124  1.00  0.00    -0.388 OA
ATOM     22  H3  UNL     1       8.574 -15.310  75.036  1.00  0.00     0.210 HD
ENDBRANCH   1  21
BRANCH   1  23
HETATM   23  C12 UNL     1       8.092 -17.544  73.369  1.00  0.00     0.270 C 
BRANCH  23  24
HETATM   24  N3  UNL     1       6.706 -17.200  73.669  1.00  0.00    -0.066 N 
ATOM     25  H32 UNL     1       6.618 -16.228  73.965  1.00  0.00     0.277 HD
ATOM     26  H31 UNL     1       6.140 -17.158  72.822  1.00  0.00     0.277 HD
BRANCH  24  27
HETATM   27  C13 UNL     1       6.141 -18.095  74.633  1.00  0.00     0.220 C 
HETATM   28  C14 UNL     1       6.394 -19.509  74.206  1.00  0.00     0.019 C 
HETATM   29  C15 UNL     1       5.732 -19.847  72.919  1.00  0.00     0.013 C 
HETATM   30  C22 UNL     1       5.934 -20.403  75.338  1.00  0.00     0.011 C 
HETATM   31  C16 UNL     1       4.236 -19.974  72.989  1.00  0.00     0.012 C 
HETATM   32  C17 UNL     1       3.482 -18.700  72.905  1.00  0.00     0.237 C 
HETATM   33  C21 UNL     1       3.811 -20.840  74.182  1.00  0.00     0.011 C 
HETATM   34  N4  UNL     1       4.110 -17.567  73.521  1.00  0.00    -0.069 N 
HETATM   35  C18 UNL     1       4.681 -17.825  74.802  1.00  0.00     0.217 C 
ATOM     36  H42 UNL     1       4.809 -17.167  72.896  1.00  0.00     0.277 HD
ATOM     37  H41 UNL     1       3.456 -16.786  73.576  1.00  0.00     0.277 HD
HETATM   38  C19 UNL     1       3.952 -18.871  75.597  1.00  0.00     0.039 C 
HETATM   39  C20 UNL     1       4.436 -20.262  75.428  1.00  0.00    -0.012 C 
ENDBRANCH  24  27
ENDBRANCH  23  24
ENDBRANCH   1  23
TORSDOF 9
ENDMDL
