MODEL 1
REMARK VINA RESULT: -8.302209066      0.000      0.000
REMARK  3 active torsions:
REMARK  status: ('A' for Active; 'I' for Inactive)
REMARK    1  A    between atoms: C2_2  and  C4_4 
REMARK    2  A    between atoms: C7_7  and  O1_8 
REMARK    3  A    between atoms: C8_10  and  C9_11 
ROOT
HETATM    1  C4  UNL     1     -35.626   1.670  20.021  1.00  0.00     0.114 C 
HETATM    2  C5  UNL     1     -34.832   2.487  19.050  1.00  0.00     0.072 C 
HETATM    3  C6  UNL     1     -33.632   3.147  19.654  1.00  0.00    -0.009 A 
HETATM    4  C7  UNL     1     -32.448   2.832  19.054  1.00  0.00     0.079 A 
HETATM    5  C8  UNL     1     -31.248   3.333  19.573  1.00  0.00    -0.019 A 
HETATM    6  C12 UNL     1     -31.264   4.150  20.706  1.00  0.00     0.035 A 
HETATM    7  C13 UNL     1     -32.462   4.485  21.338  1.00  0.00     0.046 A 
HETATM    8 CL1  UNL     1     -32.511   5.349  22.851  1.00  0.00    -0.083 Cl
HETATM    9  C14 UNL     1     -33.584   3.974  20.782  1.00  0.00     0.007 A 
HETATM   10  C15 UNL     1     -34.786   4.447  21.467  1.00  0.00     0.004 A 
HETATM   11  C16 UNL     1     -34.636   5.728  21.896  1.00  0.00     0.035 A 
HETATM   12  C17 UNL     1     -35.681   6.272  22.603  1.00  0.00     0.033 A 
HETATM   13 BR1  UNL     1     -35.580   8.052  23.260  1.00  0.00    -0.049 Br
HETATM   14  C18 UNL     1     -36.842   5.522  22.855  1.00  0.00     0.053 A 
HETATM   15 CL2  UNL     1     -38.177   6.204  23.754  1.00  0.00    -0.083 Cl
HETATM   16  C19 UNL     1     -36.938   4.229  22.389  1.00  0.00     0.055 A 
HETATM   17  C20 UNL     1     -35.919   3.658  21.685  1.00  0.00     0.041 A 
HETATM   18  N1  UNL     1     -36.143   2.349  21.180  1.00  0.00    -0.381 N 
ATOM     19  H1  UNL     1     -36.785   1.788  21.741  1.00  0.00     0.160 HD
ENDROOT
BRANCH   1  20
HETATM   20  C2  UNL     1     -36.651   0.862  19.332  1.00  0.00    -0.070 C 
HETATM   21  C1  UNL     1     -37.886   1.291  19.242  1.00  0.00     0.016 C 
HETATM   22  C3  UNL     1     -36.292  -0.445  18.743  1.00  0.00     0.044 C 
ENDBRANCH   1  20
BRANCH   4  23
HETATM   23  O1  UNL     1     -32.437   2.007  17.919  1.00  0.00    -0.360 OA
ATOM     24  H1  UNL     1     -32.625   2.375  17.064  1.00  0.00     0.217 HD
ENDBRANCH   4  23
BRANCH   5  25
HETATM   25  C9  UNL     1     -29.963   3.010  18.913  1.00  0.00     0.013 C 
HETATM   26  C10 UNL     1     -28.832   3.225  19.913  1.00  0.00     0.015 C 
HETATM   27  C11 UNL     1     -29.717   3.992  17.775  1.00  0.00     0.015 C 
ENDBRANCH   5  25
TORSDOF 3
ENDMDL
MODEL 2
REMARK VINA RESULT: -5.912192415      1.836      2.157
REMARK  3 active torsions:
REMARK  status: ('A' for Active; 'I' for Inactive)
REMARK    1  A    between atoms: C2_2  and  C4_4 
REMARK    2  A    between atoms: C7_7  and  O1_8 
REMARK    3  A    between atoms: C8_10  and  C9_11 
ROOT
HETATM    1  C4  UNL     1     -36.220   2.124  20.128  1.00  0.00     0.114 C 
HETATM    2  C5  UNL     1     -34.951   2.626  19.513  1.00  0.00     0.072 C 
HETATM    3  C6  UNL     1     -34.163   3.531  20.408  1.00  0.00    -0.009 A 
HETATM    4  C7  UNL     1     -32.884   3.119  20.650  1.00  0.00     0.079 A 
HETATM    5  C8  UNL     1     -32.072   3.846  21.528  1.00  0.00    -0.019 A 
HETATM    6  C12 UNL     1     -32.570   4.989  22.157  1.00  0.00     0.035 A 
HETATM    7  C13 UNL     1     -33.874   5.429  21.927  1.00  0.00     0.046 A 
HETATM    8 CL1  UNL     1     -34.590   6.740  22.825  1.00  0.00    -0.083 Cl
HETATM    9  C14 UNL     1     -34.603   4.686  21.064  1.00  0.00     0.007 A 
HETATM   10  C15 UNL     1     -35.921   5.274  20.829  1.00  0.00     0.004 A 
HETATM   11  C16 UNL     1     -35.863   6.632  20.840  1.00  0.00     0.035 A 
HETATM   12  C17 UNL     1     -37.051   7.305  20.682  1.00  0.00     0.033 A 
HETATM   13 BR1  UNL     1     -37.093   9.205  20.689  1.00  0.00    -0.049 Br
HETATM   14  C18 UNL     1     -38.255   6.602  20.514  1.00  0.00     0.053 A 
HETATM   15 CL2  UNL     1     -39.772   7.448  20.314  1.00  0.00    -0.083 Cl
HETATM   16  C19 UNL     1     -38.250   5.224  20.506  1.00  0.00     0.055 A 
HETATM   17  C20 UNL     1     -37.089   4.525  20.661  1.00  0.00     0.041 A 
HETATM   18  N1  UNL     1     -37.174   3.110  20.561  1.00  0.00    -0.381 N 
ATOM     19  H1  UNL     1     -38.073   2.723  20.848  1.00  0.00     0.160 HD
ENDROOT
BRANCH   1  20
HETATM   20  C2  UNL     1     -36.833   1.063  19.305  1.00  0.00    -0.070 C 
HETATM   21  C1  UNL     1     -38.041   1.213  18.819  1.00  0.00     0.016 C 
HETATM   22  C3  UNL     1     -36.089  -0.183  19.027  1.00  0.00     0.044 C 
ENDBRANCH   1  20
BRANCH   4  23
HETATM   23  O1  UNL     1     -32.390   1.967  20.019  1.00  0.00    -0.360 OA
ATOM     24  H1  UNL     1     -31.527   1.977  19.624  1.00  0.00     0.217 HD
ENDBRANCH   4  23
BRANCH   5  25
HETATM   25  C9  UNL     1     -30.678   3.413  21.778  1.00  0.00     0.013 C 
HETATM   26  C10 UNL     1     -30.058   4.338  22.819  1.00  0.00     0.015 C 
HETATM   27  C11 UNL     1     -29.857   3.591  20.507  1.00  0.00     0.015 C 
ENDBRANCH   5  25
TORSDOF 3
ENDMDL
MODEL 3
REMARK VINA RESULT: -5.336058407      1.942      4.868
REMARK  3 active torsions:
REMARK  status: ('A' for Active; 'I' for Inactive)
REMARK    1  A    between atoms: C2_2  and  C4_4 
REMARK    2  A    between atoms: C7_7  and  O1_8 
REMARK    3  A    between atoms: C8_10  and  C9_11 
ROOT
HETATM    1  C4  UNL     1     -32.538   3.733  20.678  1.00  0.00     0.114 C 
HETATM    2  C5  UNL     1     -33.249   2.532  21.221  1.00  0.00     0.072 C 
HETATM    3  C6  UNL     1     -34.653   2.383  20.723  1.00  0.00    -0.009 A 
HETATM    4  C7  UNL     1     -34.911   1.198  20.098  1.00  0.00     0.079 A 
HETATM    5  C8  UNL     1     -36.170   0.971  19.528  1.00  0.00    -0.019 A 
HETATM    6  C12 UNL     1     -37.157   1.957  19.597  1.00  0.00     0.035 A 
HETATM    7  C13 UNL     1     -36.916   3.177  20.230  1.00  0.00     0.046 A 
HETATM    8 CL1  UNL     1     -38.053   4.497  20.181  1.00  0.00    -0.083 Cl
HETATM    9  C14 UNL     1     -35.683   3.330  20.765  1.00  0.00     0.007 A 
HETATM   10  C15 UNL     1     -35.558   4.603  21.472  1.00  0.00     0.004 A 
HETATM   11  C16 UNL     1     -36.725   4.945  22.080  1.00  0.00     0.035 A 
HETATM   12  C17 UNL     1     -36.752   6.151  22.737  1.00  0.00     0.033 A 
HETATM   13 BR1  UNL     1     -38.331   6.737  23.616  1.00  0.00    -0.049 Br
HETATM   14  C18 UNL     1     -35.614   6.974  22.769  1.00  0.00     0.053 A 
HETATM   15 CL2  UNL     1     -35.638   8.512  23.602  1.00  0.00    -0.083 Cl
HETATM   16  C19 UNL     1     -34.458   6.571  22.139  1.00  0.00     0.055 A 
HETATM   17  C20 UNL     1     -34.396   5.381  21.477  1.00  0.00     0.041 A 
HETATM   18  N1  UNL     1     -33.138   5.017  20.925  1.00  0.00    -0.381 N 
ATOM     19  H1  UNL     1     -32.555   5.809  20.655  1.00  0.00     0.160 HD
ENDROOT
BRANCH   1  20
HETATM   20  C2  UNL     1     -31.101   3.703  21.011  1.00  0.00    -0.070 C 
HETATM   21  C1  UNL     1     -30.707   3.772  22.259  1.00  0.00     0.016 C 
HETATM   22  C3  UNL     1     -30.093   3.602  19.936  1.00  0.00     0.044 C 
ENDBRANCH   1  20
BRANCH   4  23
HETATM   23  O1  UNL     1     -33.915   0.213  20.027  1.00  0.00    -0.360 OA
ATOM     24  H1  UNL     1     -33.089   0.341  20.479  1.00  0.00     0.217 HD
ENDBRANCH   4  23
BRANCH   5  25
HETATM   25  C9  UNL     1     -36.461  -0.321  18.865  1.00  0.00     0.013 C 
HETATM   26  C10 UNL     1     -36.104  -1.453  19.822  1.00  0.00     0.015 C 
HETATM   27  C11 UNL     1     -35.550  -0.484  17.655  1.00  0.00     0.015 C 
ENDBRANCH   5  25
TORSDOF 3
ENDMDL
MODEL 4
REMARK VINA RESULT: -5.193786463      1.261      1.321
REMARK  3 active torsions:
REMARK  status: ('A' for Active; 'I' for Inactive)
REMARK    1  A    between atoms: C2_2  and  C4_4 
REMARK    2  A    between atoms: C7_7  and  O1_8 
REMARK    3  A    between atoms: C8_10  and  C9_11 
ROOT
HETATM    1  C4  UNL     1     -35.535   1.660  21.850  1.00  0.00     0.114 C 
HETATM    2  C5  UNL     1     -34.941   2.094  20.546  1.00  0.00     0.072 C 
HETATM    3  C6  UNL     1     -33.765   3.009  20.693  1.00  0.00    -0.009 A 
HETATM    4  C7  UNL     1     -32.621   2.564  20.096  1.00  0.00     0.079 A 
HETATM    5  C8  UNL     1     -31.437   3.300  20.224  1.00  0.00    -0.019 A 
HETATM    6  C12 UNL     1     -31.426   4.484  20.964  1.00  0.00     0.035 A 
HETATM    7  C13 UNL     1     -32.582   4.958  21.585  1.00  0.00     0.046 A 
HETATM    8 CL1  UNL     1     -32.571   6.328  22.663  1.00  0.00    -0.083 Cl
HETATM    9  C14 UNL     1     -33.693   4.204  21.417  1.00  0.00     0.007 A 
HETATM   10  C15 UNL     1     -34.862   4.825  22.036  1.00  0.00     0.004 A 
HETATM   11  C16 UNL     1     -34.811   6.180  21.936  1.00  0.00     0.035 A 
HETATM   12  C17 UNL     1     -35.832   6.884  22.527  1.00  0.00     0.033 A 
HETATM   13 BR1  UNL     1     -35.861   8.783  22.458  1.00  0.00    -0.049 Br
HETATM   14  C18 UNL     1     -36.871   6.215  23.195  1.00  0.00     0.053 A 
HETATM   15 CL2  UNL     1     -38.174   7.102  23.952  1.00  0.00    -0.083 Cl
HETATM   16  C19 UNL     1     -36.871   4.839  23.258  1.00  0.00     0.055 A 
HETATM   17  C20 UNL     1     -35.873   4.109  22.683  1.00  0.00     0.041 A 
HETATM   18  N1  UNL     1     -36.002   2.694  22.734  1.00  0.00    -0.381 N 
ATOM     19  H1  UNL     1     -36.517   2.350  23.544  1.00  0.00     0.160 HD
ENDROOT
BRANCH   1  20
HETATM   20  C2  UNL     1     -36.530   0.587  21.655  1.00  0.00    -0.070 C 
HETATM   21  C1  UNL     1     -37.561   0.484  22.457  1.00  0.00     0.016 C 
HETATM   22  C3  UNL     1     -36.365  -0.387  20.556  1.00  0.00     0.044 C 
ENDBRANCH   1  20
BRANCH   4  23
HETATM   23  O1  UNL     1     -32.636   1.371  19.357  1.00  0.00    -0.360 OA
ATOM     24  H1  UNL     1     -33.402   1.141  18.845  1.00  0.00     0.217 HD
ENDBRANCH   4  23
BRANCH   5  25
HETATM   25  C9  UNL     1     -30.198   2.832  19.561  1.00  0.00     0.013 C 
HETATM   26  C10 UNL     1     -29.033   3.693  20.037  1.00  0.00     0.015 C 
HETATM   27  C11 UNL     1     -30.310   3.061  18.059  1.00  0.00     0.015 C 
ENDBRANCH   5  25
TORSDOF 3
ENDMDL
