MODEL 1
REMARK VINA RESULT: -6.810655115      0.000      0.000
REMARK  5 active torsions:
REMARK  status: ('A' for Active; 'I' for Inactive)
REMARK    1  A    between atoms: C2_2  and  C6_17 
REMARK    2  A    between atoms: N1_3  and  S1_5 
REMARK    3  A    between atoms: S1_5  and  N2_8 
REMARK    4  A    between atoms: N2_8  and  C3_10 
REMARK    5  A    between atoms: C3_10  and  N3_13 
REMARK       I    between atoms: C6_17  and  N4_19 
REMARK       I    between atoms: N4_19  and  C7_21 
ROOT
HETATM    1  C1  UNL     1      37.244   2.174 103.079  1.00  0.00     0.075 C 
HETATM    2  C2  UNL     1      38.608   2.655 103.282  1.00  0.00     0.085 C 
HETATM    3  N1  UNL     1      38.837   3.641 104.116  1.00  0.00    -0.267 N 
ATOM      4  H1  UNL     1      39.786   3.983 104.266  1.00  0.00     0.180 HD
ENDROOT
BRANCH   3   5
HETATM    5  S1  UNL     1      37.524   4.346 104.949  1.00  0.00     0.321 S 
HETATM    6  O1  UNL     1      36.908   3.311 105.849  1.00  0.00    -0.182 OA
HETATM    7  O2  UNL     1      38.025   5.533 105.723  1.00  0.00    -0.182 OA
BRANCH   5   8
HETATM    8  N2  UNL     1      36.276   4.826 103.841  1.00  0.00    -0.269 N 
ATOM      9  H2  UNL     1      36.417   5.011 102.848  1.00  0.00     0.176 HD
BRANCH   8  10
HETATM   10  C3  UNL     1      34.995   4.927 104.532  1.00  0.00     0.198 C 
HETATM   11  C4  UNL     1      34.329   3.575 104.575  1.00  0.00     0.070 C 
HETATM   12  C5  UNL     1      34.160   5.941 103.771  1.00  0.00     0.070 C 
BRANCH  10  13
HETATM   13  N3  UNL     1      35.232   5.389 105.884  1.00  0.00    -0.053 N 
ATOM     14  H33 UNL     1      35.724   6.283 105.911  1.00  0.00     0.277 HD
ATOM     15  H32 UNL     1      34.375   5.686 106.351  1.00  0.00     0.277 HD
ATOM     16  H31 UNL     1      35.723   4.658 106.399  1.00  0.00     0.277 HD
ENDBRANCH  10  13
ENDBRANCH   8  10
ENDBRANCH   5   8
ENDBRANCH   3   5
BRANCH   2  17
HETATM   17  C6  UNL     1      39.743   2.073 102.582  1.00  0.00     0.270 C 
HETATM   18  O3  UNL     1      40.836   2.699 102.550  1.00  0.00    -0.266 OA
HETATM   19  N4  UNL     1      39.631   0.825 101.943  1.00  0.00    -0.296 N 
HETATM   20  C7  UNL     1      40.741   0.229 101.245  1.00  0.00     0.188 C 
ATOM     21  H4  UNL     1      38.740   0.330 101.975  1.00  0.00     0.171 HD
HETATM   22  N5  UNL     1      40.648  -0.897 100.665  1.00  0.00    -0.373 N 
HETATM   23  N6  UNL     1      41.963   0.945 101.221  1.00  0.00    -0.064 NA
ATOM     24  H52 UNL     1      39.768  -1.413 100.683  1.00  0.00     0.158 HD
ATOM     25  H51 UNL     1      41.434  -1.320 100.172  1.00  0.00     0.158 HD
ENDBRANCH   2  17
TORSDOF 5
ENDMDL
MODEL 2
REMARK VINA RESULT: -6.807633839      1.570      1.833
REMARK  5 active torsions:
REMARK  status: ('A' for Active; 'I' for Inactive)
REMARK    1  A    between atoms: C2_2  and  C6_17 
REMARK    2  A    between atoms: N1_3  and  S1_5 
REMARK    3  A    between atoms: S1_5  and  N2_8 
REMARK    4  A    between atoms: N2_8  and  C3_10 
REMARK    5  A    between atoms: C3_10  and  N3_13 
REMARK       I    between atoms: C6_17  and  N4_19 
REMARK       I    between atoms: N4_19  and  C7_21 
ROOT
HETATM    1  C1  UNL     1      38.916   4.658 105.030  1.00  0.00     0.075 C 
HETATM    2  C2  UNL     1      38.405   3.401 104.490  1.00  0.00     0.085 C 
HETATM    3  N1  UNL     1      37.260   2.923 104.915  1.00  0.00    -0.267 N 
ATOM      4  H1  UNL     1      36.895   2.047 104.542  1.00  0.00     0.180 HD
ENDROOT
BRANCH   3   5
HETATM    5  S1  UNL     1      36.387   3.787 106.100  1.00  0.00     0.321 S 
HETATM    6  O1  UNL     1      35.278   2.915 106.620  1.00  0.00    -0.182 OA
HETATM    7  O2  UNL     1      37.335   4.198 107.192  1.00  0.00    -0.182 OA
BRANCH   5   8
HETATM    8  N2  UNL     1      35.618   5.182 105.406  1.00  0.00    -0.269 N 
ATOM      9  H2  UNL     1      35.756   6.141 105.723  1.00  0.00     0.176 HD
BRANCH   8  10
HETATM   10  C3  UNL     1      34.747   4.786 104.306  1.00  0.00     0.198 C 
HETATM   11  C4  UNL     1      35.570   4.517 103.072  1.00  0.00     0.070 C 
HETATM   12  C5  UNL     1      33.765   5.923 104.089  1.00  0.00     0.070 C 
BRANCH  10  13
HETATM   13  N3  UNL     1      34.039   3.580 104.684  1.00  0.00    -0.053 N 
ATOM     14  H33 UNL     1      34.563   2.734 104.459  1.00  0.00     0.277 HD
ATOM     15  H32 UNL     1      33.996   3.454 105.695  1.00  0.00     0.277 HD
ATOM     16  H31 UNL     1      33.115   3.594 104.252  1.00  0.00     0.277 HD
ENDBRANCH  10  13
ENDBRANCH   8  10
ENDBRANCH   5   8
ENDBRANCH   3   5
BRANCH   2  17
HETATM   17  C6  UNL     1      39.133   2.644 103.482  1.00  0.00     0.270 C 
HETATM   18  O3  UNL     1      39.946   3.243 102.729  1.00  0.00    -0.266 OA
HETATM   19  N4  UNL     1      38.935   1.259 103.341  1.00  0.00    -0.296 N 
HETATM   20  C7  UNL     1      39.645   0.490 102.352  1.00  0.00     0.188 C 
ATOM     21  H4  UNL     1      38.272   0.788 103.955  1.00  0.00     0.171 HD
HETATM   22  N5  UNL     1      39.473  -0.761 102.217  1.00  0.00    -0.373 N 
HETATM   23  N6  UNL     1      40.559   1.178 101.515  1.00  0.00    -0.064 NA
ATOM     24  H52 UNL     1      38.816  -1.257 102.820  1.00  0.00     0.158 HD
ATOM     25  H51 UNL     1      39.976  -1.305 101.517  1.00  0.00     0.158 HD
ENDBRANCH   2  17
TORSDOF 5
ENDMDL
MODEL 3
REMARK VINA RESULT: -6.787779829      1.216      1.719
REMARK  5 active torsions:
REMARK  status: ('A' for Active; 'I' for Inactive)
REMARK    1  A    between atoms: C2_2  and  C6_17 
REMARK    2  A    between atoms: N1_3  and  S1_5 
REMARK    3  A    between atoms: S1_5  and  N2_8 
REMARK    4  A    between atoms: N2_8  and  C3_10 
REMARK    5  A    between atoms: C3_10  and  N3_13 
REMARK       I    between atoms: C6_17  and  N4_19 
REMARK       I    between atoms: N4_19  and  C7_21 
ROOT
HETATM    1  C1  UNL     1      39.643   4.352 105.003  1.00  0.00     0.075 C 
HETATM    2  C2  UNL     1      38.934   3.326 104.242  1.00  0.00     0.085 C 
HETATM    3  N1  UNL     1      37.664   3.098 104.476  1.00  0.00    -0.267 N 
ATOM      4  H1  UNL     1      37.161   2.385 103.948  1.00  0.00     0.180 HD
ENDROOT
BRANCH   3   5
HETATM    5  S1  UNL     1      36.864   4.012 105.675  1.00  0.00     0.321 S 
HETATM    6  O1  UNL     1      37.028   3.322 107.002  1.00  0.00    -0.182 OA
HETATM    7  O2  UNL     1      37.442   5.399 105.690  1.00  0.00    -0.182 OA
BRANCH   5   8
HETATM    8  N2  UNL     1      35.154   4.069 105.371  1.00  0.00    -0.269 N 
ATOM      9  H2  UNL     1      34.435   3.765 106.027  1.00  0.00     0.176 HD
BRANCH   8  10
HETATM   10  C3  UNL     1      34.893   4.614 104.043  1.00  0.00     0.198 C 
HETATM   11  C4  UNL     1      33.882   5.728 104.137  1.00  0.00     0.070 C 
HETATM   12  C5  UNL     1      34.389   3.467 103.186  1.00  0.00     0.070 C 
BRANCH  10  13
HETATM   13  N3  UNL     1      36.132   5.135 103.503  1.00  0.00    -0.053 N 
ATOM     14  H33 UNL     1      36.275   6.119 103.732  1.00  0.00     0.277 HD
ATOM     15  H32 UNL     1      36.954   4.759 103.977  1.00  0.00     0.277 HD
ATOM     16  H31 UNL     1      36.149   4.962 102.497  1.00  0.00     0.277 HD
ENDBRANCH  10  13
ENDBRANCH   8  10
ENDBRANCH   5   8
ENDBRANCH   3   5
BRANCH   2  17
HETATM   17  C6  UNL     1      39.596   2.532 103.217  1.00  0.00     0.270 C 
HETATM   18  O3  UNL     1      40.440   3.081 102.461  1.00  0.00    -0.266 OA
HETATM   19  N4  UNL     1      39.301   1.165 103.064  1.00  0.00    -0.296 N 
HETATM   20  C7  UNL     1      39.945   0.360 102.059  1.00  0.00     0.188 C 
ATOM     21  H4  UNL     1      38.614   0.734 103.682  1.00  0.00     0.171 HD
HETATM   22  N5  UNL     1      39.685  -0.875 101.914  1.00  0.00    -0.373 N 
HETATM   23  N6  UNL     1      40.894   0.992 101.218  1.00  0.00    -0.064 NA
ATOM     24  H52 UNL     1      39.001  -1.330 102.520  1.00  0.00     0.158 HD
ATOM     25  H51 UNL     1      40.141  -1.445 101.202  1.00  0.00     0.158 HD
ENDBRANCH   2  17
TORSDOF 5
ENDMDL
MODEL 4
REMARK VINA RESULT: -6.280783218      1.329      2.017
REMARK  5 active torsions:
REMARK  status: ('A' for Active; 'I' for Inactive)
REMARK    1  A    between atoms: C2_2  and  C6_17 
REMARK    2  A    between atoms: N1_3  and  S1_5 
REMARK    3  A    between atoms: S1_5  and  N2_8 
REMARK    4  A    between atoms: N2_8  and  C3_10 
REMARK    5  A    between atoms: C3_10  and  N3_13 
REMARK       I    between atoms: C6_17  and  N4_19 
REMARK       I    between atoms: N4_19  and  C7_21 
ROOT
HETATM    1  C1  UNL     1      39.684   4.121 103.490  1.00  0.00     0.075 C 
HETATM    2  C2  UNL     1      38.772   3.020 103.789  1.00  0.00     0.085 C 
HETATM    3  N1  UNL     1      37.755   3.212 104.596  1.00  0.00    -0.267 N 
ATOM      4  H1  UNL     1      37.113   2.450 104.809  1.00  0.00     0.180 HD
ENDROOT
BRANCH   3   5
HETATM    5  S1  UNL     1      37.522   4.757 105.283  1.00  0.00     0.321 S 
HETATM    6  O1  UNL     1      38.240   4.815 106.603  1.00  0.00    -0.182 OA
HETATM    7  O2  UNL     1      38.033   5.794 104.323  1.00  0.00    -0.182 OA
BRANCH   5   8
HETATM    8  N2  UNL     1      35.843   5.030 105.635  1.00  0.00    -0.269 N 
ATOM      9  H2  UNL     1      35.476   5.305 106.546  1.00  0.00     0.176 HD
BRANCH   8  10
HETATM   10  C3  UNL     1      35.032   4.810 104.443  1.00  0.00     0.198 C 
HETATM   11  C4  UNL     1      34.000   5.901 104.318  1.00  0.00     0.070 C 
HETATM   12  C5  UNL     1      34.389   3.442 104.592  1.00  0.00     0.070 C 
BRANCH  10  13
HETATM   13  N3  UNL     1      35.898   4.832 103.282  1.00  0.00    -0.053 N 
ATOM     14  H33 UNL     1      35.383   4.985 102.414  1.00  0.00     0.277 HD
ATOM     15  H32 UNL     1      36.484   5.666 103.247  1.00  0.00     0.277 HD
ATOM     16  H31 UNL     1      36.444   3.970 103.264  1.00  0.00     0.277 HD
ENDBRANCH  10  13
ENDBRANCH   8  10
ENDBRANCH   5   8
ENDBRANCH   3   5
BRANCH   2  17
HETATM   17  C6  UNL     1      38.952   1.693 103.218  1.00  0.00     0.270 C 
HETATM   18  O3  UNL     1      38.102   0.796 103.463  1.00  0.00    -0.266 OA
HETATM   19  N4  UNL     1      40.061   1.406 102.402  1.00  0.00    -0.296 N 
HETATM   20  C7  UNL     1      40.259   0.102 101.825  1.00  0.00     0.188 C 
ATOM     21  H4  UNL     1      40.742   2.141 102.214  1.00  0.00     0.171 HD
HETATM   22  N5  UNL     1      41.257  -0.166 101.087  1.00  0.00    -0.373 N 
HETATM   23  N6  UNL     1      39.292  -0.895 102.107  1.00  0.00    -0.064 NA
ATOM     24  H52 UNL     1      41.953   0.552 100.883  1.00  0.00     0.158 HD
ATOM     25  H51 UNL     1      41.396  -1.089 100.678  1.00  0.00     0.158 HD
ENDBRANCH   2  17
TORSDOF 5
ENDMDL
MODEL 5
REMARK VINA RESULT: -6.171042476      2.050      2.462
REMARK  5 active torsions:
REMARK  status: ('A' for Active; 'I' for Inactive)
REMARK    1  A    between atoms: C2_2  and  C6_17 
REMARK    2  A    between atoms: N1_3  and  S1_5 
REMARK    3  A    between atoms: S1_5  and  N2_8 
REMARK    4  A    between atoms: N2_8  and  C3_10 
REMARK    5  A    between atoms: C3_10  and  N3_13 
REMARK       I    between atoms: C6_17  and  N4_19 
REMARK       I    between atoms: N4_19  and  C7_21 
ROOT
HETATM    1  C1  UNL     1      38.594   4.974 103.227  1.00  0.00     0.075 C 
HETATM    2  C2  UNL     1      38.328   3.567 102.936  1.00  0.00     0.085 C 
HETATM    3  N1  UNL     1      37.159   3.049 103.226  1.00  0.00    -0.267 N 
ATOM      4  H1  UNL     1      36.964   2.068 103.025  1.00  0.00     0.180 HD
ENDROOT
BRANCH   3   5
HETATM    5  S1  UNL     1      35.968   4.037 103.945  1.00  0.00     0.321 S 
HETATM    6  O1  UNL     1      35.367   4.922 102.887  1.00  0.00    -0.182 OA
HETATM    7  O2  UNL     1      34.935   3.157 104.590  1.00  0.00    -0.182 OA
BRANCH   5   8
HETATM    8  N2  UNL     1      36.676   5.104 105.119  1.00  0.00    -0.269 N 
ATOM      9  H2  UNL     1      36.935   6.074 104.943  1.00  0.00     0.176 HD
BRANCH   8  10
HETATM   10  C3  UNL     1      36.847   4.414 106.393  1.00  0.00     0.198 C 
HETATM   11  C4  UNL     1      38.264   3.915 106.518  1.00  0.00     0.070 C 
HETATM   12  C5  UNL     1      35.846   3.273 106.417  1.00  0.00     0.070 C 
BRANCH  10  13
HETATM   13  N3  UNL     1      36.569   5.346 107.467  1.00  0.00    -0.053 N 
ATOM     14  H33 UNL     1      36.581   4.898 108.384  1.00  0.00     0.277 HD
ATOM     15  H32 UNL     1      37.334   6.003 107.622  1.00  0.00     0.277 HD
ATOM     16  H31 UNL     1      35.685   5.815 107.273  1.00  0.00     0.277 HD
ENDBRANCH  10  13
ENDBRANCH   8  10
ENDBRANCH   5   8
ENDBRANCH   3   5
BRANCH   2  17
HETATM   17  C6  UNL     1      39.329   2.704 102.327  1.00  0.00     0.270 C 
HETATM   18  O3  UNL     1      40.343   3.221 101.787  1.00  0.00    -0.266 OA
HETATM   19  N4  UNL     1      39.174   1.307 102.334  1.00  0.00    -0.296 N 
HETATM   20  C7  UNL     1      40.152   0.433 101.740  1.00  0.00     0.188 C 
ATOM     21  H4  UNL     1      38.347   0.902 102.773  1.00  0.00     0.171 HD
HETATM   22  N5  UNL     1      40.020  -0.830 101.742  1.00  0.00    -0.373 N 
HETATM   23  N6  UNL     1      41.288   1.030 101.139  1.00  0.00    -0.064 NA
ATOM     24  H52 UNL     1      39.202  -1.260 102.175  1.00  0.00     0.158 HD
ATOM     25  H51 UNL     1      40.713  -1.449 101.321  1.00  0.00     0.158 HD
ENDBRANCH   2  17
TORSDOF 5
ENDMDL
