MODEL 1
REMARK VINA RESULT: -6.519074836      0.000      0.000
REMARK  6 active torsions:
REMARK  status: ('A' for Active; 'I' for Inactive)
REMARK    1  A    between atoms: C2_2  and  C4_4 
REMARK    2  A    between atoms: C4_4  and  C5_5 
REMARK    3  A    between atoms: C11_11  and  C12_12 
REMARK    4  A    between atoms: C12_12  and  C13_13 
REMARK    5  A    between atoms: C19_19  and  C20_20 
REMARK    6  A    between atoms: C20_20  and  O1_23 
ROOT
HETATM    1  C5  UNL     1      -9.484  -7.422   8.525  1.00  0.00     0.126 C 
HETATM    2  C6  UNL     1     -10.120  -8.198   7.429  1.00  0.00     0.038 C 
HETATM    3  C7  UNL     1     -11.397  -8.802   8.041  1.00  0.00     0.003 C 
HETATM    4  C8  UNL     1     -12.264  -7.679   8.570  1.00  0.00     0.026 C 
HETATM    5  C9  UNL     1     -12.957  -6.987   7.446  1.00  0.00     0.041 C 
HETATM    6  C10 UNL     1     -13.774  -8.007   6.737  1.00  0.00    -0.083 C 
HETATM    7  C11 UNL     1     -15.071  -8.028   6.644  1.00  0.00    -0.024 C 
HETATM    8  C15 UNL     1     -12.945  -9.099   6.091  1.00  0.00     0.043 C 
HETATM    9  C16 UNL     1     -12.069  -9.754   7.133  1.00  0.00    -0.040 C 
HETATM   10  C17 UNL     1     -12.931 -10.701   7.966  1.00  0.00     0.015 C 
HETATM   11  C18 UNL     1     -11.037 -10.573   6.398  1.00  0.00     0.015 C 
HETATM   12  C19 UNL     1     -11.435  -6.820   9.450  1.00  0.00     0.160 C 
HETATM   13  O2  UNL     1     -10.293  -6.317   8.785  1.00  0.00    -0.377 OA
ENDROOT
BRANCH  12  14
HETATM   14  C20 UNL     1     -12.088  -5.692  10.140  1.00  0.00     0.077 C 
HETATM   15  C21 UNL     1     -11.722  -5.809  11.631  1.00  0.00     0.048 C 
HETATM   16  C22 UNL     1     -13.592  -5.706  10.096  1.00  0.00     0.048 C 
BRANCH  14  17
HETATM   17  O1  UNL     1     -11.561  -4.470   9.736  1.00  0.00    -0.388 OA
ATOM     18  H1  UNL     1     -10.618  -4.442   9.849  1.00  0.00     0.210 HD
ENDBRANCH  14  17
ENDBRANCH  12  14
BRANCH   1  19
HETATM   19  C4  UNL     1      -8.051  -7.121   8.417  1.00  0.00     0.065 C 
BRANCH  19  20
HETATM   20  C2  UNL     1      -7.275  -7.648   7.316  1.00  0.00    -0.091 C 
HETATM   21  C1  UNL     1      -6.627  -8.781   7.203  1.00  0.00     0.014 C 
HETATM   22  C3  UNL     1      -7.194  -6.730   6.104  1.00  0.00     0.042 C 
ENDBRANCH  19  20
ENDBRANCH   1  19
BRANCH   7  23
HETATM   23  C12 UNL     1     -16.018  -7.058   7.212  1.00  0.00     0.027 C 
BRANCH  23  24
HETATM   24  C13 UNL     1     -16.980  -6.687   6.071  1.00  0.00    -0.001 C 
HETATM   25  C14 UNL     1     -16.324  -5.761   5.091  1.00  0.00     0.005 C 
ENDBRANCH  23  24
ENDBRANCH   7  23
TORSDOF 6
ENDMDL
MODEL 2
REMARK VINA RESULT: -6.146461260      1.828      6.614
REMARK  6 active torsions:
REMARK  status: ('A' for Active; 'I' for Inactive)
REMARK    1  A    between atoms: C2_2  and  C4_4 
REMARK    2  A    between atoms: C4_4  and  C5_5 
REMARK    3  A    between atoms: C11_11  and  C12_12 
REMARK    4  A    between atoms: C12_12  and  C13_13 
REMARK    5  A    between atoms: C19_19  and  C20_20 
REMARK    6  A    between atoms: C20_20  and  O1_23 
ROOT
HETATM    1  C5  UNL     1     -14.980  -7.193   7.713  1.00  0.00     0.126 C 
HETATM    2  C6  UNL     1     -14.087  -6.129   8.242  1.00  0.00     0.038 C 
HETATM    3  C7  UNL     1     -13.149  -6.836   9.237  1.00  0.00     0.003 C 
HETATM    4  C8  UNL     1     -12.411  -7.942   8.511  1.00  0.00     0.026 C 
HETATM    5  C9  UNL     1     -11.321  -7.370   7.668  1.00  0.00     0.041 C 
HETATM    6  C10 UNL     1     -10.411  -6.622   8.574  1.00  0.00    -0.083 C 
HETATM    7  C11 UNL     1      -9.165  -6.902   8.820  1.00  0.00    -0.024 C 
HETATM    8  C15 UNL     1     -11.071  -5.433   9.245  1.00  0.00     0.043 C 
HETATM    9  C16 UNL     1     -12.302  -5.892   9.992  1.00  0.00    -0.040 C 
HETATM   10  C17 UNL     1     -11.858  -6.562  11.291  1.00  0.00     0.015 C 
HETATM   11  C18 UNL     1     -13.097  -4.659  10.340  1.00  0.00     0.015 C 
HETATM   12  C19 UNL     1     -13.405  -8.785   7.803  1.00  0.00     0.160 C 
HETATM   13  O2  UNL     1     -14.208  -8.034   6.914  1.00  0.00    -0.377 OA
ENDROOT
BRANCH  12  14
HETATM   14  C20 UNL     1     -12.921  -9.975   7.079  1.00  0.00     0.077 C 
HETATM   15  C21 UNL     1     -11.411 -10.084   7.358  1.00  0.00     0.048 C 
HETATM   16  C22 UNL     1     -13.047  -9.901   5.581  1.00  0.00     0.048 C 
BRANCH  14  17
HETATM   17  O1  UNL     1     -13.466 -11.145   7.596  1.00  0.00    -0.388 OA
ATOM     18  H1  UNL     1     -13.794 -11.712   6.907  1.00  0.00     0.210 HD
ENDBRANCH  14  17
ENDBRANCH  12  14
BRANCH   1  19
HETATM   19  C4  UNL     1     -16.260  -6.787   7.120  1.00  0.00     0.065 C 
BRANCH  19  20
HETATM   20  C2  UNL     1     -16.422  -6.755   5.683  1.00  0.00    -0.091 C 
HETATM   21  C1  UNL     1     -16.015  -5.872   4.805  1.00  0.00     0.014 C 
HETATM   22  C3  UNL     1     -17.200  -7.931   5.109  1.00  0.00     0.042 C 
ENDBRANCH  19  20
ENDBRANCH   1  19
BRANCH   7  23
HETATM   23  C12 UNL     1      -8.379  -8.013   8.265  1.00  0.00     0.027 C 
BRANCH  23  24
HETATM   24  C13 UNL     1      -7.644  -7.442   7.040  1.00  0.00    -0.001 C 
HETATM   25  C14 UNL     1      -6.962  -8.529   6.265  1.00  0.00     0.005 C 
ENDBRANCH  23  24
ENDBRANCH   7  23
TORSDOF 6
ENDMDL
MODEL 3
REMARK VINA RESULT: -4.959489797      7.638     10.994
REMARK  6 active torsions:
REMARK  status: ('A' for Active; 'I' for Inactive)
REMARK    1  A    between atoms: C2_2  and  C4_4 
REMARK    2  A    between atoms: C4_4  and  C5_5 
REMARK    3  A    between atoms: C11_11  and  C12_12 
REMARK    4  A    between atoms: C12_12  and  C13_13 
REMARK    5  A    between atoms: C19_19  and  C20_20 
REMARK    6  A    between atoms: C20_20  and  O1_23 
ROOT
HETATM    1  C5  UNL     1      -3.271  -3.567   6.063  1.00  0.00     0.126 C 
HETATM    2  C6  UNL     1      -3.557  -4.592   7.101  1.00  0.00     0.038 C 
HETATM    3  C7  UNL     1      -3.924  -5.871   6.327  1.00  0.00     0.003 C 
HETATM    4  C8  UNL     1      -2.773  -6.237   5.413  1.00  0.00     0.026 C 
HETATM    5  C9  UNL     1      -1.667  -6.858   6.199  1.00  0.00     0.041 C 
HETATM    6  C10 UNL     1      -2.225  -8.062   6.869  1.00  0.00    -0.083 C 
HETATM    7  C11 UNL     1      -1.873  -9.296   6.657  1.00  0.00    -0.024 C 
HETATM    8  C15 UNL     1      -3.309  -7.741   7.879  1.00  0.00     0.043 C 
HETATM    9  C16 UNL     1      -4.409  -6.952   7.209  1.00  0.00    -0.040 C 
HETATM   10  C17 UNL     1      -5.262  -7.913   6.383  1.00  0.00     0.015 C 
HETATM   11  C18 UNL     1      -5.271  -6.371   8.302  1.00  0.00     0.015 C 
HETATM   12  C19 UNL     1      -2.410  -5.043   4.612  1.00  0.00     0.160 C 
HETATM   13  O2  UNL     1      -2.087  -3.931   5.424  1.00  0.00    -0.377 OA
ENDROOT
BRANCH  12  14
HETATM   14  C20 UNL     1      -1.352  -5.181   3.594  1.00  0.00     0.077 C 
HETATM   15  C21 UNL     1      -1.779  -4.328   2.387  1.00  0.00     0.048 C 
HETATM   16  C22 UNL     1      -1.168  -6.574   3.055  1.00  0.00     0.048 C 
BRANCH  14  17
HETATM   17  O1  UNL     1      -0.153  -4.621   4.023  1.00  0.00    -0.388 OA
ATOM     18  H1  UNL     1       0.488  -5.288   4.239  1.00  0.00     0.210 HD
ENDBRANCH  14  17
ENDBRANCH  12  14
BRANCH   1  19
HETATM   19  C4  UNL     1      -3.351  -2.153   6.449  1.00  0.00     0.065 C 
BRANCH  19  20
HETATM   20  C2  UNL     1      -4.173  -1.234   5.693  1.00  0.00    -0.091 C 
HETATM   21  C1  UNL     1      -4.851  -0.186   6.086  1.00  0.00     0.014 C 
HETATM   22  C3  UNL     1      -4.269  -1.550   4.206  1.00  0.00     0.042 C 
ENDBRANCH  19  20
ENDBRANCH   1  19
BRANCH   7  23
HETATM   23  C12 UNL     1      -0.852  -9.778   5.716  1.00  0.00     0.027 C 
BRANCH  23  24
HETATM   24  C13 UNL     1      -1.612 -10.215   4.453  1.00  0.00    -0.001 C 
HETATM   25  C14 UNL     1      -0.673 -10.756   3.417  1.00  0.00     0.005 C 
ENDBRANCH  23  24
ENDBRANCH   7  23
TORSDOF 6
ENDMDL
MODEL 4
REMARK VINA RESULT: -4.780925894      6.295     10.351
REMARK  6 active torsions:
REMARK  status: ('A' for Active; 'I' for Inactive)
REMARK    1  A    between atoms: C2_2  and  C4_4 
REMARK    2  A    between atoms: C4_4  and  C5_5 
REMARK    3  A    between atoms: C11_11  and  C12_12 
REMARK    4  A    between atoms: C12_12  and  C13_13 
REMARK    5  A    between atoms: C19_19  and  C20_20 
REMARK    6  A    between atoms: C20_20  and  O1_23 
ROOT
HETATM    1  C5  UNL     1      -1.439  -5.164   3.069  1.00  0.00     0.126 C 
HETATM    2  C6  UNL     1      -1.532  -6.529   3.652  1.00  0.00     0.038 C 
HETATM    3  C7  UNL     1      -1.460  -6.330   5.177  1.00  0.00     0.003 C 
HETATM    4  C8  UNL     1      -2.584  -5.410   5.604  1.00  0.00     0.026 C 
HETATM    5  C9  UNL     1      -3.880  -6.148   5.617  1.00  0.00     0.041 C 
HETATM    6  C10 UNL     1      -3.729  -7.286   6.561  1.00  0.00    -0.083 C 
HETATM    7  C11 UNL     1      -4.383  -7.459   7.672  1.00  0.00    -0.024 C 
HETATM    8  C15 UNL     1      -2.690  -8.299   6.124  1.00  0.00     0.043 C 
HETATM    9  C16 UNL     1      -1.364  -7.606   5.914  1.00  0.00    -0.040 C 
HETATM   10  C17 UNL     1      -0.736  -7.337   7.280  1.00  0.00     0.015 C 
HETATM   11  C18 UNL     1      -0.474  -8.564   5.162  1.00  0.00     0.015 C 
HETATM   12  C19 UNL     1      -2.540  -4.191   4.761  1.00  0.00     0.160 C 
HETATM   13  O2  UNL     1      -2.618  -4.490   3.382  1.00  0.00    -0.377 OA
ENDROOT
BRANCH  12  14
HETATM   14  C20 UNL     1      -3.505  -3.111   5.044  1.00  0.00     0.077 C 
HETATM   15  C21 UNL     1      -2.999  -1.857   4.310  1.00  0.00     0.048 C 
HETATM   16  C22 UNL     1      -3.606  -2.715   6.492  1.00  0.00     0.048 C 
BRANCH  14  17
HETATM   17  O1  UNL     1      -4.749  -3.378   4.483  1.00  0.00    -0.388 OA
ATOM     18  H1  UNL     1      -5.005  -2.704   3.864  1.00  0.00     0.210 HD
ENDBRANCH  14  17
ENDBRANCH  12  14
BRANCH   1  19
HETATM   19  C4  UNL     1      -1.012  -5.039   1.670  1.00  0.00     0.065 C 
BRANCH  19  20
HETATM   20  C2  UNL     1      -1.342  -3.855   0.909  1.00  0.00    -0.091 C 
HETATM   21  C1  UNL     1      -2.313  -3.640   0.056  1.00  0.00     0.014 C 
HETATM   22  C3  UNL     1      -0.400  -2.680   1.130  1.00  0.00     0.042 C 
ENDBRANCH  19  20
ENDBRANCH   1  19
BRANCH   7  23
HETATM   23  C12 UNL     1      -5.412  -6.578   8.243  1.00  0.00     0.027 C 
BRANCH  23  24
HETATM   24  C13 UNL     1      -6.595  -7.489   8.610  1.00  0.00    -0.001 C 
HETATM   25  C14 UNL     1      -6.866  -8.487   7.525  1.00  0.00     0.005 C 
ENDBRANCH  23  24
ENDBRANCH   7  23
TORSDOF 6
ENDMDL
MODEL 5
REMARK VINA RESULT: -4.629649726      5.543      8.947
REMARK  6 active torsions:
REMARK  status: ('A' for Active; 'I' for Inactive)
REMARK    1  A    between atoms: C2_2  and  C4_4 
REMARK    2  A    between atoms: C4_4  and  C5_5 
REMARK    3  A    between atoms: C11_11  and  C12_12 
REMARK    4  A    between atoms: C12_12  and  C13_13 
REMARK    5  A    between atoms: C19_19  and  C20_20 
REMARK    6  A    between atoms: C20_20  and  O1_23 
ROOT
HETATM    1  C5  UNL     1      -1.555  -3.851   8.191  1.00  0.00     0.126 C 
HETATM    2  C6  UNL     1      -1.986  -4.796   7.128  1.00  0.00     0.038 C 
HETATM    3  C7  UNL     1      -2.309  -6.114   7.856  1.00  0.00     0.003 C 
HETATM    4  C8  UNL     1      -3.374  -5.848   8.899  1.00  0.00     0.026 C 
HETATM    5  C9  UNL     1      -4.710  -5.711   8.251  1.00  0.00     0.041 C 
HETATM    6  C10 UNL     1      -4.978  -6.979   7.522  1.00  0.00    -0.083 C 
HETATM    7  C11 UNL     1      -5.928  -7.829   7.776  1.00  0.00    -0.024 C 
HETATM    8  C15 UNL     1      -4.003  -7.240   6.391  1.00  0.00     0.043 C 
HETATM    9  C16 UNL     1      -2.590  -7.226   6.925  1.00  0.00    -0.040 C 
HETATM   10  C17 UNL     1      -2.331  -8.547   7.647  1.00  0.00     0.015 C 
HETATM   11  C18 UNL     1      -1.665  -7.143   5.738  1.00  0.00     0.015 C 
HETATM   12  C19 UNL     1      -2.938  -4.703   9.735  1.00  0.00     0.160 C 
HETATM   13  O2  UNL     1      -2.673  -3.547   8.965  1.00  0.00    -0.377 OA
ENDROOT
BRANCH  12  14
HETATM   14  C20 UNL     1      -3.790  -4.304  10.871  1.00  0.00     0.077 C 
HETATM   15  C21 UNL     1      -2.848  -3.986  12.046  1.00  0.00     0.048 C 
HETATM   16  C22 UNL     1      -4.714  -5.377  11.379  1.00  0.00     0.048 C 
BRANCH  14  17
HETATM   17  O1  UNL     1      -4.458  -3.112  10.614  1.00  0.00    -0.388 OA
ATOM     18  H1  UNL     1      -4.767  -2.705  11.416  1.00  0.00     0.210 HD
ENDBRANCH  14  17
ENDBRANCH  12  14
BRANCH   1  19
HETATM   19  C4  UNL     1      -0.748  -2.690   7.795  1.00  0.00     0.065 C 
BRANCH  19  20
HETATM   20  C2  UNL     1      -1.363  -1.389   7.647  1.00  0.00    -0.091 C 
HETATM   21  C1  UNL     1      -1.394  -0.369   8.468  1.00  0.00     0.014 C 
HETATM   22  C3  UNL     1      -2.099  -1.186   6.330  1.00  0.00     0.042 C 
ENDBRANCH  19  20
ENDBRANCH   1  19
BRANCH   7  23
HETATM   23  C12 UNL     1      -6.947  -7.733   8.832  1.00  0.00     0.027 C 
BRANCH  23  24
HETATM   24  C13 UNL     1      -8.300  -7.959   8.138  1.00  0.00    -0.001 C 
HETATM   25  C14 UNL     1      -8.727  -6.740   7.377  1.00  0.00     0.005 C 
ENDBRANCH  23  24
ENDBRANCH   7  23
TORSDOF 6
ENDMDL
