MODEL 1
REMARK VINA RESULT: -6.342910886      0.000      0.000
REMARK  5 active torsions:
REMARK  status: ('A' for Active; 'I' for Inactive)
REMARK    1  A    between atoms: C2_2  and  O1_3 
REMARK    2  A    between atoms: C2_2  and  C4_5 
REMARK    3  A    between atoms: C4_5  and  C5_6 
REMARK    4  A    between atoms: C9_10  and  O2_11 
REMARK    5  A    between atoms: C10_13  and  O3_14 
ROOT
HETATM    1  C5  UNL     1      -4.449   5.263  14.106  1.00  0.00    -0.089 C 
HETATM    2  C6  UNL     1      -5.231   5.169  15.025  1.00  0.00    -0.110 C 
HETATM    3  C7  UNL     1      -6.168   5.032  16.136  1.00  0.00     0.112 C 
ENDROOT
BRANCH   1   4
HETATM    4  C4  UNL     1      -3.490   5.353  12.962  1.00  0.00     0.084 C 
HETATM    5  C8  UNL     1      -3.021   3.974  12.739  1.00  0.00     0.067 C 
HETATM    6  C9  UNL     1      -2.400   3.626  11.449  1.00  0.00     0.175 C 
HETATM    7  C10 UNL     1      -3.503   3.140  10.526  1.00  0.00     0.288 C 
HETATM    8  O4  UNL     1      -4.638   3.868  10.845  1.00  0.00    -0.326 OA
HETATM    9  C11 UNL     1      -4.527   5.212  10.644  1.00  0.00     0.332 C 
HETATM   10  N1  UNL     1      -3.597   5.540   9.552  1.00  0.00    -0.046 N 
HETATM   11  C14 UNL     1      -4.155   6.034  11.811  1.00  0.00     0.105 C 
HETATM   12  C12 UNL     1      -3.331   6.954   9.722  1.00  0.00     0.273 C 
ATOM     13  H12 UNL     1      -2.760   4.957   9.528  1.00  0.00     0.280 HD
ATOM     14  H11 UNL     1      -3.937   5.287   8.624  1.00  0.00     0.280 HD
HETATM   15  C13 UNL     1      -3.333   7.166  11.231  1.00  0.00     0.206 C 
HETATM   16  F1  UNL     1      -3.890   8.410  11.457  1.00  0.00    -0.247 F 
BRANCH   4  17
HETATM   17  C2  UNL     1      -2.370   6.167  13.509  1.00  0.00     0.058 C 
HETATM   18  C1  UNL     1      -1.102   5.879  13.319  1.00  0.00     0.048 C 
BRANCH  17  19
HETATM   19  O1  UNL     1      -2.636   7.318  14.278  1.00  0.00    -0.359 OA
HETATM   20  C3  UNL     1      -1.669   8.281  14.552  1.00  0.00     0.209 C 
ENDBRANCH  17  19
ENDBRANCH   4  17
BRANCH   6  21
HETATM   21  O2  UNL     1      -1.561   2.503  11.650  1.00  0.00    -0.391 OA
ATOM     22  H2  UNL     1      -0.749   2.649  11.177  1.00  0.00     0.210 HD
ENDBRANCH   6  21
BRANCH   7  23
HETATM   23  O3  UNL     1      -3.165   3.124   9.208  1.00  0.00    -0.369 OA
ATOM     24  H3  UNL     1      -2.913   2.269   8.879  1.00  0.00     0.212 HD
ENDBRANCH   7  23
ENDBRANCH   1   4
TORSDOF 5
ENDMDL
MODEL 2
REMARK VINA RESULT: -6.215387218      2.269      4.011
REMARK  5 active torsions:
REMARK  status: ('A' for Active; 'I' for Inactive)
REMARK    1  A    between atoms: C2_2  and  O1_3 
REMARK    2  A    between atoms: C2_2  and  C4_5 
REMARK    3  A    between atoms: C4_5  and  C5_6 
REMARK    4  A    between atoms: C9_10  and  O2_11 
REMARK    5  A    between atoms: C10_13  and  O3_14 
ROOT
HETATM    1  C5  UNL     1      -3.092   6.486  13.892  1.00  0.00    -0.089 C 
HETATM    2  C6  UNL     1      -2.413   7.348  14.403  1.00  0.00    -0.110 C 
HETATM    3  C7  UNL     1      -1.613   8.403  15.018  1.00  0.00     0.112 C 
ENDROOT
BRANCH   1   4
HETATM    4  C4  UNL     1      -3.942   5.440  13.242  1.00  0.00     0.084 C 
HETATM    5  C8  UNL     1      -4.176   5.927  11.872  1.00  0.00     0.067 C 
HETATM    6  C9  UNL     1      -4.615   4.975  10.836  1.00  0.00     0.175 C 
HETATM    7  C10 UNL     1      -3.369   4.423  10.165  1.00  0.00     0.288 C 
HETATM    8  O4  UNL     1      -2.391   4.348  11.143  1.00  0.00    -0.326 OA
HETATM    9  C11 UNL     1      -2.682   3.505  12.176  1.00  0.00     0.332 C 
HETATM   10  N1  UNL     1      -3.544   2.388  11.760  1.00  0.00    -0.046 N 
HETATM   11  C14 UNL     1      -3.281   4.108  13.381  1.00  0.00     0.105 C 
HETATM   12  C12 UNL     1      -4.033   1.832  13.006  1.00  0.00     0.273 C 
ATOM     13  H12 UNL     1      -4.279   2.649  11.102  1.00  0.00     0.280 HD
ATOM     14  H11 UNL     1      -3.085   1.710  11.152  1.00  0.00     0.280 HD
HETATM   15  C13 UNL     1      -4.204   3.037  13.923  1.00  0.00     0.206 C 
HETATM   16  F1  UNL     1      -3.863   2.621  15.194  1.00  0.00    -0.247 F 
BRANCH   4  17
HETATM   17  C2  UNL     1      -5.217   5.504  14.007  1.00  0.00     0.058 C 
HETATM   18  C1  UNL     1      -6.400   5.598  13.442  1.00  0.00     0.048 C 
BRANCH  17  19
HETATM   19  O1  UNL     1      -5.205   5.463  15.416  1.00  0.00    -0.359 OA
HETATM   20  C3  UNL     1      -6.221   4.872  16.162  1.00  0.00     0.209 C 
ENDBRANCH  17  19
ENDBRANCH   4  17
BRANCH   6  21
HETATM   21  O2  UNL     1      -5.292   5.700   9.825  1.00  0.00    -0.391 OA
ATOM     22  H2  UNL     1      -5.677   5.078   9.219  1.00  0.00     0.210 HD
ENDBRANCH   6  21
BRANCH   7  23
HETATM   23  O3  UNL     1      -3.576   3.284   9.449  1.00  0.00    -0.369 OA
ATOM     24  H3  UNL     1      -4.391   3.270   8.962  1.00  0.00     0.212 HD
ENDBRANCH   7  23
ENDBRANCH   1   4
TORSDOF 5
ENDMDL
MODEL 3
REMARK VINA RESULT: -6.124379652      2.288      4.246
REMARK  5 active torsions:
REMARK  status: ('A' for Active; 'I' for Inactive)
REMARK    1  A    between atoms: C2_2  and  O1_3 
REMARK    2  A    between atoms: C2_2  and  C4_5 
REMARK    3  A    between atoms: C4_5  and  C5_6 
REMARK    4  A    between atoms: C9_10  and  O2_11 
REMARK    5  A    between atoms: C10_13  and  O3_14 
ROOT
HETATM    1  C5  UNL     1      -3.230   7.154  12.013  1.00  0.00    -0.089 C 
HETATM    2  C6  UNL     1      -2.578   8.163  12.171  1.00  0.00    -0.110 C 
HETATM    3  C7  UNL     1      -1.777   9.365  12.374  1.00  0.00     0.112 C 
ENDROOT
BRANCH   1   4
HETATM    4  C4  UNL     1      -4.028   5.901  11.845  1.00  0.00     0.084 C 
HETATM    5  C8  UNL     1      -3.293   5.103  10.848  1.00  0.00     0.067 C 
HETATM    6  C9  UNL     1      -3.557   3.658  10.748  1.00  0.00     0.175 C 
HETATM    7  C10 UNL     1      -2.583   2.949  11.673  1.00  0.00     0.288 C 
HETATM    8  O4  UNL     1      -2.388   3.786  12.760  1.00  0.00    -0.326 OA
HETATM    9  C11 UNL     1      -3.509   4.036  13.494  1.00  0.00     0.332 C 
HETATM   10  N1  UNL     1      -4.466   2.919  13.454  1.00  0.00    -0.046 N 
HETATM   11  C14 UNL     1      -4.251   5.272  13.181  1.00  0.00     0.105 C 
HETATM   12  C12 UNL     1      -5.700   3.487  13.958  1.00  0.00     0.273 C 
ATOM     13  H12 UNL     1      -4.553   2.477  12.539  1.00  0.00     0.280 HD
ATOM     14  H11 UNL     1      -4.155   2.085  13.953  1.00  0.00     0.280 HD
HETATM   15  C13 UNL     1      -5.700   4.922  13.442  1.00  0.00     0.206 C 
HETATM   16  F1  UNL     1      -6.276   5.699  14.428  1.00  0.00    -0.247 F 
BRANCH   4  17
HETATM   17  C2  UNL     1      -5.303   6.378  11.244  1.00  0.00     0.058 C 
HETATM   18  C1  UNL     1      -6.051   7.319  11.777  1.00  0.00     0.048 C 
BRANCH  17  19
HETATM   19  O1  UNL     1      -5.774   5.822  10.037  1.00  0.00    -0.359 OA
HETATM   20  C3  UNL     1      -6.442   6.570   9.072  1.00  0.00     0.209 C 
ENDBRANCH  17  19
ENDBRANCH   4  17
BRANCH   6  21
HETATM   21  O2  UNL     1      -3.207   3.231   9.443  1.00  0.00    -0.391 OA
ATOM     22  H2  UNL     1      -3.955   2.785   9.065  1.00  0.00     0.210 HD
ENDBRANCH   6  21
BRANCH   7  23
HETATM   23  O3  UNL     1      -2.925   1.665  11.971  1.00  0.00    -0.369 OA
ATOM     24  H3  UNL     1      -2.187   1.078  12.078  1.00  0.00     0.212 HD
ENDBRANCH   7  23
ENDBRANCH   1   4
TORSDOF 5
ENDMDL
MODEL 4
REMARK VINA RESULT: -6.067267903      2.449      4.281
REMARK  5 active torsions:
REMARK  status: ('A' for Active; 'I' for Inactive)
REMARK    1  A    between atoms: C2_2  and  O1_3 
REMARK    2  A    between atoms: C2_2  and  C4_5 
REMARK    3  A    between atoms: C4_5  and  C5_6 
REMARK    4  A    between atoms: C9_10  and  O2_11 
REMARK    5  A    between atoms: C10_13  and  O3_14 
ROOT
HETATM    1  C5  UNL     1      -2.128   5.401  12.181  1.00  0.00    -0.089 C 
HETATM    2  C6  UNL     1      -1.037   5.923  12.231  1.00  0.00    -0.110 C 
HETATM    3  C7  UNL     1       0.270   6.571  12.278  1.00  0.00     0.112 C 
ENDROOT
BRANCH   1   4
HETATM    4  C4  UNL     1      -3.479   4.765  12.092  1.00  0.00     0.084 C 
HETATM    5  C8  UNL     1      -3.314   3.632  11.164  1.00  0.00     0.067 C 
HETATM    6  C9  UNL     1      -4.315   2.551  11.164  1.00  0.00     0.175 C 
HETATM    7  C10 UNL     1      -3.849   1.495  12.151  1.00  0.00     0.288 C 
HETATM    8  O4  UNL     1      -3.206   2.167  13.178  1.00  0.00    -0.326 OA
HETATM    9  C11 UNL     1      -3.998   3.030  13.877  1.00  0.00     0.332 C 
HETATM   10  N1  UNL     1      -5.405   2.602  13.904  1.00  0.00    -0.046 N 
HETATM   11  C14 UNL     1      -3.968   4.446  13.466  1.00  0.00     0.105 C 
HETATM   12  C12 UNL     1      -6.127   3.776  14.349  1.00  0.00     0.273 C 
ATOM     13  H12 UNL     1      -5.740   2.214  13.021  1.00  0.00     0.280 HD
ATOM     14  H11 UNL     1      -5.577   1.767  14.465  1.00  0.00     0.280 HD
HETATM   15  C13 UNL     1      -5.372   4.948  13.732  1.00  0.00     0.206 C 
HETATM   16  F1  UNL     1      -5.414   5.977  14.652  1.00  0.00    -0.247 F 
BRANCH   4  17
HETATM   17  C2  UNL     1      -4.314   5.810  11.440  1.00  0.00     0.058 C 
HETATM   18  C1  UNL     1      -4.292   7.079  11.786  1.00  0.00     0.048 C 
BRANCH  17  19
HETATM   19  O1  UNL     1      -5.191   5.470  10.390  1.00  0.00    -0.359 OA
HETATM   20  C3  UNL     1      -5.635   6.395   9.449  1.00  0.00     0.209 C 
ENDBRANCH  17  19
ENDBRANCH   4  17
BRANCH   6  21
HETATM   21  O2  UNL     1      -4.283   1.917   9.898  1.00  0.00    -0.391 OA
ATOM     22  H2  UNL     1      -4.964   1.254   9.879  1.00  0.00     0.210 HD
ENDBRANCH   6  21
BRANCH   7  23
HETATM   23  O3  UNL     1      -4.818   0.620  12.535  1.00  0.00    -0.369 OA
ATOM     24  H3  UNL     1      -5.194   0.802  13.388  1.00  0.00     0.212 HD
ENDBRANCH   7  23
ENDBRANCH   1   4
TORSDOF 5
ENDMDL
MODEL 5
REMARK VINA RESULT: -5.871770309      2.342      4.020
REMARK  5 active torsions:
REMARK  status: ('A' for Active; 'I' for Inactive)
REMARK    1  A    between atoms: C2_2  and  O1_3 
REMARK    2  A    between atoms: C2_2  and  C4_5 
REMARK    3  A    between atoms: C4_5  and  C5_6 
REMARK    4  A    between atoms: C9_10  and  O2_11 
REMARK    5  A    between atoms: C10_13  and  O3_14 
ROOT
HETATM    1  C5  UNL     1      -3.128   6.437  13.807  1.00  0.00    -0.089 C 
HETATM    2  C6  UNL     1      -2.473   7.304  14.341  1.00  0.00    -0.110 C 
HETATM    3  C7  UNL     1      -1.701   8.365  14.980  1.00  0.00     0.112 C 
ENDROOT
BRANCH   1   4
HETATM    4  C4  UNL     1      -3.947   5.384  13.130  1.00  0.00     0.084 C 
HETATM    5  C8  UNL     1      -4.131   5.865  11.749  1.00  0.00     0.067 C 
HETATM    6  C9  UNL     1      -4.524   4.907  10.702  1.00  0.00     0.175 C 
HETATM    7  C10 UNL     1      -3.251   4.359  10.081  1.00  0.00     0.288 C 
HETATM    8  O4  UNL     1      -2.311   4.292  11.096  1.00  0.00    -0.326 OA
HETATM    9  C11 UNL     1      -2.637   3.452  12.120  1.00  0.00     0.332 C 
HETATM   10  N1  UNL     1      -3.477   2.329  11.676  1.00  0.00    -0.046 N 
HETATM   11  C14 UNL     1      -3.285   4.056  13.299  1.00  0.00     0.105 C 
HETATM   12  C12 UNL     1      -4.011   1.774  12.904  1.00  0.00     0.273 C 
ATOM     13  H12 UNL     1      -4.187   2.584  10.989  1.00  0.00     0.280 HD
ATOM     14  H11 UNL     1      -2.991   1.651  11.088  1.00  0.00     0.280 HD
HETATM   15  C13 UNL     1      -4.223   2.982  13.809  1.00  0.00     0.206 C 
HETATM   16  F1  UNL     1      -3.929   2.572  15.094  1.00  0.00    -0.247 F 
BRANCH   4  17
HETATM   17  C2  UNL     1      -5.250   5.444  13.845  1.00  0.00     0.058 C 
HETATM   18  C1  UNL     1      -5.359   5.532  15.152  1.00  0.00     0.048 C 
BRANCH  17  19
HETATM   19  O1  UNL     1      -6.461   5.407  13.124  1.00  0.00    -0.359 OA
HETATM   20  C3  UNL     1      -7.344   6.482  13.077  1.00  0.00     0.209 C 
ENDBRANCH  17  19
ENDBRANCH   4  17
BRANCH   6  21
HETATM   21  O2  UNL     1      -5.165   5.625   9.662  1.00  0.00    -0.391 OA
ATOM     22  H2  UNL     1      -5.038   5.149   8.849  1.00  0.00     0.210 HD
ENDBRANCH   6  21
BRANCH   7  23
HETATM   23  O3  UNL     1      -3.424   3.216   9.362  1.00  0.00    -0.369 OA
ATOM     24  H3  UNL     1      -3.104   2.432   9.790  1.00  0.00     0.212 HD
ENDBRANCH   7  23
ENDBRANCH   1   4
TORSDOF 5
ENDMDL
