MODEL 1
REMARK VINA RESULT: -7.492891508      0.000      0.000
REMARK  10 active torsions:
REMARK  status: ('A' for Active; 'I' for Inactive)
REMARK    1  A    between atoms: N1_1  and  C1_4 
REMARK    2  A    between atoms: N5_13  and  C4_14 
REMARK    3  A    between atoms: C4_14  and  C5_15 
REMARK    4  A    between atoms: C5_15  and  C6_16 
REMARK    5  A    between atoms: C6_16  and  C7_17 
REMARK    6  A    between atoms: C7_17  and  N6_18 
REMARK    7  A    between atoms: N6_18  and  C8_20 
REMARK       I    between atoms: N7_23  and  C11_25 
REMARK       I    between atoms: C11_25  and  N8_26 
REMARK       I    between atoms: C11_25  and  N9_30 
REMARK    8  A    between atoms: C12_34  and  N10_35 
REMARK       I    between atoms: N10_35  and  C13_37 
REMARK    9  A    between atoms: C13_37  and  C14_39 
REMARK   10  A    between atoms: C14_39  and  N11_40 
ROOT
HETATM    1  C8  UNL     1    -126.888  32.788 125.944  1.00  0.00     0.104 A 
HETATM    2  C9  UNL     1    -127.113  31.598 125.330  1.00  0.00     0.080 A 
HETATM    3  C10 UNL     1    -127.288  31.502 123.908  1.00  0.00     0.065 A 
HETATM    4  N7  UNL     1    -127.506  30.380 123.440  1.00  0.00    -0.339 N 
ATOM      5  H7  UNL     1    -127.526  29.675 124.177  1.00  0.00     0.163 HD
HETATM    6  C11 UNL     1    -127.730  29.809 122.208  1.00  0.00     0.480 C 
HETATM    7  N8  UNL     1    -128.714  28.676 122.298  1.00  0.00    -0.033 N 
ATOM      8  H81 UNL     1    -128.880  28.253 121.385  1.00  0.00     0.278 HD
ATOM      9  H82 UNL     1    -129.586  28.972 122.737  1.00  0.00     0.278 HD
ATOM     10  H83 UNL     1    -128.420  27.980 122.984  1.00  0.00     0.278 HD
HETATM   11  N9  UNL     1    -126.528  29.138 121.648  1.00  0.00    -0.033 N 
ATOM     12  H91 UNL     1    -126.694  28.715 120.735  1.00  0.00     0.278 HD
ATOM     13  H92 UNL     1    -126.156  28.451 122.304  1.00  0.00     0.278 HD
ATOM     14  H93 UNL     1    -125.736  29.780 121.611  1.00  0.00     0.278 HD
HETATM   15  C12 UNL     1    -127.217  32.661 123.200  1.00  0.00     0.103 A 
HETATM   16  C15 UNL     1    -126.985  33.872 123.867  1.00  0.00     0.147 A 
HETATM   17  N12 UNL     1    -126.925  35.044 123.069  1.00  0.00    -0.080 NA
HETATM   18  N13 UNL     1    -126.827  33.918 125.198  1.00  0.00    -0.329 N 
ATOM     19  H13 UNL     1    -126.659  34.815 125.654  1.00  0.00     0.168 HD
ENDROOT
BRANCH   1  20
HETATM   20  N6  UNL     1    -126.713  32.876 127.377  1.00  0.00    -0.376 N 
ATOM     21  H6  UNL     1    -126.296  33.699 127.812  1.00  0.00     0.161 HD
BRANCH  20  22
HETATM   22  C7  UNL     1    -127.149  31.758 128.159  1.00  0.00     0.121 C 
BRANCH  22  23
HETATM   23  C6  UNL     1    -128.188  32.144 129.187  1.00  0.00     0.021 C 
BRANCH  23  24
HETATM   24  C5  UNL     1    -129.536  31.750 128.692  1.00  0.00     0.023 C 
BRANCH  24  25
HETATM   25  C4  UNL     1    -129.771  31.895 127.217  1.00  0.00     0.152 C 
BRANCH  25  26
HETATM   26  N5  UNL     1    -130.818  31.035 126.771  1.00  0.00    -0.260 N 
HETATM   27  C2  UNL     1    -131.316  29.898 127.208  1.00  0.00     0.172 A 
HETATM   28  N2  UNL     1    -131.038  29.125 128.272  1.00  0.00    -0.173 N 
HETATM   29  C3  UNL     1    -132.340  29.477 126.344  1.00  0.00     0.152 A 
HETATM   30  C1  UNL     1    -131.698  27.990 128.523  1.00  0.00     0.679 A 
ATOM     31  H2  UNL     1    -130.298  29.415 128.911  1.00  0.00     0.186 HD
HETATM   32  N14 UNL     1    -132.683  27.542 127.732  1.00  0.00    -0.164 N 
HETATM   33  C16 UNL     1    -132.977  28.306 126.656  1.00  0.00     0.234 A 
ATOM     34  H14 UNL     1    -133.183  26.675 127.930  1.00  0.00     0.186 HD
HETATM   35  F1  UNL     1    -133.966  27.895 125.825  1.00  0.00    -0.183 F 
HETATM   36  N3  UNL     1    -132.409  30.414 125.399  1.00  0.00    -0.278 N 
HETATM   37  N4  UNL     1    -131.511  31.335 125.651  1.00  0.00    -0.238 N 
ATOM     38  H3  UNL     1    -133.054  30.415 124.610  1.00  0.00     0.189 HD
ATOM     39  H4  UNL     1    -131.357  32.166 125.080  1.00  0.00     0.208 HD
BRANCH  30  40
HETATM   40  N1  UNL     1    -131.375  27.301 129.566  1.00  0.00    -0.234 N 
ATOM     41  H12 UNL     1    -131.783  27.553 130.466  1.00  0.00     0.174 HD
ATOM     42  H11 UNL     1    -130.722  26.525 129.459  1.00  0.00     0.174 HD
ENDBRANCH  30  40
ENDBRANCH  25  26
ENDBRANCH  24  25
ENDBRANCH  23  24
ENDBRANCH  22  23
ENDBRANCH  20  22
ENDBRANCH   1  20
BRANCH  15  43
HETATM   43  N10 UNL     1    -127.327  32.737 121.811  1.00  0.00    -0.321 N 
HETATM   44  C13 UNL     1    -128.482  33.096 121.101  1.00  0.00     0.247 C 
HETATM   45  O1  UNL     1    -129.526  33.381 121.722  1.00  0.00    -0.271 OA
ATOM     46  H10 UNL     1    -126.495  32.512 121.265  1.00  0.00     0.169 HD
BRANCH  44  47
HETATM   47  C14 UNL     1    -128.489  33.145 119.628  1.00  0.00     0.332 C 
BRANCH  47  48
HETATM   48  N11 UNL     1    -128.652  34.489 119.119  1.00  0.00    -0.071 N 
ATOM     49 3H11 UNL     1    -129.439  34.544 118.473  1.00  0.00     0.274 HD
ATOM     50 2H11 UNL     1    -128.991  35.117 119.847  1.00  0.00     0.274 HD
ATOM     51 1H11 UNL     1    -127.799  34.849 118.691  1.00  0.00     0.274 HD
ENDBRANCH  47  48
ENDBRANCH  44  47
ENDBRANCH  15  43
TORSDOF 10
ENDMDL
MODEL 2
REMARK VINA RESULT: -7.338845431      2.968      7.935
REMARK  10 active torsions:
REMARK  status: ('A' for Active; 'I' for Inactive)
REMARK    1  A    between atoms: N1_1  and  C1_4 
REMARK    2  A    between atoms: N5_13  and  C4_14 
REMARK    3  A    between atoms: C4_14  and  C5_15 
REMARK    4  A    between atoms: C5_15  and  C6_16 
REMARK    5  A    between atoms: C6_16  and  C7_17 
REMARK    6  A    between atoms: C7_17  and  N6_18 
REMARK    7  A    between atoms: N6_18  and  C8_20 
REMARK       I    between atoms: N7_23  and  C11_25 
REMARK       I    between atoms: C11_25  and  N8_26 
REMARK       I    between atoms: C11_25  and  N9_30 
REMARK    8  A    between atoms: C12_34  and  N10_35 
REMARK       I    between atoms: N10_35  and  C13_37 
REMARK    9  A    between atoms: C13_37  and  C14_39 
REMARK   10  A    between atoms: C14_39  and  N11_40 
ROOT
HETATM    1  C8  UNL     1    -129.588  32.298 126.278  1.00  0.00     0.104 A 
HETATM    2  C9  UNL     1    -130.686  31.634 125.835  1.00  0.00     0.080 A 
HETATM    3  C10 UNL     1    -131.386  30.693 126.663  1.00  0.00     0.065 A 
HETATM    4  N7  UNL     1    -132.363  30.122 126.168  1.00  0.00    -0.339 N 
ATOM      5  H7  UNL     1    -132.517  30.430 125.208  1.00  0.00     0.163 HD
HETATM    6  C11 UNL     1    -133.303  29.189 126.542  1.00  0.00     0.480 C 
HETATM    7  N8  UNL     1    -133.677  28.294 125.393  1.00  0.00    -0.033 N 
ATOM      8  H81 UNL     1    -134.374  27.603 125.670  1.00  0.00     0.278 HD
ATOM      9  H82 UNL     1    -132.855  27.852 124.982  1.00  0.00     0.278 HD
ATOM     10  H83 UNL     1    -133.987  28.834 124.585  1.00  0.00     0.278 HD
HETATM   11  N9  UNL     1    -134.612  29.794 126.908  1.00  0.00    -0.033 N 
ATOM     12  H91 UNL     1    -135.309  29.103 127.185  1.00  0.00     0.278 HD
ATOM     13  H92 UNL     1    -134.964  30.383 126.153  1.00  0.00     0.278 HD
ATOM     14  H93 UNL     1    -134.496  30.502 127.632  1.00  0.00     0.278 HD
HETATM   15  C12 UNL     1    -130.899  30.497 127.917  1.00  0.00     0.103 A 
HETATM   16  C15 UNL     1    -129.763  31.198 128.342  1.00  0.00     0.147 A 
HETATM   17  N12 UNL     1    -129.307  30.945 129.662  1.00  0.00    -0.080 NA
HETATM   18  N13 UNL     1    -129.137  32.070 127.536  1.00  0.00    -0.329 N 
ATOM     19  H13 UNL     1    -128.313  32.566 127.875  1.00  0.00     0.168 HD
ENDROOT
BRANCH   1  20
HETATM   20  N6  UNL     1    -128.888  33.245 125.438  1.00  0.00    -0.376 N 
ATOM     21  H6  UNL     1    -129.385  33.825 124.762  1.00  0.00     0.161 HD
BRANCH  20  22
HETATM   22  C7  UNL     1    -127.467  33.332 125.594  1.00  0.00     0.121 C 
BRANCH  22  23
HETATM   23  C6  UNL     1    -126.766  32.047 125.216  1.00  0.00     0.021 C 
BRANCH  23  24
HETATM   24  C5  UNL     1    -127.563  31.344 124.172  1.00  0.00     0.023 C 
BRANCH  24  25
HETATM   25  C4  UNL     1    -126.913  31.195 122.829  1.00  0.00     0.152 C 
BRANCH  25  26
HETATM   26  N5  UNL     1    -127.483  32.090 121.875  1.00  0.00    -0.260 N 
HETATM   27  C2  UNL     1    -127.643  33.396 121.827  1.00  0.00     0.172 A 
HETATM   28  N2  UNL     1    -127.296  34.392 122.659  1.00  0.00    -0.173 N 
HETATM   29  C3  UNL     1    -128.308  33.739 120.637  1.00  0.00     0.152 A 
HETATM   30  C1  UNL     1    -127.561  35.674 122.389  1.00  0.00     0.679 A 
ATOM     31  H2  UNL     1    -126.812  34.162 123.527  1.00  0.00     0.186 HD
HETATM   32  N14 UNL     1    -128.193  36.057 121.270  1.00  0.00    -0.164 N 
HETATM   33  C16 UNL     1    -128.550  35.068 120.421  1.00  0.00     0.234 A 
ATOM     34  H14 UNL     1    -128.392  37.037 121.071  1.00  0.00     0.186 HD
HETATM   35  F1  UNL     1    -129.191  35.405 119.274  1.00  0.00    -0.183 F 
HETATM   36  N3  UNL     1    -128.521  32.583 120.009  1.00  0.00    -0.278 N 
HETATM   37  N4  UNL     1    -128.033  31.609 120.738  1.00  0.00    -0.238 N 
ATOM     38  H3  UNL     1    -128.986  32.474 119.109  1.00  0.00     0.189 HD
ATOM     39  H4  UNL     1    -128.065  30.622 120.483  1.00  0.00     0.208 HD
BRANCH  30  40
HETATM   40  N1  UNL     1    -127.196  36.576 123.237  1.00  0.00    -0.234 N 
ATOM     41  H12 UNL     1    -126.762  36.281 124.112  1.00  0.00     0.174 HD
ATOM     42  H11 UNL     1    -127.352  37.558 123.008  1.00  0.00     0.174 HD
ENDBRANCH  30  40
ENDBRANCH  25  26
ENDBRANCH  24  25
ENDBRANCH  23  24
ENDBRANCH  22  23
ENDBRANCH  20  22
ENDBRANCH   1  20
BRANCH  15  43
HETATM   43  N10 UNL     1    -131.482  29.648 128.859  1.00  0.00    -0.321 N 
HETATM   44  C13 UNL     1    -131.319  28.256 128.917  1.00  0.00     0.247 C 
HETATM   45  O1  UNL     1    -130.599  27.682 128.073  1.00  0.00    -0.271 OA
ATOM     46  H10 UNL     1    -132.080  30.076 129.566  1.00  0.00     0.169 HD
BRANCH  44  47
HETATM   47  C14 UNL     1    -131.984  27.450 129.957  1.00  0.00     0.332 C 
BRANCH  47  48
HETATM   48  N11 UNL     1    -132.968  26.543 129.410  1.00  0.00    -0.071 N 
ATOM     49 3H11 UNL     1    -132.633  26.116 128.546  1.00  0.00     0.274 HD
ATOM     50 2H11 UNL     1    -133.053  25.705 129.985  1.00  0.00     0.274 HD
ATOM     51 1H11 UNL     1    -133.875  26.988 129.273  1.00  0.00     0.274 HD
ENDBRANCH  47  48
ENDBRANCH  44  47
ENDBRANCH  15  43
TORSDOF 10
ENDMDL
MODEL 3
REMARK VINA RESULT: -7.258330223      1.091      2.820
REMARK  10 active torsions:
REMARK  status: ('A' for Active; 'I' for Inactive)
REMARK    1  A    between atoms: N1_1  and  C1_4 
REMARK    2  A    between atoms: N5_13  and  C4_14 
REMARK    3  A    between atoms: C4_14  and  C5_15 
REMARK    4  A    between atoms: C5_15  and  C6_16 
REMARK    5  A    between atoms: C6_16  and  C7_17 
REMARK    6  A    between atoms: C7_17  and  N6_18 
REMARK    7  A    between atoms: N6_18  and  C8_20 
REMARK       I    between atoms: N7_23  and  C11_25 
REMARK       I    between atoms: C11_25  and  N8_26 
REMARK       I    between atoms: C11_25  and  N9_30 
REMARK    8  A    between atoms: C12_34  and  N10_35 
REMARK       I    between atoms: N10_35  and  C13_37 
REMARK    9  A    between atoms: C13_37  and  C14_39 
REMARK   10  A    between atoms: C14_39  and  N11_40 
ROOT
HETATM    1  C8  UNL     1    -127.390  31.944 125.369  1.00  0.00     0.104 A 
HETATM    2  C9  UNL     1    -127.433  33.257 125.029  1.00  0.00     0.080 A 
HETATM    3  C10 UNL     1    -127.416  33.683 123.657  1.00  0.00     0.065 A 
HETATM    4  N7  UNL     1    -127.439  34.900 123.443  1.00  0.00    -0.339 N 
ATOM      5  H7  UNL     1    -127.468  35.423 124.319  1.00  0.00     0.163 HD
HETATM    6  C11 UNL     1    -127.436  35.751 122.362  1.00  0.00     0.480 C 
HETATM    7  N8  UNL     1    -126.656  37.003 122.649  1.00  0.00    -0.033 N 
ATOM      8  H81 UNL     1    -126.654  37.634 121.848  1.00  0.00     0.278 HD
ATOM      9  H82 UNL     1    -125.708  36.790 122.959  1.00  0.00     0.278 HD
ATOM     10  H83 UNL     1    -126.996  37.469 123.491  1.00  0.00     0.278 HD
HETATM   11  N9  UNL     1    -128.785  36.288 122.038  1.00  0.00    -0.033 N 
ATOM     12  H91 UNL     1    -128.783  36.918 121.237  1.00  0.00     0.278 HD
ATOM     13  H92 UNL     1    -129.202  36.737 122.853  1.00  0.00     0.278 HD
ATOM     14  H93 UNL     1    -129.455  35.531 121.903  1.00  0.00     0.278 HD
HETATM   15  C12 UNL     1    -127.357  32.708 122.711  1.00  0.00     0.103 A 
HETATM   16  C15 UNL     1    -127.313  31.363 123.098  1.00  0.00     0.147 A 
HETATM   17  N12 UNL     1    -127.251  30.397 122.061  1.00  0.00    -0.080 NA
HETATM   18  N13 UNL     1    -127.330  31.006 124.392  1.00  0.00    -0.329 N 
ATOM     19  H13 UNL     1    -127.298  30.018 124.642  1.00  0.00     0.168 HD
ENDROOT
BRANCH   1  20
HETATM   20  N6  UNL     1    -127.407  31.522 126.753  1.00  0.00    -0.376 N 
ATOM     21  H6  UNL     1    -127.789  30.617 127.028  1.00  0.00     0.161 HD
BRANCH  20  22
HETATM   22  C7  UNL     1    -126.866  32.430 127.719  1.00  0.00     0.121 C 
BRANCH  22  23
HETATM   23  C6  UNL     1    -127.535  32.302 129.069  1.00  0.00     0.021 C 
BRANCH  23  24
HETATM   24  C5  UNL     1    -128.668  31.341 128.963  1.00  0.00     0.023 C 
BRANCH  24  25
HETATM   25  C4  UNL     1    -130.040  31.939 128.872  1.00  0.00     0.152 C 
BRANCH  25  26
HETATM   26  N5  UNL     1    -130.817  31.304 127.857  1.00  0.00    -0.260 N 
HETATM   27  C2  UNL     1    -131.484  30.171 127.791  1.00  0.00     0.172 A 
HETATM   28  N2  UNL     1    -131.712  29.189 128.680  1.00  0.00    -0.173 N 
HETATM   29  C3  UNL     1    -132.049  30.039 126.511  1.00  0.00     0.152 A 
HETATM   30  C1  UNL     1    -132.445  28.112 128.383  1.00  0.00     0.679 A 
ATOM     31  H2  UNL     1    -131.310  29.268 129.614  1.00  0.00     0.186 HD
HETATM   32  N14 UNL     1    -133.007  27.935 127.178  1.00  0.00    -0.164 N 
HETATM   33  C16 UNL     1    -132.789  28.913 126.271  1.00  0.00     0.234 A 
ATOM     34  H14 UNL     1    -133.566  27.110 126.959  1.00  0.00     0.186 HD
HETATM   35  F1  UNL     1    -133.336  28.780 125.037  1.00  0.00    -0.183 F 
HETATM   36  N3  UNL     1    -131.680  31.136 125.851  1.00  0.00    -0.278 N 
HETATM   37  N4  UNL     1    -130.953  31.884 126.645  1.00  0.00    -0.238 N 
ATOM     38  H3  UNL     1    -131.923  31.357 124.886  1.00  0.00     0.189 HD
ATOM     39  H4  UNL     1    -130.547  32.781 126.383  1.00  0.00     0.208 HD
BRANCH  30  40
HETATM   40  N1  UNL     1    -132.621  27.210 129.289  1.00  0.00    -0.234 N 
ATOM     41  H12 UNL     1    -133.385  27.325 129.955  1.00  0.00     0.174 HD
ATOM     42  H11 UNL     1    -131.990  26.408 129.313  1.00  0.00     0.174 HD
ENDBRANCH  30  40
ENDBRANCH  25  26
ENDBRANCH  24  25
ENDBRANCH  23  24
ENDBRANCH  22  23
ENDBRANCH  20  22
ENDBRANCH   1  20
BRANCH  15  43
HETATM   43  N10 UNL     1    -127.372  32.951 121.337  1.00  0.00    -0.321 N 
HETATM   44  C13 UNL     1    -128.511  33.228 120.567  1.00  0.00     0.247 C 
HETATM   45  O1  UNL     1    -129.632  33.271 121.116  1.00  0.00    -0.271 OA
ATOM     46  H10 UNL     1    -126.475  32.925 120.849  1.00  0.00     0.169 HD
BRANCH  44  47
HETATM   47  C14 UNL     1    -128.414  33.470 119.117  1.00  0.00     0.332 C 
BRANCH  47  48
HETATM   48  N11 UNL     1    -128.570  34.867 118.777  1.00  0.00    -0.071 N 
ATOM     49 3H11 UNL     1    -127.832  35.432 119.198  1.00  0.00     0.274 HD
ATOM     50 2H11 UNL     1    -128.361  35.030 117.792  1.00  0.00     0.274 HD
ATOM     51 1H11 UNL     1    -129.492  35.227 119.022  1.00  0.00     0.274 HD
ENDBRANCH  47  48
ENDBRANCH  44  47
ENDBRANCH  15  43
TORSDOF 10
ENDMDL
MODEL 4
REMARK VINA RESULT: -6.945793424      1.274      1.320
REMARK  10 active torsions:
REMARK  status: ('A' for Active; 'I' for Inactive)
REMARK    1  A    between atoms: N1_1  and  C1_4 
REMARK    2  A    between atoms: N5_13  and  C4_14 
REMARK    3  A    between atoms: C4_14  and  C5_15 
REMARK    4  A    between atoms: C5_15  and  C6_16 
REMARK    5  A    between atoms: C6_16  and  C7_17 
REMARK    6  A    between atoms: C7_17  and  N6_18 
REMARK    7  A    between atoms: N6_18  and  C8_20 
REMARK       I    between atoms: N7_23  and  C11_25 
REMARK       I    between atoms: C11_25  and  N8_26 
REMARK       I    between atoms: C11_25  and  N9_30 
REMARK    8  A    between atoms: C12_34  and  N10_35 
REMARK       I    between atoms: N10_35  and  C13_37 
REMARK    9  A    between atoms: C13_37  and  C14_39 
REMARK   10  A    between atoms: C14_39  and  N11_40 
ROOT
HETATM    1  C8  UNL     1    -126.610  32.635 125.742  1.00  0.00     0.104 A 
HETATM    2  C9  UNL     1    -126.650  31.766 124.700  1.00  0.00     0.080 A 
HETATM    3  C10 UNL     1    -127.289  32.103 123.459  1.00  0.00     0.065 A 
HETATM    4  N7  UNL     1    -127.293  31.242 122.574  1.00  0.00    -0.339 N 
ATOM      5  H7  UNL     1    -126.818  30.395 122.887  1.00  0.00     0.163 HD
HETATM    6  C11 UNL     1    -127.754  31.098 121.285  1.00  0.00     0.480 C 
HETATM    7  N8  UNL     1    -128.222  29.694 121.021  1.00  0.00    -0.033 N 
ATOM      8  H81 UNL     1    -128.564  29.587 120.067  1.00  0.00     0.278 HD
ATOM      9  H82 UNL     1    -128.921  29.399 121.703  1.00  0.00     0.278 HD
ATOM     10  H83 UNL     1    -127.495  29.012 121.236  1.00  0.00     0.278 HD
HETATM   11  N9  UNL     1    -126.690  31.272 120.261  1.00  0.00    -0.033 N 
ATOM     12  H91 UNL     1    -127.032  31.166 119.306  1.00  0.00     0.278 HD
ATOM     13  H92 UNL     1    -125.907  30.642 120.439  1.00  0.00     0.278 HD
ATOM     14  H93 UNL     1    -126.214  32.166 120.379  1.00  0.00     0.278 HD
HETATM   15  C12 UNL     1    -127.853  33.337 123.373  1.00  0.00     0.103 A 
HETATM   16  C15 UNL     1    -127.793  34.209 124.468  1.00  0.00     0.147 A 
HETATM   17  N12 UNL     1    -128.403  35.481 124.311  1.00  0.00    -0.080 NA
HETATM   18  N13 UNL     1    -127.187  33.855 125.611  1.00  0.00    -0.329 N 
ATOM     19  H13 UNL     1    -127.160  34.512 126.391  1.00  0.00     0.168 HD
ENDROOT
BRANCH   1  20
HETATM   20  N6  UNL     1    -125.965  32.288 126.990  1.00  0.00    -0.376 N 
ATOM     21  H6  UNL     1    -125.080  31.782 127.008  1.00  0.00     0.161 HD
BRANCH  20  22
HETATM   22  C7  UNL     1    -126.622  32.687 128.198  1.00  0.00     0.121 C 
BRANCH  22  23
HETATM   23  C6  UNL     1    -127.711  31.722 128.608  1.00  0.00     0.021 C 
BRANCH  23  24
HETATM   24  C5  UNL     1    -128.977  32.091 127.915  1.00  0.00     0.023 C 
BRANCH  24  25
HETATM   25  C4  UNL     1    -130.250  31.723 128.619  1.00  0.00     0.152 C 
BRANCH  25  26
HETATM   26  N5  UNL     1    -131.106  30.956 127.774  1.00  0.00    -0.260 N 
HETATM   27  C2  UNL     1    -131.664  29.768 127.875  1.00  0.00     0.172 A 
HETATM   28  N2  UNL     1    -131.658  28.832 128.840  1.00  0.00    -0.173 N 
HETATM   29  C3  UNL     1    -132.401  29.500 126.709  1.00  0.00     0.152 A 
HETATM   30  C1  UNL     1    -132.321  27.678 128.720  1.00  0.00     0.679 A 
ATOM     31  H2  UNL     1    -131.130  29.009 129.694  1.00  0.00     0.186 HD
HETATM   32  N14 UNL     1    -133.039  27.371 127.630  1.00  0.00    -0.164 N 
HETATM   33  C16 UNL     1    -133.057  28.301 126.648  1.00  0.00     0.234 A 
ATOM     34  H14 UNL     1    -133.543  26.488 127.545  1.00  0.00     0.186 HD
HETATM   35  F1  UNL     1    -133.769  28.037 125.525  1.00  0.00    -0.183 F 
HETATM   36  N3  UNL     1    -132.244  30.578 125.940  1.00  0.00    -0.278 N 
HETATM   37  N4  UNL     1    -131.481  31.438 126.569  1.00  0.00    -0.238 N 
ATOM     38  H3  UNL     1    -132.650  30.711 125.015  1.00  0.00     0.189 HD
ATOM     39  H4  UNL     1    -131.207  32.347 126.199  1.00  0.00     0.208 HD
BRANCH  30  40
HETATM   40  N1  UNL     1    -132.270  26.827 129.690  1.00  0.00    -0.234 N 
ATOM     41  H12 UNL     1    -132.663  25.897 129.548  1.00  0.00     0.174 HD
ATOM     42  H11 UNL     1    -131.838  27.110 130.569  1.00  0.00     0.174 HD
ENDBRANCH  30  40
ENDBRANCH  25  26
ENDBRANCH  24  25
ENDBRANCH  23  24
ENDBRANCH  22  23
ENDBRANCH  20  22
ENDBRANCH   1  20
BRANCH  15  43
HETATM   43  N10 UNL     1    -128.477  33.833 122.227  1.00  0.00    -0.321 N 
HETATM   44  C13 UNL     1    -128.037  34.924 121.463  1.00  0.00     0.247 C 
HETATM   45  O1  UNL     1    -127.001  35.536 121.799  1.00  0.00    -0.271 OA
ATOM     46  H10 UNL     1    -129.327  33.362 121.919  1.00  0.00     0.169 HD
BRANCH  44  47
HETATM   47  C14 UNL     1    -128.774  35.367 120.266  1.00  0.00     0.332 C 
BRANCH  47  48
HETATM   48  N11 UNL     1    -128.771  34.374 119.216  1.00  0.00    -0.071 N 
ATOM     49 3H11 UNL     1    -128.460  34.775 118.331  1.00  0.00     0.274 HD
ATOM     50 2H11 UNL     1    -128.026  33.692 119.358  1.00  0.00     0.274 HD
ATOM     51 1H11 UNL     1    -129.675  33.913 119.112  1.00  0.00     0.274 HD
ENDBRANCH  47  48
ENDBRANCH  44  47
ENDBRANCH  15  43
TORSDOF 10
ENDMDL
MODEL 5
REMARK VINA RESULT: -6.837166569      1.195      1.228
REMARK  10 active torsions:
REMARK  status: ('A' for Active; 'I' for Inactive)
REMARK    1  A    between atoms: N1_1  and  C1_4 
REMARK    2  A    between atoms: N5_13  and  C4_14 
REMARK    3  A    between atoms: C4_14  and  C5_15 
REMARK    4  A    between atoms: C5_15  and  C6_16 
REMARK    5  A    between atoms: C6_16  and  C7_17 
REMARK    6  A    between atoms: C7_17  and  N6_18 
REMARK    7  A    between atoms: N6_18  and  C8_20 
REMARK       I    between atoms: N7_23  and  C11_25 
REMARK       I    between atoms: C11_25  and  N8_26 
REMARK       I    between atoms: C11_25  and  N9_30 
REMARK    8  A    between atoms: C12_34  and  N10_35 
REMARK       I    between atoms: N10_35  and  C13_37 
REMARK    9  A    between atoms: C13_37  and  C14_39 
REMARK   10  A    between atoms: C14_39  and  N11_40 
ROOT
HETATM    1  C8  UNL     1    -126.799  32.789 125.837  1.00  0.00     0.104 A 
HETATM    2  C9  UNL     1    -127.026  31.600 125.222  1.00  0.00     0.080 A 
HETATM    3  C10 UNL     1    -127.258  31.513 123.807  1.00  0.00     0.065 A 
HETATM    4  N7  UNL     1    -127.474  30.391 123.339  1.00  0.00    -0.339 N 
ATOM      5  H7  UNL     1    -127.450  29.680 124.070  1.00  0.00     0.163 HD
HETATM    6  C11 UNL     1    -127.738  29.826 122.112  1.00  0.00     0.480 C 
HETATM    7  N8  UNL     1    -128.695  28.673 122.232  1.00  0.00    -0.033 N 
ATOM      8  H81 UNL     1    -128.891  28.255 121.323  1.00  0.00     0.278 HD
ATOM      9  H82 UNL     1    -129.554  28.949 122.709  1.00  0.00     0.278 HD
ATOM     10  H83 UNL     1    -128.361  27.978 122.899  1.00  0.00     0.278 HD
HETATM   11  N9  UNL     1    -126.547  29.182 121.497  1.00  0.00    -0.033 N 
ATOM     12  H91 UNL     1    -126.743  28.764 120.588  1.00  0.00     0.278 HD
ATOM     13  H92 UNL     1    -126.135  28.498 122.131  1.00  0.00     0.278 HD
ATOM     14  H93 UNL     1    -125.770  29.840 121.434  1.00  0.00     0.278 HD
HETATM   15  C12 UNL     1    -127.238  32.679 123.108  1.00  0.00     0.103 A 
HETATM   16  C15 UNL     1    -127.002  33.889 123.775  1.00  0.00     0.147 A 
HETATM   17  N12 UNL     1    -126.996  35.068 122.986  1.00  0.00    -0.080 NA
HETATM   18  N13 UNL     1    -126.790  33.927 125.099  1.00  0.00    -0.329 N 
ATOM     19  H13 UNL     1    -126.619  34.823 125.556  1.00  0.00     0.168 HD
ENDROOT
BRANCH   1  20
HETATM   20  N6  UNL     1    -126.566  32.869 127.262  1.00  0.00    -0.376 N 
ATOM     21  H6  UNL     1    -126.150  33.698 127.688  1.00  0.00     0.161 HD
BRANCH  20  22
HETATM   22  C7  UNL     1    -126.944  31.734 128.051  1.00  0.00     0.121 C 
BRANCH  22  23
HETATM   23  C6  UNL     1    -127.848  32.109 129.203  1.00  0.00     0.021 C 
BRANCH  23  24
HETATM   24  C5  UNL     1    -129.246  31.707 128.878  1.00  0.00     0.023 C 
BRANCH  24  25
HETATM   25  C4  UNL     1    -129.864  32.366 127.681  1.00  0.00     0.152 C 
BRANCH  25  26
HETATM   26  N5  UNL     1    -130.618  31.433 126.908  1.00  0.00    -0.260 N 
HETATM   27  C2  UNL     1    -131.758  30.801 127.093  1.00  0.00     0.172 A 
HETATM   28  N2  UNL     1    -132.666  30.823 128.083  1.00  0.00    -0.173 N 
HETATM   29  C3  UNL     1    -132.010  29.966 125.992  1.00  0.00     0.152 A 
HETATM   30  C1  UNL     1    -133.779  30.084 128.048  1.00  0.00     0.679 A 
ATOM     31  H2  UNL     1    -132.500  31.424 128.890  1.00  0.00     0.186 HD
HETATM   32  N14 UNL     1    -134.069  29.270 127.023  1.00  0.00    -0.164 N 
HETATM   33  C16 UNL     1    -133.167  29.236 126.017  1.00  0.00     0.234 A 
ATOM     34  H14 UNL     1    -134.922  28.710 127.003  1.00  0.00     0.186 HD
HETATM   35  F1  UNL     1    -133.416  28.427 124.957  1.00  0.00    -0.183 F 
HETATM   36  N3  UNL     1    -130.974  30.144 125.173  1.00  0.00    -0.278 N 
HETATM   37  N4  UNL     1    -130.153  31.011 125.712  1.00  0.00    -0.238 N 
ATOM     38  H3  UNL     1    -130.843  29.682 124.273  1.00  0.00     0.189 HD
ATOM     39  H4  UNL     1    -129.281  31.324 125.287  1.00  0.00     0.208 HD
BRANCH  30  40
HETATM   40  N1  UNL     1    -134.606  30.158 129.037  1.00  0.00    -0.234 N 
ATOM     41  H12 UNL     1    -135.604  30.058 128.850  1.00  0.00     0.174 HD
ATOM     42  H11 UNL     1    -134.238  30.315 129.975  1.00  0.00     0.174 HD
ENDBRANCH  30  40
ENDBRANCH  25  26
ENDBRANCH  24  25
ENDBRANCH  23  24
ENDBRANCH  22  23
ENDBRANCH  20  22
ENDBRANCH   1  20
BRANCH  15  43
HETATM   43  N10 UNL     1    -127.407  32.764 121.726  1.00  0.00    -0.321 N 
HETATM   44  C13 UNL     1    -128.588  33.135 121.067  1.00  0.00     0.247 C 
HETATM   45  O1  UNL     1    -129.604  33.421 121.734  1.00  0.00    -0.271 OA
ATOM     46  H10 UNL     1    -126.600  32.538 121.143  1.00  0.00     0.169 HD
BRANCH  44  47
HETATM   47  C14 UNL     1    -128.659  33.193 119.596  1.00  0.00     0.332 C 
BRANCH  47  48
HETATM   48  N11 UNL     1    -128.594  34.546 119.092  1.00  0.00    -0.071 N 
ATOM     49 3H11 UNL     1    -129.433  35.071 119.338  1.00  0.00     0.274 HD
ATOM     50 2H11 UNL     1    -127.901  35.094 119.602  1.00  0.00     0.274 HD
ATOM     51 1H11 UNL     1    -128.421  34.580 118.087  1.00  0.00     0.274 HD
ENDBRANCH  47  48
ENDBRANCH  44  47
ENDBRANCH  15  43
TORSDOF 10
ENDMDL
