MODEL 1
REMARK VINA RESULT: -6.993432387      0.000      0.000
REMARK  10 active torsions:
REMARK  status: ('A' for Active; 'I' for Inactive)
REMARK    1  A    between atoms: C2_2  and  S1_3 
REMARK    2  A    between atoms: S1_3  and  C3_4 
REMARK    3  A    between atoms: C3_4  and  C4_6 
REMARK    4  A    between atoms: C5_7  and  O2_8 
REMARK    5  A    between atoms: C6_10  and  C7_11 
REMARK    6  A    between atoms: C9_14  and  O4_15 
REMARK    7  A    between atoms: C10_17  and  C11_18 
REMARK    8  A    between atoms: C11_18  and  C13_20 
REMARK    9  A    between atoms: C14_22  and  O5_23 
REMARK   10  A    between atoms: O5_23  and  C15_24 
ROOT
HETATM    1  C4  UNL     1      22.342   6.185  21.639  1.00  0.00     0.090 A 
HETATM    2  C5  UNL     1      22.200   6.808  20.395  1.00  0.00     0.100 A 
HETATM    3  C6  UNL     1      21.398   7.969  20.308  1.00  0.00     0.077 A 
HETATM    4  C9  UNL     1      20.785   8.445  21.441  1.00  0.00     0.095 A 
HETATM    5  C10 UNL     1      20.935   7.814  22.706  1.00  0.00     0.036 A 
HETATM    6  C14 UNL     1      21.716   6.685  22.788  1.00  0.00     0.110 A 
ENDROOT
BRANCH   1   7
HETATM    7  C3  UNL     1      23.197   5.028  21.781  1.00  0.00     0.224 C 
HETATM    8  O1  UNL     1      24.364   5.062  22.278  1.00  0.00    -0.280 OA
BRANCH   7   9
HETATM    9  S1  UNL     1      22.725   3.365  21.249  1.00  0.00    -0.087 SA
BRANCH   9  10
HETATM   10  C2  UNL     1      23.254   3.181  19.489  1.00  0.00     0.078 C 
HETATM   11  C1  UNL     1      24.773   3.050  19.483  1.00  0.00     0.016 C 
ENDBRANCH   9  10
ENDBRANCH   7   9
ENDBRANCH   1   7
BRANCH   2  12
HETATM   12  O2  UNL     1      22.758   6.403  19.259  1.00  0.00    -0.358 OA
ATOM     13  H2  UNL     1      22.332   6.384  18.410  1.00  0.00     0.217 HD
ENDBRANCH   2  12
BRANCH   6  14
HETATM   14  O5  UNL     1      21.876   6.072  24.030  1.00  0.00    -0.277 OA
BRANCH  14  15
HETATM   15  C15 UNL     1      21.065   5.015  24.470  1.00  0.00     0.260 C 
HETATM   16  C16 UNL     1      21.198   4.607  25.911  1.00  0.00     0.126 C 
HETATM   17  O6  UNL     1      20.291   4.479  23.669  1.00  0.00    -0.265 OA
ENDBRANCH  14  15
ENDBRANCH   6  14
BRANCH   3  18
HETATM   18  C7  UNL     1      21.241   8.628  19.031  1.00  0.00     0.161 C 
HETATM   19  C8  UNL     1      19.996   9.188  18.465  1.00  0.00     0.097 C 
HETATM   20  O3  UNL     1      22.280   8.754  18.295  1.00  0.00    -0.293 OA
ENDBRANCH   3  18
BRANCH   5  21
HETATM   21  C11 UNL     1      20.392   8.457  23.918  1.00  0.00    -0.054 C 
HETATM   22  C12 UNL     1      21.311   9.356  24.664  1.00  0.00     0.046 C 
BRANCH  21  23
HETATM   23  C13 UNL     1      19.397   7.695  24.666  1.00  0.00     0.149 C 
HETATM   24 CL1  UNL     1      18.945   8.537  26.212  1.00  0.00    -0.126 Cl
ENDBRANCH  21  23
ENDBRANCH   5  21
BRANCH   4  25
HETATM   25  O4  UNL     1      20.013   9.520  21.320  1.00  0.00    -0.359 OA
ATOM     26  H4  UNL     1      19.112   9.451  21.611  1.00  0.00     0.217 HD
ENDBRANCH   4  25
TORSDOF 10
ENDMDL
MODEL 2
REMARK VINA RESULT: -6.967267505      6.592     10.094
REMARK  10 active torsions:
REMARK  status: ('A' for Active; 'I' for Inactive)
REMARK    1  A    between atoms: C2_2  and  S1_3 
REMARK    2  A    between atoms: S1_3  and  C3_4 
REMARK    3  A    between atoms: C3_4  and  C4_6 
REMARK    4  A    between atoms: C5_7  and  O2_8 
REMARK    5  A    between atoms: C6_10  and  C7_11 
REMARK    6  A    between atoms: C9_14  and  O4_15 
REMARK    7  A    between atoms: C10_17  and  C11_18 
REMARK    8  A    between atoms: C11_18  and  C13_20 
REMARK    9  A    between atoms: C14_22  and  O5_23 
REMARK   10  A    between atoms: O5_23  and  C15_24 
ROOT
HETATM    1  C4  UNL     1      27.372   1.311  17.504  1.00  0.00     0.090 A 
HETATM    2  C5  UNL     1      26.620   2.333  18.093  1.00  0.00     0.100 A 
HETATM    3  C6  UNL     1      25.616   1.983  19.025  1.00  0.00     0.077 A 
HETATM    4  C9  UNL     1      25.410   0.657  19.320  1.00  0.00     0.095 A 
HETATM    5  C10 UNL     1      26.180  -0.380  18.726  1.00  0.00     0.036 A 
HETATM    6  C14 UNL     1      27.155  -0.037  17.820  1.00  0.00     0.110 A 
ENDROOT
BRANCH   1   7
HETATM    7  C3  UNL     1      28.443   1.631  16.589  1.00  0.00     0.224 C 
HETATM    8  O1  UNL     1      29.660   1.744  16.930  1.00  0.00    -0.280 OA
BRANCH   7   9
HETATM    9  S1  UNL     1      28.194   1.934  14.824  1.00  0.00    -0.087 SA
BRANCH   9  10
HETATM   10  C2  UNL     1      28.139   3.764  14.583  1.00  0.00     0.078 C 
HETATM   11  C1  UNL     1      29.462   4.179  13.951  1.00  0.00     0.016 C 
ENDBRANCH   9  10
ENDBRANCH   7   9
ENDBRANCH   1   7
BRANCH   2  12
HETATM   12  O2  UNL     1      26.759   3.633  17.853  1.00  0.00    -0.358 OA
ATOM     13  H2  UNL     1      26.104   4.300  18.021  1.00  0.00     0.217 HD
ENDBRANCH   2  12
BRANCH   6  14
HETATM   14  O5  UNL     1      27.921  -1.050  17.245  1.00  0.00    -0.277 OA
BRANCH  14  15
HETATM   15  C15 UNL     1      27.400  -1.974  16.326  1.00  0.00     0.260 C 
HETATM   16  C16 UNL     1      26.600  -1.419  15.181  1.00  0.00     0.126 C 
HETATM   17  O6  UNL     1      27.620  -3.178  16.496  1.00  0.00    -0.265 OA
ENDBRANCH  14  15
ENDBRANCH   6  14
BRANCH   3  18
HETATM   18  C7  UNL     1      24.829   3.025  19.644  1.00  0.00     0.161 C 
HETATM   19  C8  UNL     1      24.925   3.504  21.039  1.00  0.00     0.097 C 
HETATM   20  O3  UNL     1      23.951   3.615  18.923  1.00  0.00    -0.293 OA
ENDBRANCH   3  18
BRANCH   5  21
HETATM   21  C11 UNL     1      26.030  -1.769  19.198  1.00  0.00    -0.054 C 
HETATM   22  C12 UNL     1      24.715  -2.419  18.954  1.00  0.00     0.046 C 
BRANCH  21  23
HETATM   23  C13 UNL     1      26.777  -2.130  20.400  1.00  0.00     0.149 C 
HETATM   24 CL1  UNL     1      28.196  -3.195  20.001  1.00  0.00    -0.126 Cl
ENDBRANCH  21  23
ENDBRANCH   5  21
BRANCH   4  25
HETATM   25  O4  UNL     1      24.438   0.359  20.176  1.00  0.00    -0.359 OA
ATOM     26  H4  UNL     1      24.496  -0.469  20.638  1.00  0.00     0.217 HD
ENDBRANCH   4  25
TORSDOF 10
ENDMDL
MODEL 3
REMARK VINA RESULT: -6.932457833      3.322      5.661
REMARK  10 active torsions:
REMARK  status: ('A' for Active; 'I' for Inactive)
REMARK    1  A    between atoms: C2_2  and  S1_3 
REMARK    2  A    between atoms: S1_3  and  C3_4 
REMARK    3  A    between atoms: C3_4  and  C4_6 
REMARK    4  A    between atoms: C5_7  and  O2_8 
REMARK    5  A    between atoms: C6_10  and  C7_11 
REMARK    6  A    between atoms: C9_14  and  O4_15 
REMARK    7  A    between atoms: C10_17  and  C11_18 
REMARK    8  A    between atoms: C11_18  and  C13_20 
REMARK    9  A    between atoms: C14_22  and  O5_23 
REMARK   10  A    between atoms: O5_23  and  C15_24 
ROOT
HETATM    1  C4  UNL     1      20.501   4.691  24.694  1.00  0.00     0.090 A 
HETATM    2  C5  UNL     1      20.309   6.072  24.584  1.00  0.00     0.100 A 
HETATM    3  C6  UNL     1      21.024   6.776  23.587  1.00  0.00     0.077 A 
HETATM    4  C9  UNL     1      21.881   6.086  22.765  1.00  0.00     0.095 A 
HETATM    5  C10 UNL     1      22.069   4.681  22.875  1.00  0.00     0.036 A 
HETATM    6  C14 UNL     1      21.373   3.999  23.844  1.00  0.00     0.110 A 
ENDROOT
BRANCH   1   7
HETATM    7  C3  UNL     1      19.748   3.928  25.663  1.00  0.00     0.224 C 
HETATM    8  O1  UNL     1      18.519   3.637  25.541  1.00  0.00    -0.280 OA
BRANCH   7   9
HETATM    9  S1  UNL     1      20.453   3.292  27.203  1.00  0.00    -0.087 SA
BRANCH   9  10
HETATM   10  C2  UNL     1      20.623   4.722  28.360  1.00  0.00     0.078 C 
HETATM   11  C1  UNL     1      21.893   5.470  27.974  1.00  0.00     0.016 C 
ENDBRANCH   9  10
ENDBRANCH   7   9
ENDBRANCH   1   7
BRANCH   2  12
HETATM   12  O2  UNL     1      19.504   6.805  25.345  1.00  0.00    -0.358 OA
ATOM     13  H2  UNL     1      18.611   7.051  25.130  1.00  0.00     0.217 HD
ENDBRANCH   2  12
BRANCH   6  14
HETATM   14  O5  UNL     1      21.545   2.619  23.945  1.00  0.00    -0.277 OA
BRANCH  14  15
HETATM   15  C15 UNL     1      20.610   1.694  23.455  1.00  0.00     0.260 C 
HETATM   16  C16 UNL     1      20.577   0.344  24.113  1.00  0.00     0.126 C 
HETATM   17  O6  UNL     1      19.869   2.027  22.523  1.00  0.00    -0.265 OA
ENDBRANCH  14  15
ENDBRANCH   6  14
BRANCH   3  18
HETATM   18  C7  UNL     1      20.839   8.203  23.457  1.00  0.00     0.161 C 
HETATM   19  C8  UNL     1      21.104   9.233  24.483  1.00  0.00     0.097 C 
HETATM   20  O3  UNL     1      20.403   8.647  22.338  1.00  0.00    -0.293 OA
ENDBRANCH   3  18
BRANCH   5  21
HETATM   21  C11 UNL     1      22.871   3.965  21.864  1.00  0.00    -0.054 C 
HETATM   22  C12 UNL     1      24.344   4.161  21.923  1.00  0.00     0.046 C 
BRANCH  21  23
HETATM   23  C13 UNL     1      22.243   3.760  20.563  1.00  0.00     0.149 C 
HETATM   24 CL1  UNL     1      23.485   3.464  19.269  1.00  0.00    -0.126 Cl
ENDBRANCH  21  23
ENDBRANCH   5  21
BRANCH   4  25
HETATM   25  O4  UNL     1      22.561   6.781  21.859  1.00  0.00    -0.359 OA
ATOM     26  H4  UNL     1      22.593   6.438  20.974  1.00  0.00     0.217 HD
ENDBRANCH   4  25
TORSDOF 10
ENDMDL
MODEL 4
REMARK VINA RESULT: -6.900023338      8.996     11.308
REMARK  10 active torsions:
REMARK  status: ('A' for Active; 'I' for Inactive)
REMARK    1  A    between atoms: C2_2  and  S1_3 
REMARK    2  A    between atoms: S1_3  and  C3_4 
REMARK    3  A    between atoms: C3_4  and  C4_6 
REMARK    4  A    between atoms: C5_7  and  O2_8 
REMARK    5  A    between atoms: C6_10  and  C7_11 
REMARK    6  A    between atoms: C9_14  and  O4_15 
REMARK    7  A    between atoms: C10_17  and  C11_18 
REMARK    8  A    between atoms: C11_18  and  C13_20 
REMARK    9  A    between atoms: C14_22  and  O5_23 
REMARK   10  A    between atoms: O5_23  and  C15_24 
ROOT
HETATM    1  C4  UNL     1      27.707   0.601  15.099  1.00  0.00     0.090 A 
HETATM    2  C5  UNL     1      27.231   0.155  13.861  1.00  0.00     0.100 A 
HETATM    3  C6  UNL     1      27.123   1.088  12.804  1.00  0.00     0.077 A 
HETATM    4  C9  UNL     1      27.484   2.394  13.025  1.00  0.00     0.095 A 
HETATM    5  C10 UNL     1      27.973   2.844  14.282  1.00  0.00     0.036 A 
HETATM    6  C14 UNL     1      28.078   1.935  15.308  1.00  0.00     0.110 A 
ENDROOT
BRANCH   1   7
HETATM    7  C3  UNL     1      27.884  -0.332  16.189  1.00  0.00     0.224 C 
HETATM    8  O1  UNL     1      29.014  -0.699  16.635  1.00  0.00    -0.280 OA
BRANCH   7   9
HETATM    9  S1  UNL     1      26.512  -1.126  17.059  1.00  0.00    -0.087 SA
BRANCH   9  10
HETATM   10  C2  UNL     1      24.984  -0.168  16.664  1.00  0.00     0.078 C 
HETATM   11  C1  UNL     1      24.410   0.338  17.983  1.00  0.00     0.016 C 
ENDBRANCH   9  10
ENDBRANCH   7   9
ENDBRANCH   1   7
BRANCH   2  12
HETATM   12  O2  UNL     1      26.860  -1.089  13.577  1.00  0.00    -0.358 OA
ATOM     13  H2  UNL     1      26.031  -1.344  13.189  1.00  0.00     0.217 HD
ENDBRANCH   2  12
BRANCH   6  14
HETATM   14  O5  UNL     1      28.570   2.369  16.538  1.00  0.00    -0.277 OA
BRANCH  14  15
HETATM   15  C15 UNL     1      27.745   2.870  17.558  1.00  0.00     0.260 C 
HETATM   16  C16 UNL     1      27.655   2.062  18.821  1.00  0.00     0.126 C 
HETATM   17  O6  UNL     1      27.143   3.934  17.373  1.00  0.00    -0.265 OA
ENDBRANCH  14  15
ENDBRANCH   6  14
BRANCH   3  18
HETATM   18  C7  UNL     1      26.635   0.646  11.517  1.00  0.00     0.161 C 
HETATM   19  C8  UNL     1      25.226   0.563  11.080  1.00  0.00     0.097 C 
HETATM   20  O3  UNL     1      27.500   0.288  10.644  1.00  0.00    -0.293 OA
ENDBRANCH   3  18
BRANCH   5  21
HETATM   21  C11 UNL     1      28.500   4.215  14.418  1.00  0.00    -0.054 C 
HETATM   22  C12 UNL     1      27.556   5.324  14.121  1.00  0.00     0.046 C 
BRANCH  21  23
HETATM   23  C13 UNL     1      29.916   4.399  14.114  1.00  0.00     0.149 C 
HETATM   24 CL1  UNL     1      30.160   4.897  12.383  1.00  0.00    -0.126 Cl
ENDBRANCH  21  23
ENDBRANCH   5  21
BRANCH   4  25
HETATM   25  O4  UNL     1      27.341   3.252  12.020  1.00  0.00    -0.359 OA
ATOM     26  H4  UNL     1      27.571   4.160  12.179  1.00  0.00     0.217 HD
ENDBRANCH   4  25
TORSDOF 10
ENDMDL
MODEL 5
REMARK VINA RESULT: -6.791820336      8.880     12.154
REMARK  10 active torsions:
REMARK  status: ('A' for Active; 'I' for Inactive)
REMARK    1  A    between atoms: C2_2  and  S1_3 
REMARK    2  A    between atoms: S1_3  and  C3_4 
REMARK    3  A    between atoms: C3_4  and  C4_6 
REMARK    4  A    between atoms: C5_7  and  O2_8 
REMARK    5  A    between atoms: C6_10  and  C7_11 
REMARK    6  A    between atoms: C9_14  and  O4_15 
REMARK    7  A    between atoms: C10_17  and  C11_18 
REMARK    8  A    between atoms: C11_18  and  C13_20 
REMARK    9  A    between atoms: C14_22  and  O5_23 
REMARK   10  A    between atoms: O5_23  and  C15_24 
ROOT
HETATM    1  C4  UNL     1      28.303   1.043  15.986  1.00  0.00     0.090 A 
HETATM    2  C5  UNL     1      27.848  -0.277  15.896  1.00  0.00     0.100 A 
HETATM    3  C6  UNL     1      27.351  -0.737  14.655  1.00  0.00     0.077 A 
HETATM    4  C9  UNL     1      27.327   0.122  13.584  1.00  0.00     0.095 A 
HETATM    5  C10 UNL     1      27.796   1.461  13.675  1.00  0.00     0.036 A 
HETATM    6  C14 UNL     1      28.279   1.906  14.883  1.00  0.00     0.110 A 
ENDROOT
BRANCH   1   7
HETATM    7  C3  UNL     1      28.869   1.534  17.221  1.00  0.00     0.224 C 
HETATM    8  O1  UNL     1      30.107   1.500  17.500  1.00  0.00    -0.280 OA
BRANCH   7   9
HETATM    9  S1  UNL     1      27.885   2.254  18.557  1.00  0.00    -0.087 SA
BRANCH   9  10
HETATM   10  C2  UNL     1      26.708   0.953  19.133  1.00  0.00     0.078 C 
HETATM   11  C1  UNL     1      25.343   1.279  18.538  1.00  0.00     0.016 C 
ENDBRANCH   9  10
ENDBRANCH   7   9
ENDBRANCH   1   7
BRANCH   2  12
HETATM   12  O2  UNL     1      27.837  -1.161  16.888  1.00  0.00    -0.358 OA
ATOM     13  H2  UNL     1      27.640  -0.969  17.798  1.00  0.00     0.217 HD
ENDBRANCH   2  12
BRANCH   6  14
HETATM   14  O5  UNL     1      28.751   3.215  14.973  1.00  0.00    -0.277 OA
BRANCH  14  15
HETATM   15  C15 UNL     1      27.904   4.325  15.112  1.00  0.00     0.260 C 
HETATM   16  C16 UNL     1      27.892   5.319  13.984  1.00  0.00     0.126 C 
HETATM   17  O6  UNL     1      27.218   4.432  16.135  1.00  0.00    -0.265 OA
ENDBRANCH  14  15
ENDBRANCH   6  14
BRANCH   3  18
HETATM   18  C7  UNL     1      26.878  -2.098  14.542  1.00  0.00     0.161 C 
HETATM   19  C8  UNL     1      27.548  -3.219  13.851  1.00  0.00     0.097 C 
HETATM   20  O3  UNL     1      25.762  -2.388  15.097  1.00  0.00    -0.293 OA
ENDBRANCH   3  18
BRANCH   5  21
HETATM   21  C11 UNL     1      27.901   2.288  12.458  1.00  0.00    -0.054 C 
HETATM   22  C12 UNL     1      26.624   2.668  11.798  1.00  0.00     0.046 C 
BRANCH  21  23
HETATM   23  C13 UNL     1      29.082   2.074  11.628  1.00  0.00     0.149 C 
HETATM   24 CL1  UNL     1      30.156   3.541  11.616  1.00  0.00    -0.126 Cl
ENDBRANCH  21  23
ENDBRANCH   5  21
BRANCH   4  25
HETATM   25  O4  UNL     1      26.825  -0.332  12.439  1.00  0.00    -0.359 OA
ATOM     26  H4  UNL     1      26.567   0.308  11.787  1.00  0.00     0.217 HD
ENDBRANCH   4  25
TORSDOF 10
ENDMDL
