MODEL 1
REMARK VINA RESULT: -6.670557469      0.000      0.000
REMARK  7 active torsions:
REMARK  status: ('A' for Active; 'I' for Inactive)
REMARK    1  A    between atoms: O1_2  and  C2_3 
REMARK    2  A    between atoms: C3_4  and  O2_5 
REMARK    3  A    between atoms: C4_7  and  O3_8 
REMARK    4  A    between atoms: C5_10  and  N1_11 
REMARK    5  A    between atoms: N2_13  and  C6_15 
REMARK    6  A    between atoms: C6_15  and  C7_16 
REMARK    7  A    between atoms: C12_23  and  O4_24 
ROOT
HETATM    1  C2  UNL     1      27.603   1.007  15.699  1.00  0.00     0.139 A 
HETATM    2  C3  UNL     1      28.346   1.780  16.553  1.00  0.00     0.138 A 
HETATM    3  C4  UNL     1      27.985   1.814  17.884  1.00  0.00     0.131 A 
HETATM    4  C5  UNL     1      26.890   1.079  18.353  1.00  0.00     0.104 A 
HETATM    5  C11 UNL     1      26.152   0.308  17.481  1.00  0.00     0.078 A 
HETATM    6 BR1  UNL     1      24.654  -0.720  18.019  1.00  0.00    -0.045 Br
HETATM    7  C12 UNL     1      26.519   0.273  16.133  1.00  0.00     0.124 A 
ENDROOT
BRANCH   4   8
HETATM    8  N1  UNL     1      26.513   1.114  19.733  1.00  0.00    -0.301 N 
HETATM    9  N2  UNL     1      25.891   2.103  20.190  1.00  0.00    -0.332 N 
ATOM     10  H2  UNL     1      25.648   2.889  19.586  1.00  0.00     0.180 HD
ATOM     11  H1  UNL     1      26.750   0.334  20.346  1.00  0.00     0.186 HD
BRANCH   9  12
HETATM   12  C6  UNL     1      25.524   2.109  21.596  1.00  0.00     0.167 C 
BRANCH  12  13
HETATM   13  C7  UNL     1      24.061   2.283  21.691  1.00  0.00     0.008 C 
HETATM   14  C8  UNL     1      23.551   3.473  21.926  1.00  0.00    -0.023 C 
HETATM   15  C9  UNL     1      24.140   4.815  22.140  1.00  0.00     0.056 C 
HETATM   16  S1  UNL     1      21.878   4.076  22.107  1.00  0.00    -0.134 SA
HETATM   17  C10 UNL     1      22.864   5.562  21.938  1.00  0.00     0.084 C 
ENDBRANCH  12  13
ENDBRANCH   9  12
ENDBRANCH   4   8
BRANCH   3  18
HETATM   18  O3  UNL     1      28.686   2.567  18.791  1.00  0.00    -0.356 OA
ATOM     19  H3  UNL     1      28.427   2.603  19.704  1.00  0.00     0.218 HD
ENDBRANCH   3  18
BRANCH   2  20
HETATM   20  O2  UNL     1      29.431   2.508  16.090  1.00  0.00    -0.356 OA
ATOM     21  H2  UNL     1      30.184   2.071  15.711  1.00  0.00     0.218 HD
ENDBRANCH   2  20
BRANCH   7  22
HETATM   22  O4  UNL     1      25.819  -0.484  15.203  1.00  0.00    -0.352 OA
HETATM   23  C13 UNL     1      26.357  -1.762  14.881  1.00  0.00     0.210 C 
ENDBRANCH   7  22
BRANCH   1  24
HETATM   24  O1  UNL     1      27.976   0.979  14.360  1.00  0.00    -0.351 OA
HETATM   25  C1  UNL     1      27.401   1.886  13.413  1.00  0.00     0.210 C 
ENDBRANCH   1  24
TORSDOF 7
ENDMDL
MODEL 2
REMARK VINA RESULT: -6.537717978      9.097     11.433
REMARK  7 active torsions:
REMARK  status: ('A' for Active; 'I' for Inactive)
REMARK    1  A    between atoms: O1_2  and  C2_3 
REMARK    2  A    between atoms: C3_4  and  O2_5 
REMARK    3  A    between atoms: C4_7  and  O3_8 
REMARK    4  A    between atoms: C5_10  and  N1_11 
REMARK    5  A    between atoms: N2_13  and  C6_15 
REMARK    6  A    between atoms: C6_15  and  C7_16 
REMARK    7  A    between atoms: C12_23  and  O4_24 
ROOT
HETATM    1  C2  UNL     1      20.617   7.105  26.639  1.00  0.00     0.139 A 
HETATM    2  C3  UNL     1      20.438   8.266  25.932  1.00  0.00     0.138 A 
HETATM    3  C4  UNL     1      20.611   8.232  24.564  1.00  0.00     0.131 A 
HETATM    4  C5  UNL     1      20.959   7.045  23.911  1.00  0.00     0.104 A 
HETATM    5  C11 UNL     1      21.136   5.885  24.635  1.00  0.00     0.078 A 
HETATM    6 BR1  UNL     1      21.607   4.230  23.842  1.00  0.00    -0.045 Br
HETATM    7  C12 UNL     1      20.960   5.920  26.021  1.00  0.00     0.124 A 
ENDROOT
BRANCH   4   8
HETATM    8  N1  UNL     1      21.139   7.008  22.492  1.00  0.00    -0.301 N 
HETATM    9  N2  UNL     1      22.208   7.425  21.983  1.00  0.00    -0.332 N 
ATOM     10  H2  UNL     1      22.956   7.792  22.572  1.00  0.00     0.180 HD
ATOM     11  H1  UNL     1      20.399   6.642  21.893  1.00  0.00     0.186 HD
BRANCH   9  12
HETATM   12  C6  UNL     1      22.360   7.375  20.539  1.00  0.00     0.167 C 
BRANCH  12  13
HETATM   13  C7  UNL     1      21.228   8.100  19.930  1.00  0.00     0.008 C 
HETATM   14  C8  UNL     1      21.356   8.646  18.740  1.00  0.00    -0.023 C 
HETATM   15  C9  UNL     1      22.465   8.719  17.761  1.00  0.00     0.056 C 
HETATM   16  S1  UNL     1      20.247   9.580  17.694  1.00  0.00    -0.134 SA
HETATM   17  C10 UNL     1      21.613   9.154  16.616  1.00  0.00     0.084 C 
ENDBRANCH  12  13
ENDBRANCH   9  12
ENDBRANCH   4   8
BRANCH   3  18
HETATM   18  O3  UNL     1      20.447   9.359  23.800  1.00  0.00    -0.356 OA
ATOM     19  H3  UNL     1      20.679  10.218  24.133  1.00  0.00     0.218 HD
ENDBRANCH   3  18
BRANCH   2  20
HETATM   20  O2  UNL     1      20.093   9.444  26.578  1.00  0.00    -0.356 OA
ATOM     21  H2  UNL     1      19.192   9.745  26.593  1.00  0.00     0.218 HD
ENDBRANCH   2  20
BRANCH   7  22
HETATM   22  O4  UNL     1      21.122   4.788  26.808  1.00  0.00    -0.352 OA
HETATM   23  C13 UNL     1      19.987   3.943  26.957  1.00  0.00     0.210 C 
ENDBRANCH   7  22
BRANCH   1  24
HETATM   24  O1  UNL     1      20.440   7.150  28.016  1.00  0.00    -0.351 OA
HETATM   25  C1  UNL     1      19.136   7.057  28.598  1.00  0.00     0.210 C 
ENDBRANCH   1  24
TORSDOF 7
ENDMDL
MODEL 3
REMARK VINA RESULT: -6.400562974      4.394      7.216
REMARK  7 active torsions:
REMARK  status: ('A' for Active; 'I' for Inactive)
REMARK    1  A    between atoms: O1_2  and  C2_3 
REMARK    2  A    between atoms: C3_4  and  O2_5 
REMARK    3  A    between atoms: C4_7  and  O3_8 
REMARK    4  A    between atoms: C5_10  and  N1_11 
REMARK    5  A    between atoms: N2_13  and  C6_15 
REMARK    6  A    between atoms: C6_15  and  C7_16 
REMARK    7  A    between atoms: C12_23  and  O4_24 
ROOT
HETATM    1  C2  UNL     1      25.555   0.124  17.933  1.00  0.00     0.139 A 
HETATM    2  C3  UNL     1      24.801  -0.324  16.879  1.00  0.00     0.138 A 
HETATM    3  C4  UNL     1      25.324  -0.212  15.608  1.00  0.00     0.131 A 
HETATM    4  C5  UNL     1      26.591   0.341  15.395  1.00  0.00     0.104 A 
HETATM    5  C11 UNL     1      27.337   0.788  16.465  1.00  0.00     0.078 A 
HETATM    6 BR1  UNL     1      29.061   1.552  16.279  1.00  0.00    -0.045 Br
HETATM    7  C12 UNL     1      26.807   0.675  17.753  1.00  0.00     0.124 A 
ENDROOT
BRANCH   4   8
HETATM    8  N1  UNL     1      27.135   0.458  14.077  1.00  0.00    -0.301 N 
HETATM    9  N2  UNL     1      26.536   1.136  13.208  1.00  0.00    -0.332 N 
ATOM     10  H2  UNL     1      25.659   1.609  13.430  1.00  0.00     0.180 HD
ATOM     11  H1  UNL     1      28.011  -0.010  13.843  1.00  0.00     0.186 HD
BRANCH   9  12
HETATM   12  C6  UNL     1      27.113   1.234  11.878  1.00  0.00     0.167 C 
BRANCH  12  13
HETATM   13  C7  UNL     1      28.433   1.885  11.994  1.00  0.00     0.008 C 
HETATM   14  C8  UNL     1      28.520   3.138  12.387  1.00  0.00    -0.023 C 
HETATM   15  C9  UNL     1      27.521   4.158  12.783  1.00  0.00     0.056 C 
HETATM   16  S1  UNL     1      29.895   4.249  12.647  1.00  0.00    -0.134 SA
HETATM   17  C10 UNL     1      28.508   5.083  13.413  1.00  0.00     0.084 C 
ENDBRANCH  12  13
ENDBRANCH   9  12
ENDBRANCH   4   8
BRANCH   3  18
HETATM   18  O3  UNL     1      24.621  -0.642  14.511  1.00  0.00    -0.356 OA
ATOM     19  H3  UNL     1      24.994  -0.596  13.639  1.00  0.00     0.218 HD
ENDBRANCH   3  18
BRANCH   2  20
HETATM   20  O2  UNL     1      23.545  -0.873  17.088  1.00  0.00    -0.356 OA
ATOM     21  H2  UNL     1      23.252  -1.623  16.583  1.00  0.00     0.218 HD
ENDBRANCH   2  20
BRANCH   7  22
HETATM   22  O4  UNL     1      27.506   1.104  18.873  1.00  0.00    -0.352 OA
HETATM   23  C13 UNL     1      27.206   2.409  19.356  1.00  0.00     0.210 C 
ENDBRANCH   7  22
BRANCH   1  24
HETATM   24  O1  UNL     1      25.020   0.007  19.210  1.00  0.00    -0.351 OA
HETATM   25  C1  UNL     1      25.265  -1.152  20.013  1.00  0.00     0.210 C 
ENDBRANCH   1  24
TORSDOF 7
ENDMDL
MODEL 4
REMARK VINA RESULT: -6.361410848      2.546      4.054
REMARK  7 active torsions:
REMARK  status: ('A' for Active; 'I' for Inactive)
REMARK    1  A    between atoms: O1_2  and  C2_3 
REMARK    2  A    between atoms: C3_4  and  O2_5 
REMARK    3  A    between atoms: C4_7  and  O3_8 
REMARK    4  A    between atoms: C5_10  and  N1_11 
REMARK    5  A    between atoms: N2_13  and  C6_15 
REMARK    6  A    between atoms: C6_15  and  C7_16 
REMARK    7  A    between atoms: C12_23  and  O4_24 
ROOT
HETATM    1  C2  UNL     1      27.307   1.458  13.085  1.00  0.00     0.139 A 
HETATM    2  C3  UNL     1      26.169   0.693  13.096  1.00  0.00     0.138 A 
HETATM    3  C4  UNL     1      25.697   0.241  14.311  1.00  0.00     0.131 A 
HETATM    4  C5  UNL     1      26.360   0.554  15.503  1.00  0.00     0.104 A 
HETATM    5  C11 UNL     1      27.503   1.323  15.475  1.00  0.00     0.078 A 
HETATM    6 BR1  UNL     1      28.469   1.799  17.034  1.00  0.00    -0.045 Br
HETATM    7  C12 UNL     1      27.980   1.781  14.245  1.00  0.00     0.124 A 
ENDROOT
BRANCH   4   8
HETATM    8  N1  UNL     1      25.872   0.085  16.764  1.00  0.00    -0.301 N 
HETATM    9  N2  UNL     1      24.692   0.333  17.112  1.00  0.00    -0.332 N 
ATOM     10  H2  UNL     1      24.071   0.867  16.504  1.00  0.00     0.180 HD
ATOM     11  H1  UNL     1      26.483  -0.450  17.381  1.00  0.00     0.186 HD
BRANCH   9  12
HETATM   12  C6  UNL     1      24.227  -0.155  18.400  1.00  0.00     0.167 C 
BRANCH  12  13
HETATM   13  C7  UNL     1      25.058   0.458  19.454  1.00  0.00     0.008 C 
HETATM   14  C8  UNL     1      24.810   1.684  19.863  1.00  0.00    -0.023 C 
HETATM   15  C9  UNL     1      23.800   2.702  19.491  1.00  0.00     0.056 C 
HETATM   16  S1  UNL     1      25.567   2.747  21.084  1.00  0.00    -0.134 SA
HETATM   17  C10 UNL     1      24.025   3.566  20.686  1.00  0.00     0.084 C 
ENDBRANCH  12  13
ENDBRANCH   9  12
ENDBRANCH   4   8
BRANCH   3  18
HETATM   18  O3  UNL     1      24.564  -0.528  14.391  1.00  0.00    -0.356 OA
ATOM     19  H3  UNL     1      23.727  -0.147  14.625  1.00  0.00     0.218 HD
ENDBRANCH   3  18
BRANCH   2  20
HETATM   20  O2  UNL     1      25.511   0.382  11.915  1.00  0.00    -0.356 OA
ATOM     21  H2  UNL     1      25.193   1.068  11.341  1.00  0.00     0.218 HD
ENDBRANCH   2  20
BRANCH   7  22
HETATM   22  O4  UNL     1      29.125   2.560  14.148  1.00  0.00    -0.352 OA
HETATM   23  C13 UNL     1      28.940   3.971  14.123  1.00  0.00     0.210 C 
ENDBRANCH   7  22
BRANCH   1  24
HETATM   24  O1  UNL     1      27.774   1.908  11.856  1.00  0.00    -0.351 OA
HETATM   25  C1  UNL     1      28.702   1.135  11.089  1.00  0.00     0.210 C 
ENDBRANCH   1  24
TORSDOF 7
ENDMDL
MODEL 5
REMARK VINA RESULT: -6.335754747      2.902      4.522
REMARK  7 active torsions:
REMARK  status: ('A' for Active; 'I' for Inactive)
REMARK    1  A    between atoms: O1_2  and  C2_3 
REMARK    2  A    between atoms: C3_4  and  O2_5 
REMARK    3  A    between atoms: C4_7  and  O3_8 
REMARK    4  A    between atoms: C5_10  and  N1_11 
REMARK    5  A    between atoms: N2_13  and  C6_15 
REMARK    6  A    between atoms: C6_15  and  C7_16 
REMARK    7  A    between atoms: C12_23  and  O4_24 
ROOT
HETATM    1  C2  UNL     1      27.922   2.542  13.012  1.00  0.00     0.139 A 
HETATM    2  C3  UNL     1      26.954   1.624  12.692  1.00  0.00     0.138 A 
HETATM    3  C4  UNL     1      26.409   0.869  13.709  1.00  0.00     0.131 A 
HETATM    4  C5  UNL     1      26.828   1.034  15.034  1.00  0.00     0.104 A 
HETATM    5  C11 UNL     1      27.802   1.960  15.340  1.00  0.00     0.078 A 
HETATM    6 BR1  UNL     1      28.435   2.255  17.101  1.00  0.00    -0.045 Br
HETATM    7  C12 UNL     1      28.355   2.725  14.309  1.00  0.00     0.124 A 
ENDROOT
BRANCH   4   8
HETATM    8  N1  UNL     1      26.262   0.251  16.091  1.00  0.00    -0.301 N 
HETATM    9  N2  UNL     1      25.040   0.347  16.358  1.00  0.00    -0.332 N 
ATOM     10  H2  UNL     1      24.439   0.979  15.829  1.00  0.00     0.180 HD
ATOM     11  H1  UNL     1      26.853  -0.385  16.626  1.00  0.00     0.186 HD
BRANCH   9  12
HETATM   12  C6  UNL     1      24.497  -0.460  17.438  1.00  0.00     0.167 C 
BRANCH  12  13
HETATM   13  C7  UNL     1      23.825   0.441  18.395  1.00  0.00     0.008 C 
HETATM   14  C8  UNL     1      24.516   1.027  19.349  1.00  0.00    -0.023 C 
HETATM   15  C9  UNL     1      25.945   1.005  19.738  1.00  0.00     0.056 C 
HETATM   16  S1  UNL     1      24.079   2.155  20.664  1.00  0.00    -0.134 SA
HETATM   17  C10 UNL     1      25.868   2.206  20.620  1.00  0.00     0.084 C 
ENDBRANCH  12  13
ENDBRANCH   9  12
ENDBRANCH   4   8
BRANCH   3  18
HETATM   18  O3  UNL     1      25.437  -0.065  13.457  1.00  0.00    -0.356 OA
ATOM     19  H3  UNL     1      24.776  -0.276  14.106  1.00  0.00     0.218 HD
ENDBRANCH   3  18
BRANCH   2  20
HETATM   20  O2  UNL     1      26.538   1.460  11.380  1.00  0.00    -0.356 OA
ATOM     21  H2  UNL     1      25.615   1.485  11.156  1.00  0.00     0.218 HD
ENDBRANCH   2  20
BRANCH   7  22
HETATM   22  O4  UNL     1      29.338   3.675  14.549  1.00  0.00    -0.352 OA
HETATM   23  C13 UNL     1      28.943   5.040  14.474  1.00  0.00     0.210 C 
ENDBRANCH   7  22
BRANCH   1  24
HETATM   24  O1  UNL     1      28.465   3.297  11.981  1.00  0.00    -0.351 OA
HETATM   25  C1  UNL     1      29.744   2.977  11.422  1.00  0.00     0.210 C 
ENDBRANCH   1  24
TORSDOF 7
ENDMDL
