MODEL 1
REMARK VINA RESULT: -7.684228020      0.000      0.000
REMARK  6 active torsions:
REMARK  status: ('A' for Active; 'I' for Inactive)
REMARK    1  A    between atoms: C3_3  and  C4_4 
REMARK    2  A    between atoms: C4_4  and  N1_5 
REMARK       I    between atoms: N1_5  and  C5_7 
REMARK    3  A    between atoms: C5_7  and  C6_9 
REMARK       I    between atoms: C6_9  and  N2_11 
REMARK       I    between atoms: N2_11  and  C7_13 
REMARK    4  A    between atoms: C7_13  and  O4_15 
REMARK    5  A    between atoms: O4_15  and  C8_16 
REMARK    6  A    between atoms: N3_23  and  N4_24 
ROOT
HETATM    1  N1  UNL     1      21.426   7.840  22.241  1.00  0.00    -0.350 N 
ATOM      2  H1  UNL     1      21.095   8.578  21.621  1.00  0.00     0.163 HD
HETATM    3  C5  UNL     1      22.159   6.735  21.721  1.00  0.00     0.309 C 
HETATM    4  O1  UNL     1      22.587   5.794  22.409  1.00  0.00    -0.262 OA
ENDROOT
BRANCH   1   5
HETATM    5  C4  UNL     1      21.160   7.899  23.652  1.00  0.00     0.157 C 
BRANCH   5   6
HETATM    6  C3  UNL     1      19.787   7.406  23.960  1.00  0.00     0.176 C 
HETATM    7  C2  UNL     1      19.679   6.406  25.056  1.00  0.00     0.147 C 
HETATM    8  C1  UNL     1      20.869   5.507  25.242  1.00  0.00     0.037 C 
HETATM    9  N3  UNL     1      19.440   7.133  26.276  1.00  0.00    -0.169 N 
HETATM   10  C12 UNL     1      19.016   8.417  25.882  1.00  0.00     0.387 C 
HETATM   11  O5  UNL     1      19.089   8.541  24.506  1.00  0.00    -0.293 OA
HETATM   12  O6  UNL     1      18.614   9.368  26.621  1.00  0.00    -0.236 OA
BRANCH   9  13
HETATM   13  N4  UNL     1      19.597   6.656  27.564  1.00  0.00    -0.032 N 
HETATM   14  O7  UNL     1      18.816   5.788  28.000  1.00  0.00    -0.516 OA
HETATM   15  O8  UNL     1      20.600   7.130  28.359  1.00  0.00    -0.516 OA
ENDBRANCH   9  13
ENDBRANCH   5   6
ENDBRANCH   1   5
BRANCH   3  16
HETATM   16  C6  UNL     1      22.401   6.752  20.260  1.00  0.00     0.317 C 
HETATM   17  O2  UNL     1      21.703   7.448  19.483  1.00  0.00    -0.262 OA
HETATM   18  N2  UNL     1      23.451   5.953  19.767  1.00  0.00    -0.265 N 
HETATM   19  C7  UNL     1      23.720   5.939  18.386  1.00  0.00     0.368 C 
ATOM     20  H2  UNL     1      24.012   5.389  20.405  1.00  0.00     0.174 HD
HETATM   21  O3  UNL     1      24.659   5.227  17.952  1.00  0.00    -0.238 OA
BRANCH  19  22
HETATM   22  O4  UNL     1      22.994   6.677  17.472  1.00  0.00    -0.294 OA
BRANCH  22  23
HETATM   23  C8  UNL     1      23.619   7.633  16.625  1.00  0.00     0.061 C 
HETATM   24  C9  UNL     1      23.743   7.102  15.206  1.00  0.00     0.046 C 
HETATM   25  C10 UNL     1      24.969   8.061  17.161  1.00  0.00     0.046 C 
HETATM   26  C11 UNL     1      22.740   8.858  16.554  1.00  0.00     0.046 C 
ENDBRANCH  22  23
ENDBRANCH  19  22
ENDBRANCH   3  16
TORSDOF 6
ENDMDL
MODEL 2
REMARK VINA RESULT: -7.545415489      1.173      1.855
REMARK  6 active torsions:
REMARK  status: ('A' for Active; 'I' for Inactive)
REMARK    1  A    between atoms: C3_3  and  C4_4 
REMARK    2  A    between atoms: C4_4  and  N1_5 
REMARK       I    between atoms: N1_5  and  C5_7 
REMARK    3  A    between atoms: C5_7  and  C6_9 
REMARK       I    between atoms: C6_9  and  N2_11 
REMARK       I    between atoms: N2_11  and  C7_13 
REMARK    4  A    between atoms: C7_13  and  O4_15 
REMARK    5  A    between atoms: O4_15  and  C8_16 
REMARK    6  A    between atoms: N3_23  and  N4_24 
ROOT
HETATM    1  N1  UNL     1      21.137   8.088  22.283  1.00  0.00    -0.350 N 
ATOM      2  H1  UNL     1      20.704   8.832  21.737  1.00  0.00     0.163 HD
HETATM    3  C5  UNL     1      21.889   7.063  21.639  1.00  0.00     0.309 C 
HETATM    4  O1  UNL     1      22.438   6.122  22.233  1.00  0.00    -0.262 OA
ENDROOT
BRANCH   1   5
HETATM    5  C4  UNL     1      20.998   8.057  23.714  1.00  0.00     0.157 C 
BRANCH   5   6
HETATM    6  C3  UNL     1      19.666   7.518  24.111  1.00  0.00     0.176 C 
HETATM    7  C2  UNL     1      19.668   6.498  25.194  1.00  0.00     0.147 C 
HETATM    8  C1  UNL     1      20.893   5.632  25.277  1.00  0.00     0.037 C 
HETATM    9  N3  UNL     1      19.498   7.197  26.441  1.00  0.00    -0.169 N 
HETATM   10  C12 UNL     1      19.010   8.474  26.102  1.00  0.00     0.387 C 
HETATM   11  O5  UNL     1      18.978   8.623  24.727  1.00  0.00    -0.293 OA
HETATM   12  O6  UNL     1      18.636   9.402  26.886  1.00  0.00    -0.236 OA
BRANCH   9  13
HETATM   13  N4  UNL     1      19.762   6.705  27.706  1.00  0.00    -0.032 N 
HETATM   14  O7  UNL     1      18.991   5.870  28.216  1.00  0.00    -0.516 OA
HETATM   15  O8  UNL     1      20.861   7.128  28.396  1.00  0.00    -0.516 OA
ENDBRANCH   9  13
ENDBRANCH   5   6
ENDBRANCH   1   5
BRANCH   3  16
HETATM   16  C6  UNL     1      21.995   7.171  20.166  1.00  0.00     0.317 C 
HETATM   17  O2  UNL     1      22.659   6.348  19.489  1.00  0.00    -0.262 OA
HETATM   18  N2  UNL     1      21.319   8.239  19.543  1.00  0.00    -0.265 N 
HETATM   19  C7  UNL     1      21.389   8.380  18.145  1.00  0.00     0.368 C 
ATOM     20  H2  UNL     1      20.784   8.904  20.101  1.00  0.00     0.174 HD
HETATM   21  O3  UNL     1      20.783   9.332  17.595  1.00  0.00    -0.238 OA
BRANCH  19  22
HETATM   22  O4  UNL     1      22.101   7.515  17.337  1.00  0.00    -0.294 OA
BRANCH  22  23
HETATM   23  C8  UNL     1      23.079   7.989  16.421  1.00  0.00     0.061 C 
HETATM   24  C9  UNL     1      23.963   9.043  17.068  1.00  0.00     0.046 C 
HETATM   25  C10 UNL     1      22.449   8.519  15.150  1.00  0.00     0.046 C 
HETATM   26  C11 UNL     1      23.981   6.838  16.044  1.00  0.00     0.046 C 
ENDBRANCH  22  23
ENDBRANCH  19  22
ENDBRANCH   3  16
TORSDOF 6
ENDMDL
MODEL 3
REMARK VINA RESULT: -7.287224429      3.266      4.071
REMARK  6 active torsions:
REMARK  status: ('A' for Active; 'I' for Inactive)
REMARK    1  A    between atoms: C3_3  and  C4_4 
REMARK    2  A    between atoms: C4_4  and  N1_5 
REMARK       I    between atoms: N1_5  and  C5_7 
REMARK    3  A    between atoms: C5_7  and  C6_9 
REMARK       I    between atoms: C6_9  and  N2_11 
REMARK       I    between atoms: N2_11  and  C7_13 
REMARK    4  A    between atoms: C7_13  and  O4_15 
REMARK    5  A    between atoms: O4_15  and  C8_16 
REMARK    6  A    between atoms: N3_23  and  N4_24 
ROOT
HETATM    1  N1  UNL     1      22.188   4.613  23.570  1.00  0.00    -0.350 N 
ATOM      2  H1  UNL     1      22.794   5.222  23.022  1.00  0.00     0.163 HD
HETATM    3  C5  UNL     1      22.061   3.233  23.238  1.00  0.00     0.309 C 
HETATM    4  O1  UNL     1      21.337   2.432  23.850  1.00  0.00    -0.262 OA
ENDROOT
BRANCH   1   5
HETATM    5  C4  UNL     1      21.448   5.133  24.687  1.00  0.00     0.157 C 
BRANCH   5   6
HETATM    6  C3  UNL     1      20.088   5.580  24.268  1.00  0.00     0.176 C 
HETATM    7  C2  UNL     1      19.347   6.426  25.242  1.00  0.00     0.147 C 
HETATM    8  C1  UNL     1      19.650   6.176  26.692  1.00  0.00     0.037 C 
HETATM    9  N3  UNL     1      19.642   7.800  24.927  1.00  0.00    -0.169 N 
HETATM   10  C12 UNL     1      20.168   7.790  23.621  1.00  0.00     0.387 C 
HETATM   11  O5  UNL     1      20.308   6.489  23.173  1.00  0.00    -0.293 OA
HETATM   12  O6  UNL     1      20.490   8.786  22.900  1.00  0.00    -0.236 OA
BRANCH   9  13
HETATM   13  N4  UNL     1      19.443   8.895  25.748  1.00  0.00    -0.032 N 
HETATM   14  O7  UNL     1      18.286   9.213  26.081  1.00  0.00    -0.516 OA
HETATM   15  O8  UNL     1      20.506   9.627  26.193  1.00  0.00    -0.516 OA
ENDBRANCH   9  13
ENDBRANCH   5   6
ENDBRANCH   1   5
BRANCH   3  16
HETATM   16  C6  UNL     1      22.862   2.772  22.082  1.00  0.00     0.317 C 
HETATM   17  O2  UNL     1      22.333   2.206  21.094  1.00  0.00    -0.262 OA
HETATM   18  N2  UNL     1      24.253   2.991  22.127  1.00  0.00    -0.265 N 
HETATM   19  C7  UNL     1      25.056   2.572  21.050  1.00  0.00     0.368 C 
ATOM     20  H2  UNL     1      24.675   3.450  22.934  1.00  0.00     0.174 HD
HETATM   21  O3  UNL     1      26.294   2.773  21.095  1.00  0.00    -0.238 OA
BRANCH  19  22
HETATM   22  O4  UNL     1      24.544   1.942  19.933  1.00  0.00    -0.294 OA
BRANCH  22  23
HETATM   23  C8  UNL     1      24.590   2.553  18.650  1.00  0.00     0.061 C 
HETATM   24  C9  UNL     1      25.898   2.232  17.943  1.00  0.00     0.046 C 
HETATM   25  C10 UNL     1      24.374   4.049  18.731  1.00  0.00     0.046 C 
HETATM   26  C11 UNL     1      23.484   1.971  17.801  1.00  0.00     0.046 C 
ENDBRANCH  22  23
ENDBRANCH  19  22
ENDBRANCH   3  16
TORSDOF 6
ENDMDL
MODEL 4
REMARK VINA RESULT: -7.069510566      5.148     10.340
REMARK  6 active torsions:
REMARK  status: ('A' for Active; 'I' for Inactive)
REMARK    1  A    between atoms: C3_3  and  C4_4 
REMARK    2  A    between atoms: C4_4  and  N1_5 
REMARK       I    between atoms: N1_5  and  C5_7 
REMARK    3  A    between atoms: C5_7  and  C6_9 
REMARK       I    between atoms: C6_9  and  N2_11 
REMARK       I    between atoms: N2_11  and  C7_13 
REMARK    4  A    between atoms: C7_13  and  O4_15 
REMARK    5  A    between atoms: O4_15  and  C8_16 
REMARK    6  A    between atoms: N3_23  and  N4_24 
ROOT
HETATM    1  N1  UNL     1      23.214   1.360  19.375  1.00  0.00    -0.350 N 
ATOM      2  H1  UNL     1      22.736   0.598  19.855  1.00  0.00     0.163 HD
HETATM    3  C5  UNL     1      22.978   2.712  19.754  1.00  0.00     0.309 C 
HETATM    4  O1  UNL     1      23.514   3.692  19.213  1.00  0.00    -0.262 OA
ENDROOT
BRANCH   1   5
HETATM    5  C4  UNL     1      24.135   1.084  18.306  1.00  0.00     0.157 C 
BRANCH   5   6
HETATM    6  C3  UNL     1      25.305   0.300  18.796  1.00  0.00     0.176 C 
HETATM    7  C2  UNL     1      26.282  -0.136  17.763  1.00  0.00     0.147 C 
HETATM    8  C1  UNL     1      25.719  -0.388  16.393  1.00  0.00     0.037 C 
HETATM    9  N3  UNL     1      27.296   0.883  17.677  1.00  0.00    -0.169 N 
HETATM   10  C12 UNL     1      27.171   1.650  18.851  1.00  0.00     0.387 C 
HETATM   11  O5  UNL     1      26.078   1.224  19.584  1.00  0.00    -0.293 OA
HETATM   12  O6  UNL     1      27.911   2.605  19.243  1.00  0.00    -0.236 OA
BRANCH   9  13
HETATM   13  N4  UNL     1      28.202   1.061  16.646  1.00  0.00    -0.032 N 
HETATM   14  O7  UNL     1      29.014   0.155  16.378  1.00  0.00    -0.516 OA
HETATM   15  O8  UNL     1      28.210   2.219  15.926  1.00  0.00    -0.516 OA
ENDBRANCH   9  13
ENDBRANCH   5   6
ENDBRANCH   1   5
BRANCH   3  16
HETATM   16  C6  UNL     1      22.025   2.913  20.869  1.00  0.00     0.317 C 
HETATM   17  O2  UNL     1      21.957   4.000  21.493  1.00  0.00    -0.262 OA
HETATM   18  N2  UNL     1      21.188   1.832  21.210  1.00  0.00    -0.265 N 
HETATM   19  C7  UNL     1      20.265   1.977  22.262  1.00  0.00     0.368 C 
ATOM     20  H2  UNL     1      21.252   0.952  20.699  1.00  0.00     0.174 HD
HETATM   21  O3  UNL     1      19.520   1.011  22.560  1.00  0.00    -0.238 OA
BRANCH  19  22
HETATM   22  O4  UNL     1      20.136   3.141  22.993  1.00  0.00    -0.294 OA
BRANCH  22  23
HETATM   23  C8  UNL     1      20.569   3.222  24.344  1.00  0.00     0.061 C 
HETATM   24  C9  UNL     1      21.822   2.388  24.563  1.00  0.00     0.046 C 
HETATM   25  C10 UNL     1      19.475   2.817  25.310  1.00  0.00     0.046 C 
HETATM   26  C11 UNL     1      20.943   4.654  24.644  1.00  0.00     0.046 C 
ENDBRANCH  22  23
ENDBRANCH  19  22
ENDBRANCH   3  16
TORSDOF 6
ENDMDL
MODEL 5
REMARK VINA RESULT: -7.013152560      3.133      4.243
REMARK  6 active torsions:
REMARK  status: ('A' for Active; 'I' for Inactive)
REMARK    1  A    between atoms: C3_3  and  C4_4 
REMARK    2  A    between atoms: C4_4  and  N1_5 
REMARK       I    between atoms: N1_5  and  C5_7 
REMARK    3  A    between atoms: C5_7  and  C6_9 
REMARK       I    between atoms: C6_9  and  N2_11 
REMARK       I    between atoms: N2_11  and  C7_13 
REMARK    4  A    between atoms: C7_13  and  O4_15 
REMARK    5  A    between atoms: O4_15  and  C8_16 
REMARK    6  A    between atoms: N3_23  and  N4_24 
ROOT
HETATM    1  N1  UNL     1      22.228   4.765  23.239  1.00  0.00    -0.350 N 
ATOM      2  H1  UNL     1      22.952   5.332  22.798  1.00  0.00     0.163 HD
HETATM    3  C5  UNL     1      21.898   3.482  22.715  1.00  0.00     0.309 C 
HETATM    4  O1  UNL     1      21.024   2.738  23.189  1.00  0.00    -0.262 OA
ENDROOT
BRANCH   1   5
HETATM    5  C4  UNL     1      21.527   5.248  24.397  1.00  0.00     0.157 C 
BRANCH   5   6
HETATM    6  C3  UNL     1      20.154   5.707  24.040  1.00  0.00     0.176 C 
HETATM    7  C2  UNL     1      19.427   6.474  25.086  1.00  0.00     0.147 C 
HETATM    8  C1  UNL     1      19.766   6.129  26.508  1.00  0.00     0.037 C 
HETATM    9  N3  UNL     1      19.700   7.870  24.860  1.00  0.00    -0.169 N 
HETATM   10  C12 UNL     1      20.196   7.956  23.545  1.00  0.00     0.387 C 
HETATM   11  O5  UNL     1      20.340   6.691  23.005  1.00  0.00    -0.293 OA
HETATM   12  O6  UNL     1      20.491   9.003  22.888  1.00  0.00    -0.236 OA
BRANCH   9  13
HETATM   13  N4  UNL     1      19.509   8.904  25.758  1.00  0.00    -0.032 N 
HETATM   14  O7  UNL     1      20.490   9.553  26.168  1.00  0.00    -0.516 OA
HETATM   15  O8  UNL     1      18.254   9.215  26.198  1.00  0.00    -0.516 OA
ENDBRANCH   9  13
ENDBRANCH   5   6
ENDBRANCH   1   5
BRANCH   3  16
HETATM   16  C6  UNL     1      22.671   3.052  21.528  1.00  0.00     0.317 C 
HETATM   17  O2  UNL     1      22.946   1.845  21.320  1.00  0.00    -0.262 OA
HETATM   18  N2  UNL     1      23.093   4.052  20.630  1.00  0.00    -0.265 N 
HETATM   19  C7  UNL     1      23.829   3.690  19.486  1.00  0.00     0.368 C 
ATOM     20  H2  UNL     1      22.868   5.031  20.807  1.00  0.00     0.174 HD
HETATM   21  O3  UNL     1      24.200   4.586  18.689  1.00  0.00    -0.238 OA
BRANCH  19  22
HETATM   22  O4  UNL     1      24.169   2.384  19.195  1.00  0.00    -0.294 OA
BRANCH  22  23
HETATM   23  C8  UNL     1      25.522   1.949  19.201  1.00  0.00     0.061 C 
HETATM   24  C9  UNL     1      26.272   2.527  20.392  1.00  0.00     0.046 C 
HETATM   25  C10 UNL     1      26.227   2.286  17.904  1.00  0.00     0.046 C 
HETATM   26  C11 UNL     1      25.543   0.448  19.363  1.00  0.00     0.046 C 
ENDBRANCH  22  23
ENDBRANCH  19  22
ENDBRANCH   3  16
TORSDOF 6
ENDMDL
