MODEL 1
REMARK VINA RESULT: -6.887492500      0.000      0.000
REMARK  1 active torsions:
REMARK  status: ('A' for Active; 'I' for Inactive)
REMARK       I    between atoms: C1_4  and  N3_6 
REMARK    1  A    between atoms: N5_9  and  N6_10 
ROOT
HETATM    1  N1  UNL     1       4.618   3.982   2.780  1.00  0.00    -0.372 N 
ATOM      2  H11 UNL     1       4.384   3.336   2.026  1.00  0.00     0.158 HD
ATOM      3  H12 UNL     1       4.008   4.093   3.590  1.00  0.00     0.158 HD
HETATM    4  C1  UNL     1       5.697   4.665   2.708  1.00  0.00     0.213 C 
HETATM    5  N2  UNL     1       6.020   5.558   3.752  1.00  0.00    -0.062 NA
HETATM    6  N3  UNL     1       6.543   4.510   1.585  1.00  0.00    -0.157 N 
HETATM    7  N4  UNL     1       6.775   3.567   0.657  1.00  0.00    -0.203 N 
ATOM      8  H4  UNL     1       6.384   2.640   0.490  1.00  0.00     0.211 HD
HETATM    9  N5  UNL     1       7.695   4.280   0.040  1.00  0.00    -0.122 N 
HETATM   10  C3  UNL     1       7.492   5.247   0.947  1.00  0.00     0.387 A 
HETATM   11  O1  UNL     1       7.949   6.405   1.193  1.00  0.00    -0.241 OA
ENDROOT
BRANCH   9  12
HETATM   12  N6  UNL     1       8.513   4.099  -1.069  1.00  0.00    -0.249 N 
HETATM   13  C2  UNL     1       8.172   4.412  -2.266  1.00  0.00     0.217 C 
HETATM   14  N7  UNL     1       6.890   4.973  -2.468  1.00  0.00    -0.065 NA
HETATM   15  N8  UNL     1       9.023   4.217  -3.372  1.00  0.00    -0.065 NA
ATOM     16  H6  UNL     1       9.437   3.694  -0.923  1.00  0.00     0.191 HD
ENDBRANCH   9  12
TORSDOF 1
ENDMDL
MODEL 2
REMARK VINA RESULT: -6.670860282      0.987      1.319
REMARK  1 active torsions:
REMARK  status: ('A' for Active; 'I' for Inactive)
REMARK       I    between atoms: C1_4  and  N3_6 
REMARK    1  A    between atoms: N5_9  and  N6_10 
ROOT
HETATM    1  N1  UNL     1       5.738   3.254   2.888  1.00  0.00    -0.372 N 
ATOM      2  H11 UNL     1       5.234   2.747   2.161  1.00  0.00     0.158 HD
ATOM      3  H12 UNL     1       5.518   3.124   3.876  1.00  0.00     0.158 HD
HETATM    4  C1  UNL     1       6.666   4.070   2.555  1.00  0.00     0.213 C 
HETATM    5  N2  UNL     1       7.363   4.772   3.561  1.00  0.00    -0.062 NA
HETATM    6  N3  UNL     1       6.971   4.251   1.185  1.00  0.00    -0.157 N 
HETATM    7  N4  UNL     1       6.828   3.549   0.049  1.00  0.00    -0.203 N 
ATOM      8  H4  UNL     1       6.435   2.631  -0.160  1.00  0.00     0.211 HD
HETATM    9  N5  UNL     1       7.383   4.482  -0.697  1.00  0.00    -0.122 N 
HETATM   10  C3  UNL     1       7.543   5.215   0.414  1.00  0.00     0.387 A 
HETATM   11  O1  UNL     1       8.021   6.350   0.721  1.00  0.00    -0.241 OA
ENDROOT
BRANCH   9  12
HETATM   12  N6  UNL     1       7.670   4.631  -2.049  1.00  0.00    -0.249 N 
HETATM   13  C2  UNL     1       8.831   4.434  -2.558  1.00  0.00     0.217 C 
HETATM   14  N7  UNL     1       9.879   4.043  -1.694  1.00  0.00    -0.065 NA
HETATM   15  N8  UNL     1       9.092   4.593  -3.934  1.00  0.00    -0.065 NA
ATOM     16  H6  UNL     1       6.913   4.914  -2.672  1.00  0.00     0.191 HD
ENDBRANCH   9  12
TORSDOF 1
ENDMDL
MODEL 3
REMARK VINA RESULT: -6.541418404      1.827      2.243
REMARK  1 active torsions:
REMARK  status: ('A' for Active; 'I' for Inactive)
REMARK       I    between atoms: C1_4  and  N3_6 
REMARK    1  A    between atoms: N5_9  and  N6_10 
ROOT
HETATM    1  N1  UNL     1       8.297   4.362   4.771  1.00  0.00    -0.372 N 
ATOM      2  H11 UNL     1       8.685   3.573   4.254  1.00  0.00     0.158 HD
ATOM      3  H12 UNL     1       8.481   4.484   5.768  1.00  0.00     0.158 HD
HETATM    4  C1  UNL     1       7.567   5.215   4.159  1.00  0.00     0.213 C 
HETATM    5  N2  UNL     1       7.031   6.306   4.875  1.00  0.00    -0.062 NA
HETATM    6  N3  UNL     1       7.311   5.045   2.778  1.00  0.00    -0.157 N 
HETATM    7  N4  UNL     1       7.899   4.423   1.743  1.00  0.00    -0.203 N 
ATOM      8  H4  UNL     1       8.748   3.862   1.655  1.00  0.00     0.211 HD
HETATM    9  N5  UNL     1       6.978   4.801   0.882  1.00  0.00    -0.122 N 
HETATM   10  C3  UNL     1       6.359   5.435   1.889  1.00  0.00     0.387 A 
HETATM   11  O1  UNL     1       5.313   6.137   2.045  1.00  0.00    -0.241 OA
ENDROOT
BRANCH   9  12
HETATM   12  N6  UNL     1       6.753   4.616  -0.477  1.00  0.00    -0.249 N 
HETATM   13  C2  UNL     1       7.279   5.346  -1.393  1.00  0.00     0.217 C 
HETATM   14  N7  UNL     1       8.134   6.398  -0.997  1.00  0.00    -0.065 NA
HETATM   15  N8  UNL     1       7.033   5.134  -2.765  1.00  0.00    -0.065 NA
ATOM     16  H6  UNL     1       6.136   3.857  -0.763  1.00  0.00     0.191 HD
ENDBRANCH   9  12
TORSDOF 1
ENDMDL
MODEL 4
REMARK VINA RESULT: -6.480509093      1.564      1.852
REMARK  1 active torsions:
REMARK  status: ('A' for Active; 'I' for Inactive)
REMARK       I    between atoms: C1_4  and  N3_6 
REMARK    1  A    between atoms: N5_9  and  N6_10 
ROOT
HETATM    1  N1  UNL     1       7.851   2.695   3.673  1.00  0.00    -0.372 N 
ATOM      2  H11 UNL     1       8.061   1.850   3.143  1.00  0.00     0.158 HD
ATOM      3  H12 UNL     1       7.774   2.677   4.690  1.00  0.00     0.158 HD
HETATM    4  C1  UNL     1       7.680   3.799   3.050  1.00  0.00     0.213 C 
HETATM    5  N2  UNL     1       7.389   4.969   3.785  1.00  0.00    -0.062 NA
HETATM    6  N3  UNL     1       7.786   3.824   1.640  1.00  0.00    -0.157 N 
HETATM    7  N4  UNL     1       8.382   3.085   0.690  1.00  0.00    -0.203 N 
ATOM      8  H4  UNL     1       8.961   2.245   0.719  1.00  0.00     0.211 HD
HETATM    9  N5  UNL     1       7.943   3.842  -0.294  1.00  0.00    -0.122 N 
HETATM   10  C3  UNL     1       7.332   4.606   0.623  1.00  0.00     0.387 A 
HETATM   11  O1  UNL     1       6.608   5.648   0.636  1.00  0.00    -0.241 OA
ENDROOT
BRANCH   9  12
HETATM   12  N6  UNL     1       8.065   3.840  -1.679  1.00  0.00    -0.249 N 
HETATM   13  C2  UNL     1       9.069   4.333  -2.308  1.00  0.00     0.217 C 
HETATM   14  N7  UNL     1      10.111   4.914  -1.549  1.00  0.00    -0.065 NA
HETATM   15  N8  UNL     1       9.166   4.316  -3.714  1.00  0.00    -0.065 NA
ATOM     16  H6  UNL     1       7.313   3.422  -2.226  1.00  0.00     0.191 HD
ENDBRANCH   9  12
TORSDOF 1
ENDMDL
MODEL 5
REMARK VINA RESULT: -6.470047959      1.736      4.787
REMARK  1 active torsions:
REMARK  status: ('A' for Active; 'I' for Inactive)
REMARK       I    between atoms: C1_4  and  N3_6 
REMARK    1  A    between atoms: N5_9  and  N6_10 
ROOT
HETATM    1  N1  UNL     1       6.377   2.401  -0.881  1.00  0.00    -0.372 N 
ATOM      2  H11 UNL     1       6.042   2.107   0.037  1.00  0.00     0.158 HD
ATOM      3  H12 UNL     1       6.266   1.804  -1.701  1.00  0.00     0.158 HD
HETATM    4  C1  UNL     1       6.946   3.540  -1.005  1.00  0.00     0.213 C 
HETATM    5  N2  UNL     1       7.409   3.945  -2.275  1.00  0.00    -0.062 NA
HETATM    6  N3  UNL     1       7.099   4.367   0.132  1.00  0.00    -0.157 N 
HETATM    7  N4  UNL     1       6.502   4.510   1.327  1.00  0.00    -0.203 N 
ATOM      8  H4  UNL     1       5.721   4.032   1.779  1.00  0.00     0.211 HD
HETATM    9  N5  UNL     1       7.295   5.492   1.701  1.00  0.00    -0.122 N 
HETATM   10  C3  UNL     1       7.919   5.382   0.519  1.00  0.00     0.387 A 
HETATM   11  O1  UNL     1       8.884   5.946  -0.082  1.00  0.00    -0.241 OA
ENDROOT
BRANCH   9  12
HETATM   12  N6  UNL     1       7.421   6.289   2.832  1.00  0.00    -0.249 N 
HETATM   13  C2  UNL     1       7.722   5.836   3.995  1.00  0.00     0.217 C 
HETATM   14  N7  UNL     1       7.938   4.446   4.132  1.00  0.00    -0.065 NA
HETATM   15  N8  UNL     1       7.844   6.669   5.125  1.00  0.00    -0.065 NA
ATOM     16  H6  UNL     1       7.265   7.292   2.733  1.00  0.00     0.191 HD
ENDBRANCH   9  12
TORSDOF 1
ENDMDL
