MODEL 1
REMARK VINA RESULT: -6.420584549      0.000      0.000
REMARK  1 active torsions:
REMARK  status: ('A' for Active; 'I' for Inactive)
REMARK    1  A    between atoms: N3_12  and  N4_14 
ROOT
HETATM    1  C1  UNL     1      18.024  38.938 113.540  1.00  0.00     0.064 C 
HETATM    2  C2  UNL     1      19.144  38.299 113.769  1.00  0.00     0.101 C 
HETATM    3  N1  UNL     1      19.595  38.482 115.114  1.00  0.00    -0.305 N 
ATOM      4  H1  UNL     1      19.041  39.160 115.637  1.00  0.00     0.170 HD
HETATM    5  C3  UNL     1      20.657  37.916 115.875  1.00  0.00     0.315 C 
HETATM    6  O1  UNL     1      20.794  38.482 117.014  1.00  0.00    -0.262 OA
HETATM    7  C4  UNL     1      21.622  36.843 115.664  1.00  0.00     0.315 C 
HETATM    8  O2  UNL     1      22.324  36.662 116.668  1.00  0.00    -0.262 OA
HETATM    9  N2  UNL     1      21.948  35.956 114.573  1.00  0.00    -0.299 N 
ATOM     10  H2  UNL     1      22.686  35.295 114.815  1.00  0.00     0.171 HD
HETATM   11  C5  UNL     1      21.478  35.785 113.232  1.00  0.00     0.192 C 
HETATM   12  N3  UNL     1      21.827  34.675 112.693  1.00  0.00    -0.287 N 
ATOM     13  H3  UNL     1      22.391  34.005 113.216  1.00  0.00     0.188 HD
HETATM   14  C6  UNL     1      20.676  36.648 112.375  1.00  0.00     0.292 C 
HETATM   15  O3  UNL     1      20.981  36.528 111.160  1.00  0.00    -0.264 OA
HETATM   16  N5  UNL     1      19.627  37.593 112.635  1.00  0.00    -0.307 N 
ATOM     17  H5  UNL     1      19.093  37.811 111.794  1.00  0.00     0.170 HD
ENDROOT
BRANCH  12  18
HETATM   18  N4  UNL     1      21.433  34.393 111.393  1.00  0.00    -0.343 N 
ATOM     19  H42 UNL     1      21.210  35.162 110.761  1.00  0.00     0.176 HD
ATOM     20  H41 UNL     1      21.370  33.422 111.088  1.00  0.00     0.176 HD
ENDBRANCH  12  18
TORSDOF 1
ENDMDL
MODEL 2
REMARK VINA RESULT: -5.847788382      2.657      5.114
REMARK  1 active torsions:
REMARK  status: ('A' for Active; 'I' for Inactive)
REMARK    1  A    between atoms: N3_12  and  N4_14 
ROOT
HETATM    1  C1  UNL     1      23.879  36.601 111.251  1.00  0.00     0.064 C 
HETATM    2  C2  UNL     1      22.776  36.084 111.731  1.00  0.00     0.101 C 
HETATM    3  N1  UNL     1      22.109  35.264 110.768  1.00  0.00    -0.305 N 
ATOM      4  H1  UNL     1      22.534  35.303 109.841  1.00  0.00     0.170 HD
HETATM    5  C3  UNL     1      20.977  34.403 110.832  1.00  0.00     0.315 C 
HETATM    6  O1  UNL     1      20.629  33.970 109.679  1.00  0.00    -0.262 OA
HETATM    7  C4  UNL     1      20.121  33.899 111.900  1.00  0.00     0.315 C 
HETATM    8  O2  UNL     1      19.283  33.097 111.467  1.00  0.00    -0.262 OA
HETATM    9  N2  UNL     1      20.024  34.113 113.324  1.00  0.00    -0.299 N 
ATOM     10  H2  UNL     1      19.297  33.541 113.755  1.00  0.00     0.171 HD
HETATM   11  C5  UNL     1      20.707  34.937 114.273  1.00  0.00     0.192 C 
HETATM   12  N3  UNL     1      20.512  34.599 115.495  1.00  0.00    -0.287 N 
ATOM     13  H3  UNL     1      19.913  33.804 115.719  1.00  0.00     0.188 HD
HETATM   14  C6  UNL     1      21.582  36.088 114.095  1.00  0.00     0.292 C 
HETATM   15  O3  UNL     1      21.478  36.914 115.040  1.00  0.00    -0.264 OA
HETATM   16  N5  UNL     1      22.520  36.464 113.076  1.00  0.00    -0.307 N 
ATOM     17  H5  UNL     1      23.165  37.185 113.398  1.00  0.00     0.170 HD
ENDROOT
BRANCH  12  18
HETATM   18  N4  UNL     1      21.122  35.324 116.510  1.00  0.00    -0.343 N 
ATOM     19  H42 UNL     1      21.398  36.290 116.336  1.00  0.00     0.176 HD
ATOM     20  H41 UNL     1      21.285  34.881 117.413  1.00  0.00     0.176 HD
ENDBRANCH  12  18
TORSDOF 1
ENDMDL
MODEL 3
REMARK VINA RESULT: -5.741830715      1.144      1.146
REMARK  1 active torsions:
REMARK  status: ('A' for Active; 'I' for Inactive)
REMARK    1  A    between atoms: N3_12  and  N4_14 
ROOT
HETATM    1  C1  UNL     1      19.117  39.504 113.122  1.00  0.00     0.064 C 
HETATM    2  C2  UNL     1      19.701  38.384 113.467  1.00  0.00     0.101 C 
HETATM    3  N1  UNL     1      19.922  38.312 114.878  1.00  0.00    -0.305 N 
ATOM      4  H1  UNL     1      19.694  39.178 115.368  1.00  0.00     0.170 HD
HETATM    5  C3  UNL     1      20.392  37.283 115.744  1.00  0.00     0.315 C 
HETATM    6  O1  UNL     1      20.577  37.701 116.939  1.00  0.00    -0.262 OA
HETATM    7  C4  UNL     1      20.711  35.869 115.590  1.00  0.00     0.315 C 
HETATM    8  O2  UNL     1      21.024  35.355 116.672  1.00  0.00    -0.262 OA
HETATM    9  N2  UNL     1      20.747  34.939 114.486  1.00  0.00    -0.299 N 
ATOM     10  H2  UNL     1      20.994  33.994 114.780  1.00  0.00     0.171 HD
HETATM   11  C5  UNL     1      20.516  35.032 113.077  1.00  0.00     0.192 C 
HETATM   12  N3  UNL     1      20.357  33.898 112.498  1.00  0.00    -0.287 N 
ATOM     13  H3  UNL     1      20.400  33.034 113.039  1.00  0.00     0.188 HD
HETATM   14  C6  UNL     1      20.431  36.183 112.188  1.00  0.00     0.292 C 
HETATM   15  O3  UNL     1      20.858  35.923 111.033  1.00  0.00    -0.264 OA
HETATM   16  N5  UNL     1      19.968  37.530 112.364  1.00  0.00    -0.307 N 
ATOM     17  H5  UNL     1      19.784  37.989 111.473  1.00  0.00     0.170 HD
ENDROOT
BRANCH  12  18
HETATM   18  N4  UNL     1      20.127  33.856 111.130  1.00  0.00    -0.343 N 
ATOM     19  H42 UNL     1      19.847  34.709 110.645  1.00  0.00     0.176 HD
ATOM     20  H41 UNL     1      20.239  32.975 110.630  1.00  0.00     0.176 HD
ENDBRANCH  12  18
TORSDOF 1
ENDMDL
MODEL 4
REMARK VINA RESULT: -5.720686224      1.995      2.908
REMARK  1 active torsions:
REMARK  status: ('A' for Active; 'I' for Inactive)
REMARK    1  A    between atoms: N3_12  and  N4_14 
ROOT
HETATM    1  C1  UNL     1      20.112  36.141 110.498  1.00  0.00     0.064 C 
HETATM    2  C2  UNL     1      20.673  36.294 111.671  1.00  0.00     0.101 C 
HETATM    3  N1  UNL     1      19.817  36.986 112.584  1.00  0.00    -0.305 N 
ATOM      4  H1  UNL     1      18.966  37.342 112.148  1.00  0.00     0.170 HD
HETATM    5  C3  UNL     1      19.903  37.281 113.974  1.00  0.00     0.315 C 
HETATM    6  O1  UNL     1      18.969  38.064 114.364  1.00  0.00    -0.262 OA
HETATM    7  C4  UNL     1      20.804  36.902 115.057  1.00  0.00     0.315 C 
HETATM    8  O2  UNL     1      20.425  37.363 116.142  1.00  0.00    -0.262 OA
HETATM    9  N2  UNL     1      22.016  36.126 115.159  1.00  0.00    -0.299 N 
ATOM     10  H2  UNL     1      22.353  36.053 116.119  1.00  0.00     0.171 HD
HETATM   11  C5  UNL     1      22.857  35.435 114.230  1.00  0.00     0.192 C 
HETATM   12  N3  UNL     1      23.677  34.615 114.778  1.00  0.00    -0.287 N 
ATOM     13  H3  UNL     1      23.690  34.501 115.791  1.00  0.00     0.188 HD
HETATM   14  C6  UNL     1      22.945  35.500 112.777  1.00  0.00     0.292 C 
HETATM   15  O3  UNL     1      24.117  35.304 112.363  1.00  0.00    -0.264 OA
HETATM   16  N5  UNL     1      21.979  35.741 111.743  1.00  0.00    -0.307 N 
ATOM     17  H5  UNL     1      22.316  35.437 110.829  1.00  0.00     0.170 HD
ENDROOT
BRANCH  12  18
HETATM   18  N4  UNL     1      24.547  33.884 113.980  1.00  0.00    -0.343 N 
ATOM     19  H42 UNL     1      24.730  34.195 113.026  1.00  0.00     0.176 HD
ATOM     20  H41 UNL     1      24.990  33.047 114.358  1.00  0.00     0.176 HD
ENDBRANCH  12  18
TORSDOF 1
ENDMDL
MODEL 5
REMARK VINA RESULT: -5.512497066      1.892      3.091
REMARK  1 active torsions:
REMARK  status: ('A' for Active; 'I' for Inactive)
REMARK    1  A    between atoms: N3_12  and  N4_14 
ROOT
HETATM    1  C1  UNL     1      20.904  35.225 116.557  1.00  0.00     0.064 C 
HETATM    2  C2  UNL     1      20.531  35.837 115.461  1.00  0.00     0.101 C 
HETATM    3  N1  UNL     1      20.186  37.203 115.705  1.00  0.00    -0.305 N 
ATOM      4  H1  UNL     1      20.179  37.447 116.696  1.00  0.00     0.170 HD
HETATM    5  C3  UNL     1      19.852  38.295 114.855  1.00  0.00     0.315 C 
HETATM    6  O1  UNL     1      19.463  39.322 115.512  1.00  0.00    -0.262 OA
HETATM    7  C4  UNL     1      19.849  38.520 113.413  1.00  0.00     0.315 C 
HETATM    8  O2  UNL     1      19.539  39.686 113.138  1.00  0.00    -0.262 OA
HETATM    9  N2  UNL     1      20.119  37.712 112.249  1.00  0.00    -0.299 N 
ATOM     10  H2  UNL     1      20.043  38.242 111.380  1.00  0.00     0.171 HD
HETATM   11  C5  UNL     1      20.469  36.342 112.026  1.00  0.00     0.192 C 
HETATM   12  N3  UNL     1      20.917  36.102 110.848  1.00  0.00    -0.287 N 
ATOM     13  H3  UNL     1      20.998  36.856 110.165  1.00  0.00     0.188 HD
HETATM   14  C6  UNL     1      20.406  35.177 112.898  1.00  0.00     0.292 C 
HETATM   15  O3  UNL     1      20.163  34.120 112.261  1.00  0.00    -0.264 OA
HETATM   16  N5  UNL     1      20.560  34.999 114.314  1.00  0.00    -0.307 N 
ATOM     17  H5  UNL     1      20.736  34.024 114.559  1.00  0.00     0.170 HD
ENDROOT
BRANCH  12  18
HETATM   18  N4  UNL     1      21.291  34.809 110.510  1.00  0.00    -0.343 N 
ATOM     19  H42 UNL     1      21.032  34.038 111.125  1.00  0.00     0.176 HD
ATOM     20  H41 UNL     1      21.817  34.648 109.651  1.00  0.00     0.176 HD
ENDBRANCH  12  18
TORSDOF 1
ENDMDL
