MODEL 1
REMARK VINA RESULT: -8.912631424      0.000      0.000
REMARK  11 active torsions:
REMARK  status: ('A' for Active; 'I' for Inactive)
REMARK    1  A    between atoms: C2_2  and  N1_3 
REMARK    2  A    between atoms: N1_3  and  C4_5 
REMARK    3  A    between atoms: C8_9  and  O1_10 
REMARK    4  A    between atoms: C18_21  and  C19_22 
REMARK    5  A    between atoms: C23_28  and  N3_29 
REMARK       I    between atoms: N3_29  and  C24_31 
REMARK    6  A    between atoms: C24_31  and  C25_33 
REMARK    7  A    between atoms: C25_33  and  C26_34 
REMARK    8  A    between atoms: C26_34  and  C27_35 
REMARK    9  A    between atoms: C27_35  and  C28_36 
REMARK       I    between atoms: C28_36  and  N4_38 
REMARK   10  A    between atoms: N4_38  and  N5_40 
REMARK   11  A    between atoms: N5_40  and  C29_42 
ROOT
HETATM    1  C4  UNL     1     -10.308  15.930  28.228  1.00  0.00     0.245 C 
HETATM    2  C5  UNL     1     -10.296  15.369  29.568  1.00  0.00     0.043 C 
HETATM    3  C6  UNL     1      -9.002  14.943  30.186  1.00  0.00    -0.002 C 
HETATM    4  C7  UNL     1      -9.454  14.212  31.430  1.00  0.00     0.037 C 
HETATM    5  C8  UNL     1      -8.409  13.873  32.409  1.00  0.00     0.118 C 
HETATM    6  C9  UNL     1      -7.703  15.187  32.779  1.00  0.00     0.032 C 
HETATM    7  C10 UNL     1      -7.043  15.608  31.473  1.00  0.00     0.012 C 
HETATM    8  C11 UNL     1      -8.096  16.097  30.470  1.00  0.00    -0.036 C 
HETATM    9  C12 UNL     1      -8.836  17.200  31.241  1.00  0.00     0.016 C 
HETATM   10  C13 UNL     1      -7.375  16.717  29.372  1.00  0.00     0.001 C 
HETATM   11  C14 UNL     1      -6.034  16.075  29.047  1.00  0.00     0.007 C 
HETATM   12  C15 UNL     1      -5.157  17.060  28.245  1.00  0.00     0.011 C 
HETATM   13  C16 UNL     1      -5.870  17.328  26.996  1.00  0.00    -0.028 C 
HETATM   14  C17 UNL     1      -5.755  16.254  26.001  1.00  0.00     0.016 C 
HETATM   15  C18 UNL     1      -5.707  18.690  26.338  1.00  0.00     0.084 C 
HETATM   16  C20 UNL     1      -7.229  18.492  26.068  1.00  0.00     0.020 C 
HETATM   17  C21 UNL     1      -7.207  17.912  27.376  1.00  0.00     0.002 C 
HETATM   18  C22 UNL     1      -8.143  17.099  28.116  1.00  0.00     0.020 C 
HETATM   19  C23 UNL     1      -8.934  16.024  27.524  1.00  0.00     0.122 C 
ENDROOT
BRANCH  19  20
HETATM   20  N3  UNL     1      -9.256  16.082  26.150  1.00  0.00    -0.354 N 
HETATM   21  C24 UNL     1      -8.988  15.146  25.127  1.00  0.00     0.217 C 
HETATM   22  O3  UNL     1      -8.408  14.043  25.264  1.00  0.00    -0.274 OA
ATOM     23  H3  UNL     1      -9.754  16.921  25.853  1.00  0.00     0.162 HD
BRANCH  21  24
HETATM   24  C25 UNL     1      -9.423  15.460  23.710  1.00  0.00     0.103 C 
BRANCH  24  25
HETATM   25  C26 UNL     1      -8.821  14.535  22.723  1.00  0.00     0.019 C 
BRANCH  25  26
HETATM   26  C27 UNL     1      -8.901  15.080  21.329  1.00  0.00     0.105 C 
BRANCH  26  27
HETATM   27  C28 UNL     1      -8.021  16.223  21.088  1.00  0.00     0.235 C 
HETATM   28  O4  UNL     1      -8.409  17.201  20.407  1.00  0.00    -0.272 OA
HETATM   29  N4  UNL     1      -6.698  16.305  21.595  1.00  0.00    -0.269 N 
ATOM     30  H4  UNL     1      -6.331  15.534  22.153  1.00  0.00     0.190 HD
BRANCH  29  31
HETATM   31  N5  UNL     1      -5.891  17.410  21.350  1.00  0.00    -0.292 N 
ATOM     32  H5  UNL     1      -6.201  18.349  21.601  1.00  0.00     0.187 HD
BRANCH  31  33
HETATM   33  C29 UNL     1      -4.627  17.201  20.743  1.00  0.00     0.088 C 
HETATM   34  C30 UNL     1      -4.492  16.978  19.279  1.00  0.00     0.083 C 
HETATM   35  S1  UNL     1      -3.237  17.200  21.638  1.00  0.00    -0.064 SA
ENDBRANCH  31  33
ENDBRANCH  29  31
ENDBRANCH  26  27
ENDBRANCH  25  26
ENDBRANCH  24  25
ENDBRANCH  21  24
ENDBRANCH  19  20
BRANCH   1  36
HETATM   36  N1  UNL     1     -11.228  15.157  27.421  1.00  0.00     0.090 N 
HETATM   37  C3  UNL     1     -12.558  15.700  27.534  1.00  0.00     0.310 C 
BRANCH  36  38
HETATM   38  C2  UNL     1     -11.169  13.747  27.613  1.00  0.00     0.268 C 
HETATM   39  C1  UNL     1     -11.714  12.995  26.409  1.00  0.00     0.037 C 
ENDBRANCH  36  38
ENDBRANCH   1  36
BRANCH  15  40
HETATM   40  C19 UNL     1      -4.879  18.749  25.139  1.00  0.00     0.236 C 
HETATM   41  N2  UNL     1      -3.476  18.706  25.235  1.00  0.00    -0.062 NA
HETATM   42  O2  UNL     1      -5.413  18.842  24.007  1.00  0.00    -0.276 OA
ENDBRANCH  15  40
BRANCH   5  43
HETATM   43  O1  UNL     1      -8.998  13.348  33.538  1.00  0.00    -0.396 OA
ATOM     44  H1  UNL     1      -9.501  14.027  33.973  1.00  0.00     0.210 HD
ENDBRANCH   5  43
TORSDOF 11
ENDMDL
MODEL 2
REMARK VINA RESULT: -8.909978553      3.252      9.035
REMARK  11 active torsions:
REMARK  status: ('A' for Active; 'I' for Inactive)
REMARK    1  A    between atoms: C2_2  and  N1_3 
REMARK    2  A    between atoms: N1_3  and  C4_5 
REMARK    3  A    between atoms: C8_9  and  O1_10 
REMARK    4  A    between atoms: C18_21  and  C19_22 
REMARK    5  A    between atoms: C23_28  and  N3_29 
REMARK       I    between atoms: N3_29  and  C24_31 
REMARK    6  A    between atoms: C24_31  and  C25_33 
REMARK    7  A    between atoms: C25_33  and  C26_34 
REMARK    8  A    between atoms: C26_34  and  C27_35 
REMARK    9  A    between atoms: C27_35  and  C28_36 
REMARK       I    between atoms: C28_36  and  N4_38 
REMARK   10  A    between atoms: N4_38  and  N5_40 
REMARK   11  A    between atoms: N5_40  and  C29_42 
ROOT
HETATM    1  C4  UNL     1      -5.716  18.302  23.879  1.00  0.00     0.245 C 
HETATM    2  C5  UNL     1      -4.968  18.049  22.659  1.00  0.00     0.043 C 
HETATM    3  C6  UNL     1      -5.055  16.713  21.994  1.00  0.00    -0.002 C 
HETATM    4  C7  UNL     1      -3.970  16.793  20.945  1.00  0.00     0.037 C 
HETATM    5  C8  UNL     1      -3.949  15.722  19.937  1.00  0.00     0.118 C 
HETATM    6  C9  UNL     1      -5.339  15.703  19.279  1.00  0.00     0.032 C 
HETATM    7  C10 UNL     1      -6.260  15.295  20.421  1.00  0.00     0.012 C 
HETATM    8  C11 UNL     1      -6.411  16.443  21.428  1.00  0.00    -0.036 C 
HETATM    9  C12 UNL     1      -6.889  17.617  20.559  1.00  0.00     0.016 C 
HETATM   10  C13 UNL     1      -7.492  16.074  22.326  1.00  0.00     0.001 C 
HETATM   11  C14 UNL     1      -7.599  14.585  22.616  1.00  0.00     0.007 C 
HETATM   12  C15 UNL     1      -9.009  14.249  23.147  1.00  0.00     0.011 C 
HETATM   13  C16 UNL     1      -9.169  14.990  24.398  1.00  0.00    -0.028 C 
HETATM   14  C17 UNL     1      -8.482  14.381  25.543  1.00  0.00     0.016 C 
HETATM   15  C18 UNL     1     -10.559  15.463  24.795  1.00  0.00     0.084 C 
HETATM   16  C20 UNL     1      -9.757  16.720  25.248  1.00  0.00     0.020 C 
HETATM   17  C21 UNL     1      -9.004  16.450  24.062  1.00  0.00     0.002 C 
HETATM   18  C22 UNL     1      -7.729  16.917  23.570  1.00  0.00     0.020 C 
HETATM   19  C23 UNL     1      -6.554  17.117  24.413  1.00  0.00     0.122 C 
ENDROOT
BRANCH  19  20
HETATM   20  N3  UNL     1      -6.731  17.412  25.783  1.00  0.00    -0.354 N 
HETATM   21  C24 UNL     1      -6.303  16.690  26.918  1.00  0.00     0.217 C 
HETATM   22  O3  UNL     1      -5.647  15.622  26.913  1.00  0.00    -0.274 OA
ATOM     23  H3  UNL     1      -7.243  18.272  25.981  1.00  0.00     0.162 HD
BRANCH  21  24
HETATM   24  C25 UNL     1      -6.646  17.215  28.297  1.00  0.00     0.103 C 
BRANCH  24  25
HETATM   25  C26 UNL     1      -6.927  16.122  29.256  1.00  0.00     0.019 C 
BRANCH  25  26
HETATM   26  C27 UNL     1      -8.161  16.394  30.063  1.00  0.00     0.105 C 
BRANCH  26  27
HETATM   27  C28 UNL     1      -9.275  15.497  29.761  1.00  0.00     0.235 C 
HETATM   28  O4  UNL     1      -9.078  14.389  29.212  1.00  0.00    -0.272 OA
HETATM   29  N4  UNL     1     -10.627  15.810  30.062  1.00  0.00    -0.269 N 
ATOM     30  H4  UNL     1     -10.843  16.703  30.506  1.00  0.00     0.190 HD
BRANCH  29  31
HETATM   31  N5  UNL     1     -11.662  14.931  29.765  1.00  0.00    -0.292 N 
ATOM     32  H5  UNL     1     -12.070  14.901  28.831  1.00  0.00     0.187 HD
BRANCH  31  33
HETATM   33  C29 UNL     1     -12.138  14.078  30.793  1.00  0.00     0.088 C 
HETATM   34  C30 UNL     1     -12.525  12.669  30.519  1.00  0.00     0.083 C 
HETATM   35  S1  UNL     1     -12.279  14.610  32.350  1.00  0.00    -0.064 SA
ENDBRANCH  31  33
ENDBRANCH  29  31
ENDBRANCH  26  27
ENDBRANCH  25  26
ENDBRANCH  24  25
ENDBRANCH  21  24
ENDBRANCH  19  20
BRANCH   1  36
HETATM   36  N1  UNL     1      -4.788  18.754  24.894  1.00  0.00     0.090 N 
HETATM   37  C3  UNL     1      -4.671  20.189  24.850  1.00  0.00     0.310 C 
BRANCH  36  38
HETATM   38  C2  UNL     1      -3.535  18.078  24.918  1.00  0.00     0.268 C 
HETATM   39  C1  UNL     1      -3.034  17.876  26.338  1.00  0.00     0.037 C 
ENDBRANCH  36  38
ENDBRANCH   1  36
BRANCH  15  40
HETATM   40  C19 UNL     1     -11.220  14.741  25.876  1.00  0.00     0.236 C 
HETATM   41  N2  UNL     1     -11.680  13.425  25.682  1.00  0.00    -0.062 NA
HETATM   42  O2  UNL     1     -11.385  15.288  26.993  1.00  0.00    -0.276 OA
ENDBRANCH  15  40
BRANCH   5  43
HETATM   43  O1  UNL     1      -3.005  16.017  18.979  1.00  0.00    -0.396 OA
ATOM     44  H1  UNL     1      -3.252  15.607  18.158  1.00  0.00     0.210 HD
ENDBRANCH   5  43
TORSDOF 11
ENDMDL
MODEL 3
REMARK VINA RESULT: -8.859095340      2.536      5.475
REMARK  11 active torsions:
REMARK  status: ('A' for Active; 'I' for Inactive)
REMARK    1  A    between atoms: C2_2  and  N1_3 
REMARK    2  A    between atoms: N1_3  and  C4_5 
REMARK    3  A    between atoms: C8_9  and  O1_10 
REMARK    4  A    between atoms: C18_21  and  C19_22 
REMARK    5  A    between atoms: C23_28  and  N3_29 
REMARK       I    between atoms: N3_29  and  C24_31 
REMARK    6  A    between atoms: C24_31  and  C25_33 
REMARK    7  A    between atoms: C25_33  and  C26_34 
REMARK    8  A    between atoms: C26_34  and  C27_35 
REMARK    9  A    between atoms: C27_35  and  C28_36 
REMARK       I    between atoms: C28_36  and  N4_38 
REMARK   10  A    between atoms: N4_38  and  N5_40 
REMARK   11  A    between atoms: N5_40  and  C29_42 
ROOT
HETATM    1  C4  UNL     1      -9.193  14.197  29.180  1.00  0.00     0.245 C 
HETATM    2  C5  UNL     1     -10.489  13.840  29.733  1.00  0.00     0.043 C 
HETATM    3  C6  UNL     1     -11.740  14.216  29.004  1.00  0.00    -0.002 C 
HETATM    4  C7  UNL     1     -12.819  13.893  30.011  1.00  0.00     0.037 C 
HETATM    5  C8  UNL     1     -14.205  13.914  29.518  1.00  0.00     0.118 C 
HETATM    6  C9  UNL     1     -14.268  12.945  28.326  1.00  0.00     0.032 C 
HETATM    7  C10 UNL     1     -13.362  13.603  27.294  1.00  0.00     0.012 C 
HETATM    8  C11 UNL     1     -11.891  13.482  27.712  1.00  0.00    -0.036 C 
HETATM    9  C12 UNL     1     -11.702  11.970  27.913  1.00  0.00     0.016 C 
HETATM   10  C13 UNL     1     -11.094  13.890  26.568  1.00  0.00     0.001 C 
HETATM   11  C14 UNL     1     -11.714  14.990  25.720  1.00  0.00     0.007 C 
HETATM   12  C15 UNL     1     -11.068  15.005  24.318  1.00  0.00     0.011 C 
HETATM   13  C16 UNL     1      -9.650  15.301  24.518  1.00  0.00    -0.028 C 
HETATM   14  C17 UNL     1      -9.367  16.719  24.775  1.00  0.00     0.016 C 
HETATM   15  C18 UNL     1      -8.636  14.719  23.544  1.00  0.00     0.084 C 
HETATM   16  C20 UNL     1      -7.817  14.533  24.856  1.00  0.00     0.020 C 
HETATM   17  C21 UNL     1      -9.099  14.213  25.404  1.00  0.00     0.002 C 
HETATM   18  C22 UNL     1      -9.597  14.087  26.754  1.00  0.00     0.020 C 
HETATM   19  C23 UNL     1      -9.222  14.979  27.847  1.00  0.00     0.122 C 
ENDROOT
BRANCH  19  20
HETATM   20  N3  UNL     1      -7.970  15.632  27.805  1.00  0.00    -0.354 N 
HETATM   21  C24 UNL     1      -7.676  16.995  27.581  1.00  0.00     0.217 C 
HETATM   22  O3  UNL     1      -8.510  17.911  27.389  1.00  0.00    -0.274 OA
ATOM     23  H3  UNL     1      -7.160  15.031  27.958  1.00  0.00     0.162 HD
BRANCH  21  24
HETATM   24  C25 UNL     1      -6.229  17.443  27.561  1.00  0.00     0.103 C 
BRANCH  24  25
HETATM   25  C26 UNL     1      -5.336  16.477  28.238  1.00  0.00     0.019 C 
BRANCH  25  26
HETATM   26  C27 UNL     1      -3.891  16.812  28.025  1.00  0.00     0.105 C 
BRANCH  26  27
HETATM   27  C28 UNL     1      -3.517  16.959  26.619  1.00  0.00     0.235 C 
HETATM   28  O4  UNL     1      -3.171  18.072  26.159  1.00  0.00    -0.272 OA
HETATM   29  N4  UNL     1      -3.521  15.880  25.697  1.00  0.00    -0.269 N 
ATOM     30  H4  UNL     1      -3.799  14.952  26.019  1.00  0.00     0.190 HD
BRANCH  29  31
HETATM   31  N5  UNL     1      -3.155  16.055  24.367  1.00  0.00    -0.292 N 
ATOM     32  H5  UNL     1      -3.840  16.355  23.674  1.00  0.00     0.187 HD
BRANCH  31  33
HETATM   33  C29 UNL     1      -1.810  15.806  23.999  1.00  0.00     0.088 C 
HETATM   34  C30 UNL     1      -1.211  14.449  24.104  1.00  0.00     0.083 C 
HETATM   35  S1  UNL     1      -0.841  17.015  23.427  1.00  0.00    -0.064 SA
ENDBRANCH  31  33
ENDBRANCH  29  31
ENDBRANCH  26  27
ENDBRANCH  25  26
ENDBRANCH  24  25
ENDBRANCH  21  24
ENDBRANCH  19  20
BRANCH   1  36
HETATM   36  N1  UNL     1      -8.464  14.947  30.181  1.00  0.00     0.090 N 
HETATM   37  C3  UNL     1      -8.167  14.101  31.310  1.00  0.00     0.310 C 
BRANCH  36  38
HETATM   38  C2  UNL     1      -9.038  16.200  30.541  1.00  0.00     0.268 C 
HETATM   39  C1  UNL     1      -8.013  17.120  31.184  1.00  0.00     0.037 C 
ENDBRANCH  36  38
ENDBRANCH   1  36
BRANCH  15  40
HETATM   40  C19 UNL     1      -8.042  15.639  22.581  1.00  0.00     0.236 C 
HETATM   41  N2  UNL     1      -8.754  16.032  21.432  1.00  0.00    -0.062 NA
HETATM   42  O2  UNL     1      -6.885  16.090  22.768  1.00  0.00    -0.276 OA
ENDBRANCH  15  40
BRANCH   5  43
HETATM   43  O1  UNL     1     -15.047  13.459  30.509  1.00  0.00    -0.396 OA
ATOM     44  H1  UNL     1     -15.295  14.187  31.067  1.00  0.00     0.210 HD
ENDBRANCH   5  43
TORSDOF 11
ENDMDL
MODEL 4
REMARK VINA RESULT: -8.825911902      2.264      5.483
REMARK  11 active torsions:
REMARK  status: ('A' for Active; 'I' for Inactive)
REMARK    1  A    between atoms: C2_2  and  N1_3 
REMARK    2  A    between atoms: N1_3  and  C4_5 
REMARK    3  A    between atoms: C8_9  and  O1_10 
REMARK    4  A    between atoms: C18_21  and  C19_22 
REMARK    5  A    between atoms: C23_28  and  N3_29 
REMARK       I    between atoms: N3_29  and  C24_31 
REMARK    6  A    between atoms: C24_31  and  C25_33 
REMARK    7  A    between atoms: C25_33  and  C26_34 
REMARK    8  A    between atoms: C26_34  and  C27_35 
REMARK    9  A    between atoms: C27_35  and  C28_36 
REMARK       I    between atoms: C28_36  and  N4_38 
REMARK   10  A    between atoms: N4_38  and  N5_40 
REMARK   11  A    between atoms: N5_40  and  C29_42 
ROOT
HETATM    1  C4  UNL     1      -9.228  14.178  29.192  1.00  0.00     0.245 C 
HETATM    2  C5  UNL     1     -10.526  13.808  29.733  1.00  0.00     0.043 C 
HETATM    3  C6  UNL     1     -11.773  14.174  28.993  1.00  0.00    -0.002 C 
HETATM    4  C7  UNL     1     -12.859  13.838  29.990  1.00  0.00     0.037 C 
HETATM    5  C8  UNL     1     -14.240  13.847  29.484  1.00  0.00     0.118 C 
HETATM    6  C9  UNL     1     -14.283  12.880  28.289  1.00  0.00     0.032 C 
HETATM    7  C10 UNL     1     -13.375  13.549  27.267  1.00  0.00     0.012 C 
HETATM    8  C11 UNL     1     -11.906  13.441  27.698  1.00  0.00    -0.036 C 
HETATM    9  C12 UNL     1     -11.705  11.931  27.898  1.00  0.00     0.016 C 
HETATM   10  C13 UNL     1     -11.102  13.859  26.562  1.00  0.00     0.001 C 
HETATM   11  C14 UNL     1     -11.725  14.955  25.711  1.00  0.00     0.007 C 
HETATM   12  C15 UNL     1     -11.067  14.979  24.315  1.00  0.00     0.011 C 
HETATM   13  C16 UNL     1      -9.653  15.288  24.528  1.00  0.00    -0.028 C 
HETATM   14  C17 UNL     1      -9.386  16.708  24.791  1.00  0.00     0.016 C 
HETATM   15  C18 UNL     1      -8.626  14.718  23.562  1.00  0.00     0.084 C 
HETATM   16  C20 UNL     1      -7.816  14.537  24.881  1.00  0.00     0.020 C 
HETATM   17  C21 UNL     1      -9.100  14.203  25.417  1.00  0.00     0.002 C 
HETATM   18  C22 UNL     1      -9.609  14.070  26.761  1.00  0.00     0.020 C 
HETATM   19  C23 UNL     1      -9.253  14.963  27.860  1.00  0.00     0.122 C 
ENDROOT
BRANCH  19  20
HETATM   20  N3  UNL     1      -8.006  15.627  27.830  1.00  0.00    -0.354 N 
HETATM   21  C24 UNL     1      -7.723  16.992  27.604  1.00  0.00     0.217 C 
HETATM   22  O3  UNL     1      -8.563  17.899  27.397  1.00  0.00    -0.274 OA
ATOM     23  H3  UNL     1      -7.192  15.035  27.997  1.00  0.00     0.162 HD
BRANCH  21  24
HETATM   24  C25 UNL     1      -6.280  17.454  27.600  1.00  0.00     0.103 C 
BRANCH  24  25
HETATM   25  C26 UNL     1      -5.454  16.715  28.580  1.00  0.00     0.019 C 
BRANCH  25  26
HETATM   26  C27 UNL     1      -3.994  17.010  28.412  1.00  0.00     0.105 C 
BRANCH  26  27
HETATM   27  C28 UNL     1      -3.500  16.804  27.052  1.00  0.00     0.235 C 
HETATM   28  O4  UNL     1      -3.438  15.654  26.558  1.00  0.00    -0.272 OA
HETATM   29  N4  UNL     1      -3.067  17.864  26.214  1.00  0.00    -0.269 N 
ATOM     30  H4  UNL     1      -3.094  18.820  26.568  1.00  0.00     0.190 HD
BRANCH  29  31
HETATM   31  N5  UNL     1      -2.607  17.631  24.922  1.00  0.00    -0.292 N 
ATOM     32  H5  UNL     1      -1.668  17.267  24.761  1.00  0.00     0.187 HD
BRANCH  31  33
HETATM   33  C29 UNL     1      -3.474  17.913  23.836  1.00  0.00     0.088 C 
HETATM   34  C30 UNL     1      -4.652  18.806  23.990  1.00  0.00     0.083 C 
HETATM   35  S1  UNL     1      -3.210  17.264  22.340  1.00  0.00    -0.064 SA
ENDBRANCH  31  33
ENDBRANCH  29  31
ENDBRANCH  26  27
ENDBRANCH  25  26
ENDBRANCH  24  25
ENDBRANCH  21  24
ENDBRANCH  19  20
BRANCH   1  36
HETATM   36  N1  UNL     1      -8.516  14.933  30.201  1.00  0.00     0.090 N 
HETATM   37  C3  UNL     1      -8.216  14.087  31.329  1.00  0.00     0.310 C 
BRANCH  36  38
HETATM   38  C2  UNL     1      -9.106  16.178  30.561  1.00  0.00     0.268 C 
HETATM   39  C1  UNL     1      -8.105  17.096  31.244  1.00  0.00     0.037 C 
ENDBRANCH  36  38
ENDBRANCH   1  36
BRANCH  15  40
HETATM   40  C19 UNL     1      -8.031  15.646  22.606  1.00  0.00     0.236 C 
HETATM   41  N2  UNL     1      -8.734  16.029  21.449  1.00  0.00    -0.062 NA
HETATM   42  O2  UNL     1      -6.883  16.111  22.807  1.00  0.00    -0.276 OA
ENDBRANCH  15  40
BRANCH   5  43
HETATM   43  O1  UNL     1     -15.087  13.382  30.466  1.00  0.00    -0.396 OA
ATOM     44  H1  UNL     1     -15.967  13.698  30.296  1.00  0.00     0.210 HD
ENDBRANCH   5  43
TORSDOF 11
ENDMDL
MODEL 5
REMARK VINA RESULT: -8.825812411      2.855      4.343
REMARK  11 active torsions:
REMARK  status: ('A' for Active; 'I' for Inactive)
REMARK    1  A    between atoms: C2_2  and  N1_3 
REMARK    2  A    between atoms: N1_3  and  C4_5 
REMARK    3  A    between atoms: C8_9  and  O1_10 
REMARK    4  A    between atoms: C18_21  and  C19_22 
REMARK    5  A    between atoms: C23_28  and  N3_29 
REMARK       I    between atoms: N3_29  and  C24_31 
REMARK    6  A    between atoms: C24_31  and  C25_33 
REMARK    7  A    between atoms: C25_33  and  C26_34 
REMARK    8  A    between atoms: C26_34  and  C27_35 
REMARK    9  A    between atoms: C27_35  and  C28_36 
REMARK       I    between atoms: C28_36  and  N4_38 
REMARK   10  A    between atoms: N4_38  and  N5_40 
REMARK   11  A    between atoms: N5_40  and  C29_42 
ROOT
HETATM    1  C4  UNL     1     -13.120  13.939  30.933  1.00  0.00     0.245 C 
HETATM    2  C5  UNL     1     -13.184  13.213  32.191  1.00  0.00     0.043 C 
HETATM    3  C6  UNL     1     -11.930  12.687  32.813  1.00  0.00    -0.002 C 
HETATM    4  C7  UNL     1     -12.455  11.815  33.930  1.00  0.00     0.037 C 
HETATM    5  C8  UNL     1     -11.466  11.334  34.908  1.00  0.00     0.118 C 
HETATM    6  C9  UNL     1     -10.762  12.577  35.476  1.00  0.00     0.032 C 
HETATM    7  C10 UNL     1     -10.031  13.147  34.269  1.00  0.00     0.012 C 
HETATM    8  C11 UNL     1     -11.024  13.778  33.285  1.00  0.00    -0.036 C 
HETATM    9  C12 UNL     1     -11.788  14.790  34.152  1.00  0.00     0.016 C 
HETATM   10  C13 UNL     1     -10.240  14.517  32.311  1.00  0.00     0.001 C 
HETATM   11  C14 UNL     1      -8.893  13.895  31.974  1.00  0.00     0.007 C 
HETATM   12  C15 UNL     1      -7.962  14.955  31.347  1.00  0.00     0.011 C 
HETATM   13  C16 UNL     1      -8.607  15.392  30.109  1.00  0.00    -0.028 C 
HETATM   14  C17 UNL     1      -8.455  14.450  28.993  1.00  0.00     0.016 C 
HETATM   15  C18 UNL     1      -8.392  16.823  29.638  1.00  0.00     0.084 C 
HETATM   16  C20 UNL     1      -9.900  16.691  29.270  1.00  0.00     0.020 C 
HETATM   17  C21 UNL     1      -9.953  15.950  30.493  1.00  0.00     0.002 C 
HETATM   18  C22 UNL     1     -10.937  15.070  31.077  1.00  0.00     0.020 C 
HETATM   19  C23 UNL     1     -11.711  14.094  30.316  1.00  0.00     0.122 C 
ENDROOT
BRANCH  19  20
HETATM   20  N3  UNL     1     -11.961  14.330  28.946  1.00  0.00    -0.354 N 
HETATM   21  C24 UNL     1     -11.623  13.542  27.824  1.00  0.00     0.217 C 
HETATM   22  O3  UNL     1     -11.030  12.438  27.845  1.00  0.00    -0.274 OA
ATOM     23  H3  UNL     1     -12.458  15.196  28.736  1.00  0.00     0.162 HD
BRANCH  21  24
HETATM   24  C25 UNL     1     -11.988  14.037  26.439  1.00  0.00     0.103 C 
BRANCH  24  25
HETATM   25  C26 UNL     1     -11.024  15.040  25.933  1.00  0.00     0.019 C 
BRANCH  25  26
HETATM   26  C27 UNL     1     -10.341  14.573  24.683  1.00  0.00     0.105 C 
BRANCH  26  27
HETATM   27  C28 UNL     1      -9.508  15.593  24.047  1.00  0.00     0.235 C 
HETATM   28  O4  UNL     1      -9.490  15.723  22.801  1.00  0.00    -0.272 OA
HETATM   29  N4  UNL     1      -8.681  16.486  24.777  1.00  0.00    -0.269 N 
ATOM     30  H4  UNL     1      -8.655  16.420  25.795  1.00  0.00     0.190 HD
BRANCH  29  31
HETATM   31  N5  UNL     1      -7.904  17.447  24.139  1.00  0.00    -0.292 N 
ATOM     32  H5  UNL     1      -8.312  18.333  23.840  1.00  0.00     0.187 HD
BRANCH  31  33
HETATM   33  C29 UNL     1      -6.533  17.167  23.914  1.00  0.00     0.088 C 
HETATM   34  C30 UNL     1      -5.709  16.446  24.920  1.00  0.00     0.083 C 
HETATM   35  S1  UNL     1      -5.785  17.623  22.513  1.00  0.00    -0.064 SA
ENDBRANCH  31  33
ENDBRANCH  29  31
ENDBRANCH  26  27
ENDBRANCH  25  26
ENDBRANCH  24  25
ENDBRANCH  21  24
ENDBRANCH  19  20
BRANCH   1  36
HETATM   36  N1  UNL     1     -14.008  13.291  29.991  1.00  0.00     0.090 N 
HETATM   37  C3  UNL     1     -15.156  14.126  29.744  1.00  0.00     0.310 C 
BRANCH  36  38
HETATM   38  C2  UNL     1     -14.338  11.940  30.295  1.00  0.00     0.268 C 
HETATM   39  C1  UNL     1     -13.687  10.971  29.322  1.00  0.00     0.037 C 
ENDBRANCH  36  38
ENDBRANCH   1  36
BRANCH  15  40
HETATM   40  C19 UNL     1      -7.502  17.016  28.498  1.00  0.00     0.236 C 
HETATM   41  N2  UNL     1      -6.110  16.873  28.643  1.00  0.00    -0.062 NA
HETATM   42  O2  UNL     1      -7.973  17.315  27.373  1.00  0.00    -0.276 OA
ENDBRANCH  15  40
BRANCH   5  43
HETATM   43  O1  UNL     1     -12.119  10.683  35.932  1.00  0.00    -0.396 OA
ATOM     44  H1  UNL     1     -13.054  10.695  35.764  1.00  0.00     0.210 HD
ENDBRANCH   5  43
TORSDOF 11
ENDMDL
