MODEL 1
REMARK VINA RESULT: -8.896656081      0.000      0.000
REMARK  11 active torsions:
REMARK  status: ('A' for Active; 'I' for Inactive)
REMARK    1  A    between atoms: C2_2  and  C3_3 
REMARK    2  A    between atoms: C3_3  and  C4_4 
REMARK    3  A    between atoms: C13_17  and  O1_18 
REMARK    4  A    between atoms: C14_20  and  C15_21 
REMARK    5  A    between atoms: C15_21  and  C16_22 
REMARK    6  A    between atoms: C16_22  and  C17_23 
REMARK    7  A    between atoms: C17_23  and  C18_24 
REMARK    8  A    between atoms: C18_24  and  N3_25 
REMARK       I    between atoms: N3_25  and  C19_27 
REMARK       I    between atoms: C19_27  and  N4_29 
REMARK    9  A    between atoms: C26_39  and  C27_40 
REMARK   10  A    between atoms: C27_40  and  C28_41 
REMARK   11  A    between atoms: C31_46  and  O4_47 
ROOT
HETATM    1  C4  UNL     1     -13.733  12.744  30.561  1.00  0.00     0.155 C 
HETATM    2  N1  UNL     1     -13.464  13.010  29.195  1.00  0.00    -0.390 N 
ATOM      3  H1  UNL     1     -12.688  12.546  28.725  1.00  0.00     0.159 HD
HETATM    4  C5  UNL     1     -14.273  13.917  28.493  1.00  0.00     0.056 C 
HETATM    5  C6  UNL     1     -13.498  14.943  27.692  1.00  0.00     0.044 C 
HETATM    6  C7  UNL     1     -12.496  14.287  26.765  1.00  0.00     0.007 C 
HETATM    7  C8  UNL     1     -11.164  14.060  27.461  1.00  0.00     0.031 C 
HETATM    8  C9  UNL     1     -10.014  14.658  26.711  1.00  0.00     0.032 C 
HETATM    9  C10 UNL     1      -8.837  13.756  26.431  1.00  0.00     0.031 C 
HETATM   10  C11 UNL     1      -8.758  14.412  25.045  1.00  0.00     0.005 C 
HETATM   11  C12 UNL     1     -10.251  14.630  25.179  1.00  0.00     0.031 C 
HETATM   12  N2  UNL     1      -9.590  15.958  27.156  1.00  0.00    -0.363 N 
ATOM     13  H2  UNL     1      -9.059  16.476  26.455  1.00  0.00     0.162 HD
HETATM   14  C13 UNL     1      -9.756  16.648  28.343  1.00  0.00     0.135 C 
HETATM   15  C14 UNL     1      -9.199  16.434  29.695  1.00  0.00     0.159 C 
HETATM   16  N5  UNL     1      -8.652  15.117  29.941  1.00  0.00    -0.349 N 
ATOM     17  H5  UNL     1      -7.962  14.798  29.261  1.00  0.00     0.163 HD
HETATM   18  C24 UNL     1      -8.932  14.218  30.977  1.00  0.00     0.220 C 
HETATM   19  O3  UNL     1      -7.939  13.929  31.749  1.00  0.00    -0.274 OA
HETATM   20  C25 UNL     1     -10.193  13.538  31.333  1.00  0.00     0.128 C 
HETATM   21  C26 UNL     1     -10.992  14.256  32.356  1.00  0.00     0.092 C 
HETATM   22  N6  UNL     1     -12.382  14.001  32.438  1.00  0.00    -0.368 N 
ATOM     23  H6  UNL     1     -12.707  13.932  33.402  1.00  0.00     0.161 HD
HETATM   24  C31 UNL     1     -13.414  13.821  31.518  1.00  0.00     0.135 C 
ENDROOT
BRANCH  15  25
HETATM   25  C15 UNL     1      -8.024  17.397  29.956  1.00  0.00     0.033 C 
BRANCH  25  26
HETATM   26  C16 UNL     1      -6.687  16.803  29.790  1.00  0.00     0.004 C 
BRANCH  26  27
HETATM   27  C17 UNL     1      -6.068  17.243  28.484  1.00  0.00     0.020 C 
BRANCH  27  28
HETATM   28  C18 UNL     1      -6.033  16.130  27.503  1.00  0.00     0.124 C 
BRANCH  28  29
HETATM   29  N3  UNL     1      -6.298  16.537  26.141  1.00  0.00    -0.343 N 
HETATM   30  C19 UNL     1      -5.256  16.853  25.261  1.00  0.00     0.318 C 
HETATM   31  O2  UNL     1      -4.069  16.805  25.602  1.00  0.00    -0.247 OA
HETATM   32  N4  UNL     1      -5.554  17.242  23.926  1.00  0.00    -0.334 N 
HETATM   33  C20 UNL     1      -6.896  17.341  23.383  1.00  0.00     0.127 C 
HETATM   34  C23 UNL     1      -4.585  17.595  22.920  1.00  0.00     0.127 C 
HETATM   35  C21 UNL     1      -6.714  17.757  21.949  1.00  0.00     0.022 C 
HETATM   36  C22 UNL     1      -5.291  17.337  21.621  1.00  0.00     0.022 C 
ATOM     37  H3  UNL     1      -7.263  16.595  25.815  1.00  0.00     0.164 HD
ENDBRANCH  28  29
ENDBRANCH  27  28
ENDBRANCH  26  27
ENDBRANCH  25  26
ENDBRANCH  15  25
BRANCH  14  38
HETATM   38  O1  UNL     1     -10.545  17.685  28.299  1.00  0.00    -0.348 OA
ATOM     39  H1  UNL     1     -11.471  17.502  28.197  1.00  0.00     0.219 HD
ENDBRANCH  14  38
BRANCH  21  40
HETATM   40  C27 UNL     1     -10.295  14.097  33.681  1.00  0.00     0.029 C 
BRANCH  40  41
HETATM   41  C28 UNL     1      -9.886  15.308  34.403  1.00  0.00    -0.021 C 
HETATM   42  C29 UNL     1      -8.567  14.940  35.126  1.00  0.00     0.009 C 
HETATM   43  C30 UNL     1      -9.498  16.497  33.546  1.00  0.00     0.009 C 
ENDBRANCH  40  41
ENDBRANCH  21  40
BRANCH  24  44
HETATM   44  O4  UNL     1     -14.323  14.766  31.436  1.00  0.00    -0.348 OA
ATOM     45  H4  UNL     1     -15.161  14.429  31.731  1.00  0.00     0.219 HD
ENDBRANCH  24  44
BRANCH   1  46
HETATM   46  C3  UNL     1     -13.248  11.369  30.941  1.00  0.00     0.033 C 
BRANCH  46  47
HETATM   47  C2  UNL     1     -12.536  10.688  29.775  1.00  0.00    -0.002 C 
HETATM   48  C1  UNL     1     -12.231   9.254  30.145  1.00  0.00     0.005 C 
ENDBRANCH  46  47
ENDBRANCH   1  46
TORSDOF 11
ENDMDL
MODEL 2
REMARK VINA RESULT: -8.774978197      2.305      9.844
REMARK  11 active torsions:
REMARK  status: ('A' for Active; 'I' for Inactive)
REMARK    1  A    between atoms: C2_2  and  C3_3 
REMARK    2  A    between atoms: C3_3  and  C4_4 
REMARK    3  A    between atoms: C13_17  and  O1_18 
REMARK    4  A    between atoms: C14_20  and  C15_21 
REMARK    5  A    between atoms: C15_21  and  C16_22 
REMARK    6  A    between atoms: C16_22  and  C17_23 
REMARK    7  A    between atoms: C17_23  and  C18_24 
REMARK    8  A    between atoms: C18_24  and  N3_25 
REMARK       I    between atoms: N3_25  and  C19_27 
REMARK       I    between atoms: C19_27  and  N4_29 
REMARK    9  A    between atoms: C26_39  and  C27_40 
REMARK   10  A    between atoms: C27_40  and  C28_41 
REMARK   11  A    between atoms: C31_46  and  O4_47 
ROOT
HETATM    1  C4  UNL     1      -4.203  18.288  23.645  1.00  0.00     0.155 C 
HETATM    2  N1  UNL     1      -4.460  18.297  25.038  1.00  0.00    -0.390 N 
ATOM      3  H1  UNL     1      -4.424  17.430  25.573  1.00  0.00     0.159 HD
HETATM    4  C5  UNL     1      -4.763  19.509  25.679  1.00  0.00     0.056 C 
HETATM    5  C6  UNL     1      -5.974  19.440  26.587  1.00  0.00     0.044 C 
HETATM    6  C7  UNL     1      -5.855  18.315  27.594  1.00  0.00     0.007 C 
HETATM    7  C8  UNL     1      -6.399  17.011  27.033  1.00  0.00     0.031 C 
HETATM    8  C9  UNL     1      -7.441  16.398  27.917  1.00  0.00     0.032 C 
HETATM    9  C10 UNL     1      -7.252  14.948  28.292  1.00  0.00     0.031 C 
HETATM   10  C11 UNL     1      -7.743  15.323  29.697  1.00  0.00     0.005 C 
HETATM   11  C12 UNL     1      -7.174  16.698  29.415  1.00  0.00     0.031 C 
HETATM   12  N2  UNL     1      -8.806  16.678  27.558  1.00  0.00    -0.363 N 
ATOM     13  H2  UNL     1      -9.465  16.546  28.326  1.00  0.00     0.162 HD
HETATM   14  C13 UNL     1      -9.404  17.090  26.381  1.00  0.00     0.135 C 
HETATM   15  C14 UNL     1      -9.615  16.405  25.090  1.00  0.00     0.159 C 
HETATM   16  N5  UNL     1      -8.791  15.238  24.862  1.00  0.00    -0.349 N 
ATOM     17  H5  UNL     1      -8.818  14.534  25.601  1.00  0.00     0.163 HD
HETATM   18  C24 UNL     1      -7.961  14.933  23.776  1.00  0.00     0.220 C 
HETATM   19  O3  UNL     1      -8.285  13.880  23.103  1.00  0.00    -0.274 OA
HETATM   20  C25 UNL     1      -6.761  15.628  23.271  1.00  0.00     0.128 C 
HETATM   21  C26 UNL     1      -7.046  16.606  22.191  1.00  0.00     0.092 C 
HETATM   22  N6  UNL     1      -6.120  17.651  21.958  1.00  0.00    -0.368 N 
ATOM     23  H6  UNL     1      -5.971  17.821  20.963  1.00  0.00     0.161 HD
HETATM   24  C31 UNL     1      -5.363  18.504  22.759  1.00  0.00     0.135 C 
ENDROOT
BRANCH  15  25
HETATM   25  C15 UNL     1     -11.062  15.884  24.981  1.00  0.00     0.033 C 
BRANCH  25  26
HETATM   26  C16 UNL     1     -11.264  14.509  25.467  1.00  0.00     0.004 C 
BRANCH  26  27
HETATM   27  C17 UNL     1     -11.878  14.517  26.847  1.00  0.00     0.020 C 
BRANCH  27  28
HETATM   28  C18 UNL     1     -11.211  13.535  27.738  1.00  0.00     0.124 C 
BRANCH  28  29
HETATM   29  N3  UNL     1     -11.047  13.992  29.100  1.00  0.00    -0.343 N 
HETATM   30  C19 UNL     1     -12.083  13.874  30.036  1.00  0.00     0.318 C 
HETATM   31  O2  UNL     1     -13.179  13.383  29.746  1.00  0.00    -0.247 OA
HETATM   32  N4  UNL     1     -11.884  14.327  31.369  1.00  0.00    -0.334 N 
HETATM   33  C20 UNL     1     -10.653  14.922  31.855  1.00  0.00     0.127 C 
HETATM   34  C23 UNL     1     -12.859  14.269  32.428  1.00  0.00     0.127 C 
HETATM   35  C21 UNL     1     -10.903  15.216  33.309  1.00  0.00     0.022 C 
HETATM   36  C22 UNL     1     -12.040  14.281  33.684  1.00  0.00     0.022 C 
ATOM     37  H3  UNL     1     -10.161  14.409  29.385  1.00  0.00     0.164 HD
ENDBRANCH  28  29
ENDBRANCH  27  28
ENDBRANCH  26  27
ENDBRANCH  25  26
ENDBRANCH  15  25
BRANCH  14  38
HETATM   38  O1  UNL     1      -9.882  18.303  26.374  1.00  0.00    -0.348 OA
ATOM     39  H1  UNL     1     -10.517  18.506  27.051  1.00  0.00     0.219 HD
ENDBRANCH  14  38
BRANCH  21  40
HETATM   40  C27 UNL     1      -7.373  15.831  20.942  1.00  0.00     0.029 C 
BRANCH  40  41
HETATM   41  C28 UNL     1      -8.653  16.096  20.275  1.00  0.00    -0.021 C 
HETATM   42  C29 UNL     1      -8.864  14.920  19.290  1.00  0.00     0.009 C 
HETATM   43  C30 UNL     1      -9.888  16.046  21.154  1.00  0.00     0.009 C 
ENDBRANCH  40  41
ENDBRANCH  21  40
BRANCH  24  44
HETATM   44  O4  UNL     1      -5.697  19.775  22.774  1.00  0.00    -0.348 OA
ATOM     45  H4  UNL     1      -5.301  20.217  22.032  1.00  0.00     0.219 HD
ENDBRANCH  24  44
BRANCH   1  46
HETATM   46  C3  UNL     1      -3.308  17.133  23.276  1.00  0.00     0.033 C 
BRANCH  46  47
HETATM   47  C2  UNL     1      -2.886  16.340  24.511  1.00  0.00    -0.002 C 
HETATM   48  C1  UNL     1      -1.785  15.375  24.132  1.00  0.00     0.005 C 
ENDBRANCH  46  47
ENDBRANCH   1  46
TORSDOF 11
ENDMDL
MODEL 3
REMARK VINA RESULT: -8.758211377      1.398      1.517
REMARK  11 active torsions:
REMARK  status: ('A' for Active; 'I' for Inactive)
REMARK    1  A    between atoms: C2_2  and  C3_3 
REMARK    2  A    between atoms: C3_3  and  C4_4 
REMARK    3  A    between atoms: C13_17  and  O1_18 
REMARK    4  A    between atoms: C14_20  and  C15_21 
REMARK    5  A    between atoms: C15_21  and  C16_22 
REMARK    6  A    between atoms: C16_22  and  C17_23 
REMARK    7  A    between atoms: C17_23  and  C18_24 
REMARK    8  A    between atoms: C18_24  and  N3_25 
REMARK       I    between atoms: N3_25  and  C19_27 
REMARK       I    between atoms: C19_27  and  N4_29 
REMARK    9  A    between atoms: C26_39  and  C27_40 
REMARK   10  A    between atoms: C27_40  and  C28_41 
REMARK   11  A    between atoms: C31_46  and  O4_47 
ROOT
HETATM    1  C4  UNL     1     -13.723  12.718  30.493  1.00  0.00     0.155 C 
HETATM    2  N1  UNL     1     -13.414  12.990  29.137  1.00  0.00    -0.390 N 
ATOM      3  H1  UNL     1     -12.622  12.530  28.689  1.00  0.00     0.159 HD
HETATM    4  C5  UNL     1     -14.205  13.896  28.413  1.00  0.00     0.056 C 
HETATM    5  C6  UNL     1     -13.411  14.927  27.639  1.00  0.00     0.044 C 
HETATM    6  C7  UNL     1     -12.379  14.278  26.740  1.00  0.00     0.007 C 
HETATM    7  C8  UNL     1     -11.068  14.054  27.475  1.00  0.00     0.031 C 
HETATM    8  C9  UNL     1      -9.899  14.659  26.761  1.00  0.00     0.032 C 
HETATM    9  C10 UNL     1      -8.710  13.762  26.514  1.00  0.00     0.031 C 
HETATM   10  C11 UNL     1      -8.592  14.422  25.133  1.00  0.00     0.005 C 
HETATM   11  C12 UNL     1     -10.089  14.635  25.223  1.00  0.00     0.031 C 
HETATM   12  N2  UNL     1      -9.493  15.960  27.222  1.00  0.00    -0.363 N 
ATOM     13  H2  UNL     1      -8.944  16.482  26.539  1.00  0.00     0.162 HD
HETATM   14  C13 UNL     1      -9.698  16.644  28.406  1.00  0.00     0.135 C 
HETATM   15  C14 UNL     1      -9.180  16.430  29.773  1.00  0.00     0.159 C 
HETATM   16  N5  UNL     1      -8.636  15.114  30.032  1.00  0.00    -0.349 N 
ATOM     17  H5  UNL     1      -7.924  14.800  29.372  1.00  0.00     0.163 HD
HETATM   18  C24 UNL     1      -8.942  14.211  31.057  1.00  0.00     0.220 C 
HETATM   19  O3  UNL     1      -7.972  13.923  31.857  1.00  0.00    -0.274 OA
HETATM   20  C25 UNL     1     -10.211  13.525  31.372  1.00  0.00     0.128 C 
HETATM   21  C26 UNL     1     -11.043  14.237  32.374  1.00  0.00     0.092 C 
HETATM   22  N6  UNL     1     -12.434  13.975  32.413  1.00  0.00    -0.368 N 
ATOM     23  H6  UNL     1     -12.787  13.902  33.367  1.00  0.00     0.161 HD
HETATM   24  C31 UNL     1     -13.437  13.794  31.462  1.00  0.00     0.135 C 
ENDROOT
BRANCH  15  25
HETATM   25  C15 UNL     1      -8.017  17.396  30.072  1.00  0.00     0.033 C 
BRANCH  25  26
HETATM   26  C16 UNL     1      -6.677  16.791  30.010  1.00  0.00     0.004 C 
BRANCH  26  27
HETATM   27  C17 UNL     1      -6.103  16.908  28.618  1.00  0.00     0.020 C 
BRANCH  27  28
HETATM   28  C18 UNL     1      -4.619  16.879  28.644  1.00  0.00     0.124 C 
BRANCH  28  29
HETATM   29  N3  UNL     1      -4.012  16.671  27.349  1.00  0.00    -0.343 N 
HETATM   30  C19 UNL     1      -3.791  17.738  26.468  1.00  0.00     0.318 C 
HETATM   31  O2  UNL     1      -4.106  18.899  26.750  1.00  0.00    -0.247 OA
HETATM   32  N4  UNL     1      -3.184  17.496  25.205  1.00  0.00    -0.334 N 
HETATM   33  C20 UNL     1      -2.759  16.190  24.738  1.00  0.00     0.127 C 
HETATM   34  C23 UNL     1      -2.901  18.496  24.207  1.00  0.00     0.127 C 
HETATM   35  C21 UNL     1      -2.161  16.430  23.379  1.00  0.00     0.022 C 
HETATM   36  C22 UNL     1      -1.787  17.903  23.397  1.00  0.00     0.022 C 
ATOM     37  H3  UNL     1      -3.739  15.728  27.070  1.00  0.00     0.164 HD
ENDBRANCH  28  29
ENDBRANCH  27  28
ENDBRANCH  26  27
ENDBRANCH  25  26
ENDBRANCH  15  25
BRANCH  14  38
HETATM   38  O1  UNL     1     -10.489  17.679  28.341  1.00  0.00    -0.348 OA
ATOM     39  H1  UNL     1     -10.065  18.530  28.346  1.00  0.00     0.219 HD
ENDBRANCH  14  38
BRANCH  21  40
HETATM   40  C27 UNL     1     -10.385  14.077  33.718  1.00  0.00     0.029 C 
BRANCH  40  41
HETATM   41  C28 UNL     1      -9.978  15.286  34.443  1.00  0.00    -0.021 C 
HETATM   42  C29 UNL     1      -8.690  14.901  35.212  1.00  0.00     0.009 C 
HETATM   43  C30 UNL     1      -9.540  16.460  33.589  1.00  0.00     0.009 C 
ENDBRANCH  40  41
ENDBRANCH  21  40
BRANCH  24  44
HETATM   44  O4  UNL     1     -14.347  14.736  31.356  1.00  0.00    -0.348 OA
ATOM     45  H4  UNL     1     -14.172  15.421  31.990  1.00  0.00     0.219 HD
ENDBRANCH  24  44
BRANCH   1  46
HETATM   46  C3  UNL     1     -13.243  11.345  30.884  1.00  0.00     0.033 C 
BRANCH  46  47
HETATM   47  C2  UNL     1     -12.473  10.680  29.745  1.00  0.00    -0.002 C 
HETATM   48  C1  UNL     1     -12.158   9.250  30.125  1.00  0.00     0.005 C 
ENDBRANCH  46  47
ENDBRANCH   1  46
TORSDOF 11
ENDMDL
MODEL 4
REMARK VINA RESULT: -8.636460143      2.538      9.933
REMARK  11 active torsions:
REMARK  status: ('A' for Active; 'I' for Inactive)
REMARK    1  A    between atoms: C2_2  and  C3_3 
REMARK    2  A    between atoms: C3_3  and  C4_4 
REMARK    3  A    between atoms: C13_17  and  O1_18 
REMARK    4  A    between atoms: C14_20  and  C15_21 
REMARK    5  A    between atoms: C15_21  and  C16_22 
REMARK    6  A    between atoms: C16_22  and  C17_23 
REMARK    7  A    between atoms: C17_23  and  C18_24 
REMARK    8  A    between atoms: C18_24  and  N3_25 
REMARK       I    between atoms: N3_25  and  C19_27 
REMARK       I    between atoms: C19_27  and  N4_29 
REMARK    9  A    between atoms: C26_39  and  C27_40 
REMARK   10  A    between atoms: C27_40  and  C28_41 
REMARK   11  A    between atoms: C31_46  and  O4_47 
ROOT
HETATM    1  C4  UNL     1      -4.151  18.295  23.932  1.00  0.00     0.155 C 
HETATM    2  N1  UNL     1      -4.510  18.219  25.301  1.00  0.00    -0.390 N 
ATOM      3  H1  UNL     1      -4.498  17.321  25.785  1.00  0.00     0.159 HD
HETATM    4  C5  UNL     1      -4.883  19.385  25.986  1.00  0.00     0.056 C 
HETATM    5  C6  UNL     1      -6.155  19.246  26.796  1.00  0.00     0.044 C 
HETATM    6  C7  UNL     1      -6.089  18.065  27.741  1.00  0.00     0.007 C 
HETATM    7  C8  UNL     1      -6.566  16.789  27.068  1.00  0.00     0.031 C 
HETATM    8  C9  UNL     1      -7.659  16.109  27.835  1.00  0.00     0.032 C 
HETATM    9  C10 UNL     1      -7.471  14.642  28.137  1.00  0.00     0.031 C 
HETATM   10  C11 UNL     1      -8.071  14.926  29.522  1.00  0.00     0.005 C 
HETATM   11  C12 UNL     1      -7.508  16.324  29.363  1.00  0.00     0.031 C 
HETATM   12  N2  UNL     1      -8.998  16.390  27.392  1.00  0.00    -0.363 N 
ATOM     13  H2  UNL     1      -9.710  16.204  28.099  1.00  0.00     0.162 HD
HETATM   14  C13 UNL     1      -9.516  16.862  26.199  1.00  0.00     0.135 C 
HETATM   15  C14 UNL     1      -9.619  16.252  24.858  1.00  0.00     0.159 C 
HETATM   16  N5  UNL     1      -8.758  15.112  24.625  1.00  0.00    -0.349 N 
ATOM     17  H5  UNL     1      -8.826  14.366  25.318  1.00  0.00     0.163 HD
HETATM   18  C24 UNL     1      -7.845  14.884  23.588  1.00  0.00     0.220 C 
HETATM   19  O3  UNL     1      -8.099  13.869  22.833  1.00  0.00    -0.274 OA
HETATM   20  C25 UNL     1      -6.624  15.625  23.215  1.00  0.00     0.128 C 
HETATM   21  C26 UNL     1      -6.847  16.661  22.176  1.00  0.00     0.092 C 
HETATM   22  N6  UNL     1      -5.927  17.731  22.073  1.00  0.00    -0.368 N 
ATOM     23  H6  UNL     1      -5.708  17.962  21.103  1.00  0.00     0.161 HD
HETATM   24  C31 UNL     1      -5.247  18.547  22.976  1.00  0.00     0.135 C 
ENDROOT
BRANCH  15  25
HETATM   25  C15 UNL     1     -11.044  15.717  24.612  1.00  0.00     0.033 C 
BRANCH  25  26
HETATM   26  C16 UNL     1     -11.209  14.271  24.828  1.00  0.00     0.004 C 
BRANCH  26  27
HETATM   27  C17 UNL     1     -11.892  14.005  26.149  1.00  0.00     0.020 C 
BRANCH  27  28
HETATM   28  C18 UNL     1     -10.926  13.519  27.165  1.00  0.00     0.124 C 
BRANCH  28  29
HETATM   29  N3  UNL     1     -11.457  12.501  28.044  1.00  0.00    -0.343 N 
HETATM   30  C19 UNL     1     -12.052  12.835  29.268  1.00  0.00     0.318 C 
HETATM   31  O2  UNL     1     -12.146  14.004  29.656  1.00  0.00    -0.247 OA
HETATM   32  N4  UNL     1     -12.571  11.808  30.103  1.00  0.00    -0.334 N 
HETATM   33  C20 UNL     1     -12.534  10.394  29.780  1.00  0.00     0.127 C 
HETATM   34  C23 UNL     1     -13.203  12.008  31.382  1.00  0.00     0.127 C 
HETATM   35  C21 UNL     1     -13.212   9.706  30.933  1.00  0.00     0.022 C 
HETATM   36  C22 UNL     1     -14.067  10.794  31.560  1.00  0.00     0.022 C 
ATOM     37  H3  UNL     1     -11.398  11.521  27.768  1.00  0.00     0.164 HD
ENDBRANCH  28  29
ENDBRANCH  27  28
ENDBRANCH  26  27
ENDBRANCH  25  26
ENDBRANCH  15  25
BRANCH  14  38
HETATM   38  O1  UNL     1     -10.015  18.067  26.227  1.00  0.00    -0.348 OA
ATOM     39  H1  UNL     1      -9.501  18.721  26.685  1.00  0.00     0.219 HD
ENDBRANCH  14  38
BRANCH  21  40
HETATM   40  C27 UNL     1      -7.068  15.957  20.863  1.00  0.00     0.029 C 
BRANCH  40  41
HETATM   41  C28 UNL     1      -8.332  16.186  20.154  1.00  0.00    -0.021 C 
HETATM   42  C29 UNL     1      -8.655  14.855  19.432  1.00  0.00     0.009 C 
HETATM   43  C30 UNL     1      -9.552  16.421  21.024  1.00  0.00     0.009 C 
ENDBRANCH  40  41
ENDBRANCH  21  40
BRANCH  24  44
HETATM   44  O4  UNL     1      -5.605  19.810  23.039  1.00  0.00    -0.348 OA
ATOM     45  H4  UNL     1      -5.580  20.192  22.170  1.00  0.00     0.219 HD
ENDBRANCH  24  44
BRANCH   1  46
HETATM   46  C3  UNL     1      -3.210  17.177  23.565  1.00  0.00     0.033 C 
BRANCH  46  47
HETATM   47  C2  UNL     1      -3.040  16.192  24.718  1.00  0.00    -0.002 C 
HETATM   48  C1  UNL     1      -1.927  15.223  24.387  1.00  0.00     0.005 C 
ENDBRANCH  46  47
ENDBRANCH   1  46
TORSDOF 11
ENDMDL
MODEL 5
REMARK VINA RESULT: -8.308795721      1.719      2.297
REMARK  11 active torsions:
REMARK  status: ('A' for Active; 'I' for Inactive)
REMARK    1  A    between atoms: C2_2  and  C3_3 
REMARK    2  A    between atoms: C3_3  and  C4_4 
REMARK    3  A    between atoms: C13_17  and  O1_18 
REMARK    4  A    between atoms: C14_20  and  C15_21 
REMARK    5  A    between atoms: C15_21  and  C16_22 
REMARK    6  A    between atoms: C16_22  and  C17_23 
REMARK    7  A    between atoms: C17_23  and  C18_24 
REMARK    8  A    between atoms: C18_24  and  N3_25 
REMARK       I    between atoms: N3_25  and  C19_27 
REMARK       I    between atoms: C19_27  and  N4_29 
REMARK    9  A    between atoms: C26_39  and  C27_40 
REMARK   10  A    between atoms: C27_40  and  C28_41 
REMARK   11  A    between atoms: C31_46  and  O4_47 
ROOT
HETATM    1  C4  UNL     1     -12.245  13.200  29.891  1.00  0.00     0.155 C 
HETATM    2  N1  UNL     1     -12.480  13.488  28.523  1.00  0.00    -0.390 N 
ATOM      3  H1  UNL     1     -11.888  13.076  27.803  1.00  0.00     0.159 HD
HETATM    4  C5  UNL     1     -13.533  14.344  28.166  1.00  0.00     0.056 C 
HETATM    5  C6  UNL     1     -13.145  15.421  27.174  1.00  0.00     0.044 C 
HETATM    6  C7  UNL     1     -12.488  14.834  25.942  1.00  0.00     0.007 C 
HETATM    7  C8  UNL     1     -10.987  14.690  26.131  1.00  0.00     0.031 C 
HETATM    8  C9  UNL     1     -10.204  15.363  25.046  1.00  0.00     0.032 C 
HETATM    9  C10 UNL     1      -9.145  14.539  24.355  1.00  0.00     0.031 C 
HETATM   10  C11 UNL     1      -9.588  15.204  23.043  1.00  0.00     0.005 C 
HETATM   11  C12 UNL     1     -10.953  15.326  23.689  1.00  0.00     0.031 C 
HETATM   12  N2  UNL     1      -9.729  16.687  25.351  1.00  0.00    -0.363 N 
ATOM     13  H2  UNL     1      -9.505  17.240  24.523  1.00  0.00     0.162 HD
HETATM   14  C13 UNL     1      -9.516  17.359  26.540  1.00  0.00     0.135 C 
HETATM   15  C14 UNL     1      -8.515  17.177  27.611  1.00  0.00     0.159 C 
HETATM   16  N5  UNL     1      -7.840  15.897  27.620  1.00  0.00    -0.349 N 
ATOM     17  H5  UNL     1      -7.409  15.625  26.736  1.00  0.00     0.163 HD
HETATM   18  C24 UNL     1      -7.691  14.977  28.666  1.00  0.00     0.220 C 
HETATM   19  O3  UNL     1      -6.477  14.749  29.041  1.00  0.00    -0.274 OA
HETATM   20  C25 UNL     1      -8.709  14.217  29.416  1.00  0.00     0.128 C 
HETATM   21  C26 UNL     1      -9.147  14.878  30.671  1.00  0.00     0.092 C 
HETATM   22  N6  UNL     1     -10.405  14.534  31.219  1.00  0.00    -0.368 N 
ATOM     23  H6  UNL     1     -10.373  14.440  32.234  1.00  0.00     0.161 HD
HETATM   24  C31 UNL     1     -11.679  14.292  30.707  1.00  0.00     0.135 C 
ENDROOT
BRANCH  15  25
HETATM   25  C15 UNL     1      -7.380  18.212  27.476  1.00  0.00     0.033 C 
BRANCH  25  26
HETATM   26  C16 UNL     1      -6.232  17.772  26.667  1.00  0.00     0.004 C 
BRANCH  26  27
HETATM   27  C17 UNL     1      -5.076  18.732  26.815  1.00  0.00     0.020 C 
BRANCH  27  28
HETATM   28  C18 UNL     1      -4.759  19.395  25.525  1.00  0.00     0.124 C 
BRANCH  28  29
HETATM   29  N3  UNL     1      -5.450  18.830  24.387  1.00  0.00    -0.343 N 
HETATM   30  C19 UNL     1      -4.749  18.370  23.265  1.00  0.00     0.318 C 
HETATM   31  O2  UNL     1      -3.518  18.429  23.189  1.00  0.00    -0.247 OA
HETATM   32  N4  UNL     1      -5.463  17.814  22.167  1.00  0.00    -0.334 N 
HETATM   33  C20 UNL     1      -6.906  17.678  22.114  1.00  0.00     0.127 C 
HETATM   34  C23 UNL     1      -4.871  17.308  20.955  1.00  0.00     0.127 C 
HETATM   35  C21 UNL     1      -7.194  17.023  20.790  1.00  0.00     0.022 C 
HETATM   36  C22 UNL     1      -5.887  16.339  20.426  1.00  0.00     0.022 C 
ATOM     37  H3  UNL     1      -6.468  18.765  24.403  1.00  0.00     0.164 HD
ENDBRANCH  28  29
ENDBRANCH  27  28
ENDBRANCH  26  27
ENDBRANCH  25  26
ENDBRANCH  15  25
BRANCH  14  38
HETATM   38  O1  UNL     1     -10.330  18.344  26.797  1.00  0.00    -0.348 OA
ATOM     39  H1  UNL     1     -10.469  18.966  26.092  1.00  0.00     0.219 HD
ENDBRANCH  14  38
BRANCH  21  40
HETATM   40  C27 UNL     1      -8.027  14.759  31.670  1.00  0.00     0.029 C 
BRANCH  40  41
HETATM   41  C28 UNL     1      -7.671  15.943  32.461  1.00  0.00    -0.021 C 
HETATM   42  C29 UNL     1      -7.674  17.129  31.467  1.00  0.00     0.009 C 
HETATM   43  C30 UNL     1      -8.673  16.365  33.518  1.00  0.00     0.009 C 
ENDBRANCH  40  41
ENDBRANCH  21  40
BRANCH  24  44
HETATM   44  O4  UNL     1     -12.614  15.177  30.967  1.00  0.00    -0.348 OA
ATOM     45  H4  UNL     1     -12.394  16.005  30.556  1.00  0.00     0.219 HD
ENDBRANCH  24  44
BRANCH   1  46
HETATM   46  C3  UNL     1     -11.578  11.858  30.045  1.00  0.00     0.033 C 
BRANCH  46  47
HETATM   47  C2  UNL     1     -12.403  10.749  29.396  1.00  0.00    -0.002 C 
HETATM   48  C1  UNL     1     -13.625  10.476  30.244  1.00  0.00     0.005 C 
ENDBRANCH  46  47
ENDBRANCH   1  46
TORSDOF 11
ENDMDL
