MODEL 1
REMARK VINA RESULT: -7.668367846      0.000      0.000
REMARK  8 active torsions:
REMARK  status: ('A' for Active; 'I' for Inactive)
REMARK    1  A    between atoms: C3_6  and  N3_7 
REMARK       I    between atoms: N3_7  and  C4_9 
REMARK    2  A    between atoms: C4_9  and  C5_11 
REMARK    3  A    between atoms: N5_14  and  C6_15 
REMARK    4  A    between atoms: C9_20  and  N7_21 
REMARK    5  A    between atoms: C10_24  and  N8_25 
REMARK    6  A    between atoms: C12_29  and  C13_30 
REMARK    7  A    between atoms: C14_33  and  C15_34 
REMARK       I    between atoms: C15_34  and  N9_36 
REMARK    8  A    between atoms: N9_36  and  N10_38 
ROOT
HETATM    1  C5  UNL     1      12.134   7.103 101.134  1.00  0.00     0.135 A 
HETATM    2  N4  UNL     1      12.332   7.370  99.815  1.00  0.00    -0.288 N 
ATOM      3  H4  UNL     1      11.864   6.874  99.056  1.00  0.00     0.188 HD
HETATM    4  N5  UNL     1      13.191   8.333  99.638  1.00  0.00    -0.263 N 
HETATM    5  C11 UNL     1      13.580   8.726 100.847  1.00  0.00     0.137 A 
HETATM    6  C12 UNL     1      12.917   7.950 101.822  1.00  0.00     0.091 A 
ENDROOT
BRANCH   1   7
HETATM    7  C4  UNL     1      11.219   6.019 101.548  1.00  0.00     0.275 C 
HETATM    8  N3  UNL     1       9.858   6.187 101.799  1.00  0.00    -0.318 N 
ATOM      9  H3  UNL     1       9.464   7.119 101.675  1.00  0.00     0.169 HD
HETATM   10  O1  UNL     1      11.733   4.870 101.667  1.00  0.00    -0.266 OA
BRANCH   8  11
HETATM   11  C3  UNL     1       8.986   5.154 102.215  1.00  0.00     0.086 A 
HETATM   12  C2  UNL     1       8.151   4.422 101.404  1.00  0.00     0.139 A 
HETATM   13  N2  UNL     1       7.485   3.558 102.173  1.00  0.00    -0.307 N 
HETATM   14  N1  UNL     1       7.842   3.693 103.424  1.00  0.00    -0.290 N 
ATOM     15  H2  UNL     1       6.796   2.887 101.833  1.00  0.00     0.186 HD
HETATM   16  C1  UNL     1       7.287   2.881 104.509  1.00  0.00     0.178 C 
HETATM   17  C14 UNL     1       8.773   4.666 103.528  1.00  0.00     0.148 A 
BRANCH  17  18
HETATM   18  C15 UNL     1       9.456   5.149 104.705  1.00  0.00     0.290 C 
HETATM   19  O6  UNL     1      10.623   4.692 104.970  1.00  0.00    -0.264 OA
HETATM   20  N9  UNL     1       8.998   6.091 105.638  1.00  0.00    -0.271 N 
ATOM     21  H9  UNL     1       8.081   6.526 105.532  1.00  0.00     0.189 HD
BRANCH  20  22
HETATM   22  N10 UNL     1       9.850   6.429 106.749  1.00  0.00    -0.342 N 
ATOM     23 2H10 UNL     1      10.811   6.725 106.578  1.00  0.00     0.176 HD
ATOM     24 1H10 UNL     1       9.468   6.364 107.693  1.00  0.00     0.176 HD
ENDBRANCH  20  22
ENDBRANCH  17  18
ENDBRANCH   8  11
ENDBRANCH   1   7
BRANCH   6  25
HETATM   25  C13 UNL     1      13.162   8.039 103.241  1.00  0.00     0.213 C 
HETATM   26  O4  UNL     1      12.672   7.303 104.101  1.00  0.00    -0.644 OA
HETATM   27  O5  UNL     1      14.023   9.037 103.688  1.00  0.00    -0.644 OA
ENDBRANCH   6  25
BRANCH   4  28
HETATM   28  C6  UNL     1      13.627   8.858  98.374  1.00  0.00     0.094 A 
HETATM   29  C7  UNL     1      13.042   9.947  97.767  1.00  0.00     0.051 A 
HETATM   30  C8  UNL     1      13.482  10.436  96.546  1.00  0.00     0.092 A 
HETATM   31  N6  UNL     1      14.510   9.811  95.962  1.00  0.00    -0.351 N 
HETATM   32  C9  UNL     1      15.111   8.740  96.526  1.00  0.00     0.134 A 
ATOM     33  H6  UNL     1      14.851  10.154  95.064  1.00  0.00     0.166 HD
HETATM   34  C10 UNL     1      14.683   8.252  97.728  1.00  0.00     0.174 A 
BRANCH  32  35
HETATM   35  N7  UNL     1      16.089   8.186  95.917  1.00  0.00    -0.383 N 
ATOM     36  H72 UNL     1      17.037   8.543  96.034  1.00  0.00     0.157 HD
ATOM     37  H71 UNL     1      15.904   7.385  95.314  1.00  0.00     0.157 HD
ENDBRANCH  32  35
BRANCH  34  38
HETATM   38  N8  UNL     1      15.282   7.128  98.360  1.00  0.00    -0.109 N 
HETATM   39  O2  UNL     1      14.909   5.956  98.170  1.00  0.00    -0.532 OA
HETATM   40  O3  UNL     1      16.326   7.345  99.226  1.00  0.00    -0.532 OA
ENDBRANCH  34  38
ENDBRANCH   4  28
TORSDOF 8
ENDMDL
MODEL 2
REMARK VINA RESULT: -7.470908354      1.259      2.288
REMARK  8 active torsions:
REMARK  status: ('A' for Active; 'I' for Inactive)
REMARK    1  A    between atoms: C3_6  and  N3_7 
REMARK       I    between atoms: N3_7  and  C4_9 
REMARK    2  A    between atoms: C4_9  and  C5_11 
REMARK    3  A    between atoms: N5_14  and  C6_15 
REMARK    4  A    between atoms: C9_20  and  N7_21 
REMARK    5  A    between atoms: C10_24  and  N8_25 
REMARK    6  A    between atoms: C12_29  and  C13_30 
REMARK    7  A    between atoms: C14_33  and  C15_34 
REMARK       I    between atoms: C15_34  and  N9_36 
REMARK    8  A    between atoms: N9_36  and  N10_38 
ROOT
HETATM    1  C5  UNL     1      12.567   7.529 101.346  1.00  0.00     0.135 A 
HETATM    2  N4  UNL     1      12.726   7.617  99.999  1.00  0.00    -0.288 N 
ATOM      3  H4  UNL     1      12.327   6.955  99.333  1.00  0.00     0.188 HD
HETATM    4  N5  UNL     1      13.448   8.647  99.661  1.00  0.00    -0.263 N 
HETATM    5  C11 UNL     1      13.783   9.267 100.788  1.00  0.00     0.137 A 
HETATM    6  C12 UNL     1      13.232   8.567 101.882  1.00  0.00     0.091 A 
ENDROOT
BRANCH   1   7
HETATM    7  C4  UNL     1      11.807   6.409 101.938  1.00  0.00     0.275 C 
HETATM    8  N3  UNL     1      10.915   6.535 103.002  1.00  0.00    -0.318 N 
ATOM      9  H3  UNL     1      10.766   7.468 103.389  1.00  0.00     0.169 HD
HETATM   10  O1  UNL     1      11.993   5.272 101.419  1.00  0.00    -0.266 OA
BRANCH   8  11
HETATM   11  C3  UNL     1      10.201   5.461 103.582  1.00  0.00     0.086 A 
HETATM   12  C2  UNL     1      10.489   4.849 104.779  1.00  0.00     0.139 A 
HETATM   13  N2  UNL     1       9.594   3.877 104.968  1.00  0.00    -0.307 N 
HETATM   14  N1  UNL     1       8.753   3.830 103.968  1.00  0.00    -0.290 N 
ATOM     15  H2  UNL     1       9.570   3.258 105.779  1.00  0.00     0.186 HD
HETATM   16  C1  UNL     1       7.651   2.869 103.889  1.00  0.00     0.178 C 
HETATM   17  C14 UNL     1       9.066   4.787 103.067  1.00  0.00     0.148 A 
BRANCH  17  18
HETATM   18  C15 UNL     1       8.412   5.113 101.822  1.00  0.00     0.290 C 
HETATM   19  O6  UNL     1       7.880   6.270 101.691  1.00  0.00    -0.264 OA
HETATM   20  N9  UNL     1       8.273   4.300 100.687  1.00  0.00    -0.271 N 
ATOM     21  H9  UNL     1       8.657   3.355 100.672  1.00  0.00     0.189 HD
BRANCH  20  22
HETATM   22  N10 UNL     1       7.576   4.830  99.543  1.00  0.00    -0.342 N 
ATOM     23 2H10 UNL     1       6.921   4.239  99.030  1.00  0.00     0.176 HD
ATOM     24 1H10 UNL     1       7.754   5.796  99.269  1.00  0.00     0.176 HD
ENDBRANCH  20  22
ENDBRANCH  17  18
ENDBRANCH   8  11
ENDBRANCH   1   7
BRANCH   6  25
HETATM   25  C13 UNL     1      13.464   8.901 103.266  1.00  0.00     0.213 C 
HETATM   26  O4  UNL     1      13.485   8.101 104.204  1.00  0.00    -0.644 OA
HETATM   27  O5  UNL     1      13.685  10.239 103.580  1.00  0.00    -0.644 OA
ENDBRANCH   6  25
BRANCH   4  28
HETATM   28  C6  UNL     1      13.808   9.028  98.322  1.00  0.00     0.094 A 
HETATM   29  C7  UNL     1      13.222  10.078  97.653  1.00  0.00     0.051 A 
HETATM   30  C8  UNL     1      13.588  10.428  96.362  1.00  0.00     0.092 A 
HETATM   31  N6  UNL     1      14.544   9.703  95.771  1.00  0.00    -0.351 N 
HETATM   32  C9  UNL     1      15.143   8.664  96.395  1.00  0.00     0.134 A 
ATOM     33  H6  UNL     1      14.830   9.941  94.822  1.00  0.00     0.166 HD
HETATM   34  C10 UNL     1      14.788   8.314  97.667  1.00  0.00     0.174 A 
BRANCH  32  35
HETATM   35  N7  UNL     1      16.050   8.010  95.776  1.00  0.00    -0.383 N 
ATOM     36  H72 UNL     1      15.856   7.599  94.863  1.00  0.00     0.157 HD
ATOM     37  H71 UNL     1      16.968   7.907  96.209  1.00  0.00     0.157 HD
ENDBRANCH  32  35
BRANCH  34  38
HETATM   38  N8  UNL     1      15.389   7.229  98.363  1.00  0.00    -0.109 N 
HETATM   39  O2  UNL     1      15.001   6.051  98.261  1.00  0.00    -0.532 OA
HETATM   40  O3  UNL     1      16.451   7.494  99.192  1.00  0.00    -0.532 OA
ENDBRANCH  34  38
ENDBRANCH   4  28
TORSDOF 8
ENDMDL
MODEL 3
REMARK VINA RESULT: -7.097786868      1.531      1.769
REMARK  8 active torsions:
REMARK  status: ('A' for Active; 'I' for Inactive)
REMARK    1  A    between atoms: C3_6  and  N3_7 
REMARK       I    between atoms: N3_7  and  C4_9 
REMARK    2  A    between atoms: C4_9  and  C5_11 
REMARK    3  A    between atoms: N5_14  and  C6_15 
REMARK    4  A    between atoms: C9_20  and  N7_21 
REMARK    5  A    between atoms: C10_24  and  N8_25 
REMARK    6  A    between atoms: C12_29  and  C13_30 
REMARK    7  A    between atoms: C14_33  and  C15_34 
REMARK       I    between atoms: C15_34  and  N9_36 
REMARK    8  A    between atoms: N9_36  and  N10_38 
ROOT
HETATM    1  C5  UNL     1      12.003   7.712 101.270  1.00  0.00     0.135 A 
HETATM    2  N4  UNL     1      12.164   7.888  99.932  1.00  0.00    -0.288 N 
ATOM      3  H4  UNL     1      11.577   7.447  99.223  1.00  0.00     0.188 HD
HETATM    4  N5  UNL     1      13.158   8.687  99.663  1.00  0.00    -0.263 N 
HETATM    5  C11 UNL     1      13.676   9.059 100.829  1.00  0.00     0.137 A 
HETATM    6  C12 UNL     1      12.954   8.444 101.873  1.00  0.00     0.091 A 
ENDROOT
BRANCH   1   7
HETATM    7  C4  UNL     1      10.950   6.813 101.785  1.00  0.00     0.275 C 
HETATM    8  N3  UNL     1      10.595   6.700 103.128  1.00  0.00    -0.318 N 
ATOM      9  H3  UNL     1      11.087   7.289 103.800  1.00  0.00     0.169 HD
HETATM   10  O1  UNL     1      10.341   6.117 100.924  1.00  0.00    -0.266 OA
BRANCH   8  11
HETATM   11  C3  UNL     1       9.600   5.826 103.625  1.00  0.00     0.086 A 
HETATM   12  C2  UNL     1       8.265   6.119 103.776  1.00  0.00     0.139 A 
HETATM   13  N2  UNL     1       7.663   5.041 104.283  1.00  0.00    -0.307 N 
HETATM   14  N1  UNL     1       8.530   4.078 104.466  1.00  0.00    -0.290 N 
ATOM     15  H2  UNL     1       6.668   4.976 104.497  1.00  0.00     0.186 HD
HETATM   16  C1  UNL     1       8.172   2.766 105.008  1.00  0.00     0.178 C 
HETATM   17  C14 UNL     1       9.757   4.493 104.078  1.00  0.00     0.148 A 
BRANCH  17  18
HETATM   18  C15 UNL     1      11.006   3.770 104.088  1.00  0.00     0.290 C 
HETATM   19  O6  UNL     1      11.676   3.684 103.000  1.00  0.00    -0.264 OA
HETATM   20  N9  UNL     1      11.613   3.120 105.173  1.00  0.00    -0.271 N 
ATOM     21  H9  UNL     1      11.173   3.120 106.093  1.00  0.00     0.189 HD
BRANCH  20  22
HETATM   22  N10 UNL     1      12.872   2.453 104.958  1.00  0.00    -0.342 N 
ATOM     23 2H10 UNL     1      13.717   3.003 104.808  1.00  0.00     0.176 HD
ATOM     24 1H10 UNL     1      12.889   1.432 104.962  1.00  0.00     0.176 HD
ENDBRANCH  20  22
ENDBRANCH  17  18
ENDBRANCH   8  11
ENDBRANCH   1   7
BRANCH   6  25
HETATM   25  C13 UNL     1      13.293   8.549 103.272  1.00  0.00     0.213 C 
HETATM   26  O4  UNL     1      13.214   7.639 104.100  1.00  0.00    -0.644 OA
HETATM   27  O5  UNL     1      13.750   9.779 103.737  1.00  0.00    -0.644 OA
ENDBRANCH   6  25
BRANCH   4  28
HETATM   28  C6  UNL     1      13.599   9.080  98.353  1.00  0.00     0.094 A 
HETATM   29  C7  UNL     1      13.035  10.119  97.647  1.00  0.00     0.051 A 
HETATM   30  C8  UNL     1      13.479  10.481  96.384  1.00  0.00     0.092 A 
HETATM   31  N6  UNL     1      14.490   9.780  95.859  1.00  0.00    -0.351 N 
HETATM   32  C9  UNL     1      15.070   8.753  96.520  1.00  0.00     0.134 A 
ATOM     33  H6  UNL     1      14.833  10.028  94.931  1.00  0.00     0.166 HD
HETATM   34  C10 UNL     1      14.637   8.391  97.764  1.00  0.00     0.174 A 
BRANCH  32  35
HETATM   35  N7  UNL     1      16.031   8.122  95.962  1.00  0.00    -0.383 N 
ATOM     36  H72 UNL     1      16.902   8.604  95.739  1.00  0.00     0.157 HD
ATOM     37  H71 UNL     1      15.913   7.133  95.746  1.00  0.00     0.157 HD
ENDBRANCH  32  35
BRANCH  34  38
HETATM   38  N8  UNL     1      15.215   7.318  98.497  1.00  0.00    -0.109 N 
HETATM   39  O2  UNL     1      16.277   7.421  99.138  1.00  0.00    -0.532 OA
HETATM   40  O3  UNL     1      14.569   6.106  98.499  1.00  0.00    -0.532 OA
ENDBRANCH  34  38
ENDBRANCH   4  28
TORSDOF 8
ENDMDL
MODEL 4
REMARK VINA RESULT: -7.009746815      2.746      3.904
REMARK  8 active torsions:
REMARK  status: ('A' for Active; 'I' for Inactive)
REMARK    1  A    between atoms: C3_6  and  N3_7 
REMARK       I    between atoms: N3_7  and  C4_9 
REMARK    2  A    between atoms: C4_9  and  C5_11 
REMARK    3  A    between atoms: N5_14  and  C6_15 
REMARK    4  A    between atoms: C9_20  and  N7_21 
REMARK    5  A    between atoms: C10_24  and  N8_25 
REMARK    6  A    between atoms: C12_29  and  C13_30 
REMARK    7  A    between atoms: C14_33  and  C15_34 
REMARK       I    between atoms: C15_34  and  N9_36 
REMARK    8  A    between atoms: N9_36  and  N10_38 
ROOT
HETATM    1  C5  UNL     1      12.772   7.430 100.128  1.00  0.00     0.135 A 
HETATM    2  N4  UNL     1      11.837   8.255  99.585  1.00  0.00    -0.288 N 
ATOM      3  H4  UNL     1      10.942   8.471 100.024  1.00  0.00     0.188 HD
HETATM    4  N5  UNL     1      12.222   8.736  98.437  1.00  0.00    -0.263 N 
HETATM    5  C11 UNL     1      13.430   8.235  98.197  1.00  0.00     0.137 A 
HETATM    6  C12 UNL     1      13.802   7.393  99.266  1.00  0.00     0.091 A 
ENDROOT
BRANCH   1   7
HETATM    7  C4  UNL     1      12.514   6.753 101.415  1.00  0.00     0.275 C 
HETATM    8  N3  UNL     1      11.531   5.785 101.615  1.00  0.00    -0.318 N 
ATOM      9  H3  UNL     1      10.960   5.515 100.814  1.00  0.00     0.169 HD
HETATM   10  O1  UNL     1      13.255   7.090 102.382  1.00  0.00    -0.266 OA
BRANCH   8  11
HETATM   11  C3  UNL     1      11.269   5.150 102.852  1.00  0.00     0.086 A 
HETATM   12  C2  UNL     1      11.673   3.888 103.217  1.00  0.00     0.139 A 
HETATM   13  N2  UNL     1      11.220   3.652 104.450  1.00  0.00    -0.307 N 
HETATM   14  N1  UNL     1      10.551   4.685 104.895  1.00  0.00    -0.290 N 
ATOM     15  H2  UNL     1      11.373   2.789 104.972  1.00  0.00     0.186 HD
HETATM   16  C1  UNL     1       9.932   4.730 106.221  1.00  0.00     0.178 C 
HETATM   17  C14 UNL     1      10.540   5.657 103.956  1.00  0.00     0.148 A 
BRANCH  17  18
HETATM   18  C15 UNL     1       9.936   6.967 104.011  1.00  0.00     0.290 C 
HETATM   19  O6  UNL     1       8.659   7.056 104.018  1.00  0.00    -0.264 OA
HETATM   20  N9  UNL     1      10.585   8.210 104.059  1.00  0.00    -0.271 N 
ATOM     21  H9  UNL     1      11.604   8.266 104.059  1.00  0.00     0.189 HD
BRANCH  20  22
HETATM   22  N10 UNL     1       9.781   9.404 104.108  1.00  0.00    -0.342 N 
ATOM     23 2H10 UNL     1       9.399   9.721 104.999  1.00  0.00     0.176 HD
ATOM     24 1H10 UNL     1       9.610   9.912 103.240  1.00  0.00     0.176 HD
ENDBRANCH  20  22
ENDBRANCH  17  18
ENDBRANCH   8  11
ENDBRANCH   1   7
BRANCH   6  25
HETATM   25  C13 UNL     1      15.012   6.608  99.304  1.00  0.00     0.213 C 
HETATM   26  O4  UNL     1      16.124   7.019  99.644  1.00  0.00    -0.644 OA
HETATM   27  O5  UNL     1      14.928   5.270  98.929  1.00  0.00    -0.644 OA
ENDBRANCH   6  25
BRANCH   4  28
HETATM   28  C6  UNL     1      11.474   9.633  97.599  1.00  0.00     0.094 A 
HETATM   29  C7  UNL     1      10.580   9.204  96.644  1.00  0.00     0.051 A 
HETATM   30  C8  UNL     1       9.869  10.090  95.849  1.00  0.00     0.092 A 
HETATM   31  N6  UNL     1      10.077  11.397  96.037  1.00  0.00    -0.351 N 
HETATM   32  C9  UNL     1      10.947  11.857  96.964  1.00  0.00     0.134 A 
ATOM     33  H6  UNL     1       9.565  12.067  95.464  1.00  0.00     0.166 HD
HETATM   34  C10 UNL     1      11.651  10.991  97.751  1.00  0.00     0.174 A 
BRANCH  32  35
HETATM   35  N7  UNL     1      11.102  13.119  97.094  1.00  0.00    -0.383 N 
ATOM     36  H72 UNL     1      10.408  13.674  97.596  1.00  0.00     0.157 HD
ATOM     37  H71 UNL     1      11.928  13.559  96.690  1.00  0.00     0.157 HD
ENDBRANCH  32  35
BRANCH  34  38
HETATM   38  N8  UNL     1      12.577  11.428  98.739  1.00  0.00    -0.109 N 
HETATM   39  O2  UNL     1      13.726  11.826  98.472  1.00  0.00    -0.532 OA
HETATM   40  O3  UNL     1      12.185  11.407 100.055  1.00  0.00    -0.532 OA
ENDBRANCH  34  38
ENDBRANCH   4  28
TORSDOF 8
ENDMDL
MODEL 5
REMARK VINA RESULT: -6.980708964      7.434     12.223
REMARK  8 active torsions:
REMARK  status: ('A' for Active; 'I' for Inactive)
REMARK    1  A    between atoms: C3_6  and  N3_7 
REMARK       I    between atoms: N3_7  and  C4_9 
REMARK    2  A    between atoms: C4_9  and  C5_11 
REMARK    3  A    between atoms: N5_14  and  C6_15 
REMARK    4  A    between atoms: C9_20  and  N7_21 
REMARK    5  A    between atoms: C10_24  and  N8_25 
REMARK    6  A    between atoms: C12_29  and  C13_30 
REMARK    7  A    between atoms: C14_33  and  C15_34 
REMARK       I    between atoms: C15_34  and  N9_36 
REMARK    8  A    between atoms: N9_36  and  N10_38 
ROOT
HETATM    1  C5  UNL     1       8.995   3.569 108.507  1.00  0.00     0.135 A 
HETATM    2  N4  UNL     1       9.297   3.790 109.815  1.00  0.00    -0.288 N 
ATOM      3  H4  UNL     1      10.248   3.848 110.179  1.00  0.00     0.188 HD
HETATM    4  N5  UNL     1       8.225   3.919 110.545  1.00  0.00    -0.263 N 
HETATM    5  C11 UNL     1       7.186   3.786 109.727  1.00  0.00     0.137 A 
HETATM    6  C12 UNL     1       7.655   3.557 108.416  1.00  0.00     0.091 A 
ENDROOT
BRANCH   1   7
HETATM    7  C4  UNL     1      10.072   3.361 107.517  1.00  0.00     0.275 C 
HETATM    8  N3  UNL     1      10.751   2.158 107.330  1.00  0.00    -0.318 N 
ATOM      9  H3  UNL     1      10.476   1.363 107.907  1.00  0.00     0.169 HD
HETATM   10  O1  UNL     1      10.371   4.358 106.800  1.00  0.00    -0.266 OA
BRANCH   8  11
HETATM   11  C3  UNL     1      11.796   1.963 106.396  1.00  0.00     0.086 A 
HETATM   12  C2  UNL     1      12.043   2.731 105.283  1.00  0.00     0.139 A 
HETATM   13  N2  UNL     1      13.103   2.217 104.657  1.00  0.00    -0.307 N 
HETATM   14  N1  UNL     1      13.549   1.169 105.300  1.00  0.00    -0.290 N 
ATOM     15  H2  UNL     1      13.510   2.589 103.798  1.00  0.00     0.186 HD
HETATM   16  C1  UNL     1      14.708   0.389 104.860  1.00  0.00     0.178 C 
HETATM   17  C14 UNL     1      12.787   0.950 106.394  1.00  0.00     0.148 A 
BRANCH  17  18
HETATM   18  C15 UNL     1      12.911  -0.081 107.398  1.00  0.00     0.290 C 
HETATM   19  O6  UNL     1      12.781   0.243 108.630  1.00  0.00    -0.264 OA
HETATM   20  N9  UNL     1      13.166  -1.446 107.200  1.00  0.00    -0.271 N 
ATOM     21  H9  UNL     1      13.287  -1.823 106.259  1.00  0.00     0.189 HD
BRANCH  20  22
HETATM   22  N10 UNL     1      13.251  -2.304 108.354  1.00  0.00    -0.342 N 
ATOM     23 2H10 UNL     1      12.845  -2.003 109.239  1.00  0.00     0.176 HD
ATOM     24 1H10 UNL     1      13.723  -3.204 108.257  1.00  0.00     0.176 HD
ENDBRANCH  20  22
ENDBRANCH  17  18
ENDBRANCH   8  11
ENDBRANCH   1   7
BRANCH   6  25
HETATM   25  C13 UNL     1       6.808   3.277 107.282  1.00  0.00     0.213 C 
HETATM   26  O4  UNL     1       5.927   4.020 106.844  1.00  0.00    -0.644 OA
HETATM   27  O5  UNL     1       6.993   2.067 106.620  1.00  0.00    -0.644 OA
ENDBRANCH   6  25
BRANCH   4  28
HETATM   28  C6  UNL     1       8.188   4.157 111.961  1.00  0.00     0.094 A 
HETATM   29  C7  UNL     1       7.790   5.353 112.515  1.00  0.00     0.051 A 
HETATM   30  C8  UNL     1       7.761   5.559 113.887  1.00  0.00     0.092 A 
HETATM   31  N6  UNL     1       8.139   4.545 114.673  1.00  0.00    -0.351 N 
HETATM   32  C9  UNL     1       8.537   3.356 114.167  1.00  0.00     0.134 A 
ATOM     33  H6  UNL     1       8.125   4.673 115.684  1.00  0.00     0.166 HD
HETATM   34  C10 UNL     1       8.567   3.147 112.818  1.00  0.00     0.174 A 
BRANCH  32  35
HETATM   35  N7  UNL     1       8.886   2.427 114.973  1.00  0.00    -0.383 N 
ATOM     36  H72 UNL     1       8.255   1.650 115.166  1.00  0.00     0.157 HD
ATOM     37  H71 UNL     1       9.803   2.477 115.416  1.00  0.00     0.157 HD
ENDBRANCH  32  35
BRANCH  34  38
HETATM   38  N8  UNL     1       8.979   1.914 112.240  1.00  0.00    -0.109 N 
HETATM   39  O2  UNL     1      10.161   1.657 111.945  1.00  0.00    -0.532 OA
HETATM   40  O3  UNL     1       8.024   0.959 111.991  1.00  0.00    -0.532 OA
ENDBRANCH  34  38
ENDBRANCH   4  28
TORSDOF 8
ENDMDL
