MODEL 1
REMARK VINA RESULT: -5.215081242      0.000      0.000
REMARK  1 active torsions:
REMARK  status: ('A' for Active; 'I' for Inactive)
REMARK    1  A    between atoms: O1_1  and  C1_3 
ROOT
HETATM    1  C1  UNL     1      16.837   2.379  10.774  1.00  0.00     0.142 C 
HETATM    2  C2  UNL     1      18.254   1.865  10.835  1.00  0.00     0.199 C 
HETATM    3  O2  UNL     1      19.193   2.814  10.544  1.00  0.00    -0.388 OA
HETATM    4  C3  UNL     1      19.152   3.927  11.347  1.00  0.00     0.179 C 
HETATM    5  C4  UNL     1      17.835   4.609  11.429  1.00  0.00     0.015 C 
HETATM    6  C5  UNL     1      16.645   3.735  11.317  1.00  0.00     0.047 C 
HETATM    7  C6  UNL     1      17.779   5.810  10.478  1.00  0.00     0.284 C 
HETATM    8  N1  UNL     1      18.021   6.988  11.295  1.00  0.00     0.089 N 
HETATM    9  C7  UNL     1      16.771   7.383  11.972  1.00  0.00     0.273 C 
HETATM   10  C8  UNL     1      16.437   6.103  12.737  1.00  0.00     0.037 C 
HETATM   11  C9  UNL     1      17.730   5.348  12.763  1.00  0.00     0.028 C 
HETATM   12  C10 UNL     1      18.721   6.484  12.494  1.00  0.00     0.278 C 
ENDROOT
BRANCH   1  13
HETATM   13  O1  UNL     1      16.359   2.272   9.449  1.00  0.00    -0.393 OA
ATOM     14  H1  UNL     1      15.565   1.751   9.443  1.00  0.00     0.210 HD
ENDBRANCH   1  13
TORSDOF 1
ENDMDL
MODEL 2
REMARK VINA RESULT: -5.192649422      1.316      1.710
REMARK  1 active torsions:
REMARK  status: ('A' for Active; 'I' for Inactive)
REMARK    1  A    between atoms: O1_1  and  C1_3 
ROOT
HETATM    1  C1  UNL     1      16.173   3.632  12.155  1.00  0.00     0.142 C 
HETATM    2  C2  UNL     1      16.984   2.429  11.742  1.00  0.00     0.199 C 
HETATM    3  O2  UNL     1      17.934   2.707  10.800  1.00  0.00    -0.388 OA
HETATM    4  C3  UNL     1      18.838   3.674  11.166  1.00  0.00     0.179 C 
HETATM    5  C4  UNL     1      18.251   4.965  11.606  1.00  0.00     0.015 C 
HETATM    6  C5  UNL     1      16.942   4.882  12.293  1.00  0.00     0.047 C 
HETATM    7  C6  UNL     1      18.256   5.988  10.463  1.00  0.00     0.284 C 
HETATM    8  N1  UNL     1      19.399   6.854  10.698  1.00  0.00     0.089 N 
HETATM    9  C7  UNL     1      19.044   7.878  11.699  1.00  0.00     0.273 C 
HETATM   10  C8  UNL     1      18.627   7.000  12.877  1.00  0.00     0.037 C 
HETATM   11  C9  UNL     1      19.220   5.662  12.560  1.00  0.00     0.028 C 
HETATM   12  C10 UNL     1      20.305   6.068  11.559  1.00  0.00     0.278 C 
ENDROOT
BRANCH   1  13
HETATM   13  O1  UNL     1      15.081   3.784  11.272  1.00  0.00    -0.393 OA
ATOM     14  H1  UNL     1      15.319   3.446  10.417  1.00  0.00     0.210 HD
ENDBRANCH   1  13
TORSDOF 1
ENDMDL
MODEL 3
REMARK VINA RESULT: -5.137082902      1.166      1.224
REMARK  1 active torsions:
REMARK  status: ('A' for Active; 'I' for Inactive)
REMARK    1  A    between atoms: O1_1  and  C1_3 
ROOT
HETATM    1  C1  UNL     1      16.593   2.676  11.696  1.00  0.00     0.142 C 
HETATM    2  C2  UNL     1      18.032   2.504  11.279  1.00  0.00     0.199 C 
HETATM    3  O2  UNL     1      18.605   3.650  10.804  1.00  0.00    -0.388 OA
HETATM    4  C3  UNL     1      18.581   4.708  11.678  1.00  0.00     0.179 C 
HETATM    5  C4  UNL     1      17.244   5.064  12.216  1.00  0.00     0.015 C 
HETATM    6  C5  UNL     1      16.295   3.941  12.391  1.00  0.00     0.047 C 
HETATM    7  C6  UNL     1      16.634   6.237  11.438  1.00  0.00     0.284 C 
HETATM    8  N1  UNL     1      16.862   7.424  12.246  1.00  0.00     0.089 N 
HETATM    9  C7  UNL     1      15.835   7.506  13.302  1.00  0.00     0.273 C 
HETATM   10  C8  UNL     1      16.042   6.170  14.013  1.00  0.00     0.037 C 
HETATM   11  C9  UNL     1      17.408   5.736  13.579  1.00  0.00     0.028 C 
HETATM   12  C10 UNL     1      17.996   7.075  13.126  1.00  0.00     0.278 C 
ENDROOT
BRANCH   1  13
HETATM   13  O1  UNL     1      15.757   2.485  10.574  1.00  0.00    -0.393 OA
ATOM     14  H1  UNL     1      16.252   2.065   9.881  1.00  0.00     0.210 HD
ENDBRANCH   1  13
TORSDOF 1
ENDMDL
MODEL 4
REMARK VINA RESULT: -5.003815660      4.600      5.393
REMARK  1 active torsions:
REMARK  status: ('A' for Active; 'I' for Inactive)
REMARK    1  A    between atoms: O1_1  and  C1_3 
ROOT
HETATM    1  C1  UNL     1      14.138   3.562  17.455  1.00  0.00     0.142 C 
HETATM    2  C2  UNL     1      15.226   2.528  17.315  1.00  0.00     0.199 C 
HETATM    3  O2  UNL     1      15.713   2.415  16.043  1.00  0.00    -0.388 OA
HETATM    4  C3  UNL     1      16.218   3.578  15.517  1.00  0.00     0.179 C 
HETATM    5  C4  UNL     1      15.298   4.744  15.544  1.00  0.00     0.015 C 
HETATM    6  C5  UNL     1      14.353   4.798  16.682  1.00  0.00     0.047 C 
HETATM    7  C6  UNL     1      14.604   4.927  14.188  1.00  0.00     0.284 C 
HETATM    8  N1  UNL     1      15.325   5.984  13.501  1.00  0.00     0.089 N 
HETATM    9  C7  UNL     1      14.860   7.297  13.989  1.00  0.00     0.273 C 
HETATM   10  C8  UNL     1      15.142   7.167  15.485  1.00  0.00     0.037 C 
HETATM   11  C9  UNL     1      16.118   6.034  15.573  1.00  0.00     0.028 C 
HETATM   12  C10 UNL     1      16.657   6.017  14.140  1.00  0.00     0.278 C 
ENDROOT
BRANCH   1  13
HETATM   13  O1  UNL     1      12.890   2.970  17.160  1.00  0.00    -0.393 OA
ATOM     14  H1  UNL     1      12.405   3.536  16.571  1.00  0.00     0.210 HD
ENDBRANCH   1  13
TORSDOF 1
ENDMDL
MODEL 5
REMARK VINA RESULT: -4.892918381      3.214      4.466
REMARK  1 active torsions:
REMARK  status: ('A' for Active; 'I' for Inactive)
REMARK    1  A    between atoms: O1_1  and  C1_3 
ROOT
HETATM    1  C1  UNL     1      16.029   3.240  15.617  1.00  0.00     0.142 C 
HETATM    2  C2  UNL     1      15.298   4.541  15.833  1.00  0.00     0.199 C 
HETATM    3  O2  UNL     1      15.766   5.567  15.060  1.00  0.00    -0.388 OA
HETATM    4  C3  UNL     1      15.734   5.327  13.708  1.00  0.00     0.179 C 
HETATM    5  C4  UNL     1      16.413   4.083  13.263  1.00  0.00     0.015 C 
HETATM    6  C5  UNL     1      16.378   2.949  14.215  1.00  0.00     0.047 C 
HETATM    7  C6  UNL     1      17.827   4.382  12.751  1.00  0.00     0.284 C 
HETATM    8  N1  UNL     1      17.737   4.409  11.301  1.00  0.00     0.089 N 
HETATM    9  C7  UNL     1      17.770   3.029  10.779  1.00  0.00     0.273 C 
HETATM   10  C8  UNL     1      16.575   2.415  11.505  1.00  0.00     0.037 C 
HETATM   11  C9  UNL     1      15.779   3.600  11.959  1.00  0.00     0.028 C 
HETATM   12  C10 UNL     1      16.313   4.676  11.010  1.00  0.00     0.278 C 
ENDROOT
BRANCH   1  13
HETATM   13  O1  UNL     1      17.162   3.196  16.459  1.00  0.00    -0.393 OA
ATOM     14  H1  UNL     1      17.167   2.374  16.936  1.00  0.00     0.210 HD
ENDBRANCH   1  13
TORSDOF 1
ENDMDL
