MODEL 1
REMARK VINA RESULT: -7.566743356      0.000      0.000
REMARK  6 active torsions:
REMARK  status: ('A' for Active; 'I' for Inactive)
REMARK    1  A    between atoms: N1_1  and  C1_4 
REMARK    2  A    between atoms: C4_10  and  N4_11 
REMARK    3  A    between atoms: C6_17  and  C7_18 
REMARK    4  A    between atoms: C8_21  and  N7_22 
REMARK       I    between atoms: N7_22  and  C9_24 
REMARK    5  A    between atoms: C9_24  and  C10_26 
REMARK    6  A    between atoms: C10_26  and  N8_27 
ROOT
HETATM    1  C1  UNL     1       5.462 -29.498 -26.326  1.00  0.00     0.058 C 
HETATM    2  C2  UNL     1       5.043 -30.832 -26.468  1.00  0.00     0.076 C 
HETATM    3  C3  UNL     1       5.809 -31.985 -26.423  1.00  0.00     0.120 C 
HETATM    4  N2  UNL     1       5.103 -33.186 -26.143  1.00  0.00    -0.083 NA
HETATM    5  N3  UNL     1       7.159 -32.068 -26.622  1.00  0.00    -0.329 N 
ATOM      6  H3  UNL     1       7.522 -32.960 -26.958  1.00  0.00     0.168 HD
HETATM    7  C4  UNL     1       8.059 -31.081 -26.417  1.00  0.00     0.129 C 
HETATM    8  C5  UNL     1       7.840 -29.828 -25.833  1.00  0.00     0.106 A 
HETATM    9  N5  UNL     1       8.924 -29.329 -25.258  1.00  0.00    -0.344 N 
ATOM     10  H5  UNL     1       9.800 -29.850 -25.291  1.00  0.00     0.166 HD
HETATM   11  C6  UNL     1       8.874 -28.116 -24.620  1.00  0.00     0.143 A 
HETATM   12  C8  UNL     1       7.713 -27.390 -24.557  1.00  0.00     0.141 A 
HETATM   13  N12 UNL     1       6.592 -27.915 -25.156  1.00  0.00    -0.337 N 
ATOM     14  H12 UNL     1       5.708 -27.405 -25.130  1.00  0.00     0.167 HD
HETATM   15  C11 UNL     1       6.667 -29.093 -25.769  1.00  0.00     0.091 A 
ENDROOT
BRANCH  12  16
HETATM   16  N7  UNL     1       7.596 -26.131 -23.910  1.00  0.00    -0.310 N 
HETATM   17  C9  UNL     1       6.758 -25.999 -22.736  1.00  0.00     0.244 C 
HETATM   18  O2  UNL     1       6.136 -26.933 -22.249  1.00  0.00    -0.271 OA
ATOM     19  H7  UNL     1       8.100 -25.322 -24.271  1.00  0.00     0.170 HD
BRANCH  17  20
HETATM   20  C10 UNL     1       6.683 -24.642 -22.122  1.00  0.00     0.275 C 
BRANCH  20  21
HETATM   21  N8  UNL     1       7.207 -23.649 -23.054  1.00  0.00    -0.194 N 
HETATM   22  N9  UNL     1       7.861 -23.649 -24.184  1.00  0.00    -0.209 N 
HETATM   23  N10 UNL     1       7.833 -22.317 -24.195  1.00  0.00    -0.211 N 
ATOM     24  H9  UNL     1       8.237 -24.369 -24.802  1.00  0.00     0.211 HD
HETATM   25  N11 UNL     1       7.178 -22.315 -23.062  1.00  0.00    -0.209 N 
ATOM     26  H10 UNL     1       8.179 -21.595 -24.826  1.00  0.00     0.211 HD
ATOM     27  H11 UNL     1       6.803 -21.596 -22.444  1.00  0.00     0.211 HD
ENDBRANCH  20  21
ENDBRANCH  17  20
ENDBRANCH  12  16
BRANCH  11  28
HETATM   28  C7  UNL     1      10.102 -27.621 -23.999  1.00  0.00     0.285 C 
HETATM   29  N6  UNL     1      11.359 -28.152 -24.474  1.00  0.00    -0.056 NA
HETATM   30  O1  UNL     1      10.220 -26.784 -23.098  1.00  0.00    -0.269 OA
ENDBRANCH  11  28
BRANCH   1  31
HETATM   31  N1  UNL     1       4.707 -28.565 -26.737  1.00  0.00    -0.397 N 
ATOM     32  H12 UNL     1       3.733 -28.823 -26.893  1.00  0.00     0.156 HD
ATOM     33  H11 UNL     1       5.099 -27.633 -26.878  1.00  0.00     0.156 HD
ENDBRANCH   1  31
BRANCH   7  34
HETATM   34  N4  UNL     1       9.262 -31.320 -26.794  1.00  0.00    -0.384 N 
ATOM     35  H42 UNL     1       9.489 -32.300 -26.961  1.00  0.00     0.157 HD
ATOM     36  H41 UNL     1       9.874 -30.510 -26.896  1.00  0.00     0.157 HD
ENDBRANCH   7  34
TORSDOF 6
ENDMDL
MODEL 2
REMARK VINA RESULT: -6.726737871      1.315      1.598
REMARK  6 active torsions:
REMARK  status: ('A' for Active; 'I' for Inactive)
REMARK    1  A    between atoms: N1_1  and  C1_4 
REMARK    2  A    between atoms: C4_10  and  N4_11 
REMARK    3  A    between atoms: C6_17  and  C7_18 
REMARK    4  A    between atoms: C8_21  and  N7_22 
REMARK       I    between atoms: N7_22  and  C9_24 
REMARK    5  A    between atoms: C9_24  and  C10_26 
REMARK    6  A    between atoms: C10_26  and  N8_27 
ROOT
HETATM    1  C1  UNL     1       5.486 -29.365 -26.088  1.00  0.00     0.058 C 
HETATM    2  C2  UNL     1       5.041 -30.679 -26.316  1.00  0.00     0.076 C 
HETATM    3  C3  UNL     1       5.791 -31.840 -26.400  1.00  0.00     0.120 C 
HETATM    4  N2  UNL     1       5.082 -33.052 -26.184  1.00  0.00    -0.083 NA
HETATM    5  N3  UNL     1       7.130 -31.921 -26.668  1.00  0.00    -0.329 N 
ATOM      6  H3  UNL     1       7.464 -32.787 -27.092  1.00  0.00     0.168 HD
HETATM    7  C4  UNL     1       8.053 -30.965 -26.427  1.00  0.00     0.129 C 
HETATM    8  C5  UNL     1       7.879 -29.760 -25.735  1.00  0.00     0.106 A 
HETATM    9  N5  UNL     1       8.996 -29.321 -25.175  1.00  0.00    -0.344 N 
ATOM     10  H5  UNL     1       9.862 -29.847 -25.291  1.00  0.00     0.166 HD
HETATM   11  C6  UNL     1       8.993 -28.163 -24.440  1.00  0.00     0.143 A 
HETATM   12  C8  UNL     1       7.848 -27.431 -24.264  1.00  0.00     0.141 A 
HETATM   13  N12 UNL     1       6.692 -27.894 -24.850  1.00  0.00    -0.337 N 
ATOM     14  H12 UNL     1       5.819 -27.378 -24.742  1.00  0.00     0.167 HD
HETATM   15  C11 UNL     1       6.722 -29.020 -25.558  1.00  0.00     0.091 A 
ENDROOT
BRANCH  12  16
HETATM   16  N7  UNL     1       7.779 -26.228 -23.514  1.00  0.00    -0.310 N 
HETATM   17  C9  UNL     1       7.702 -24.954 -24.198  1.00  0.00     0.244 C 
HETATM   18  O2  UNL     1       7.681 -24.849 -25.416  1.00  0.00    -0.271 OA
ATOM     19  H7  UNL     1       7.784 -26.261 -22.494  1.00  0.00     0.170 HD
BRANCH  17  20
HETATM   20  C10 UNL     1       7.640 -23.739 -23.335  1.00  0.00     0.275 C 
BRANCH  20  21
HETATM   21  N8  UNL     1       6.782 -23.993 -22.184  1.00  0.00    -0.194 N 
HETATM   22  N9  UNL     1       5.758 -24.753 -21.903  1.00  0.00    -0.209 N 
HETATM   23  N10 UNL     1       5.742 -24.267 -20.663  1.00  0.00    -0.211 N 
ATOM     24  H9  UNL     1       5.201 -25.435 -22.419  1.00  0.00     0.211 HD
HETATM   25  N11 UNL     1       6.768 -23.504 -20.942  1.00  0.00    -0.209 N 
ATOM     26  H10 UNL     1       5.167 -24.423 -19.835  1.00  0.00     0.211 HD
ATOM     27  H11 UNL     1       7.324 -22.821 -20.427  1.00  0.00     0.211 HD
ENDBRANCH  20  21
ENDBRANCH  17  20
ENDBRANCH  12  16
BRANCH  11  28
HETATM   28  C7  UNL     1      10.256 -27.733 -23.840  1.00  0.00     0.285 C 
HETATM   29  N6  UNL     1      11.481 -28.270 -24.389  1.00  0.00    -0.056 NA
HETATM   30  O1  UNL     1      10.429 -26.948 -22.902  1.00  0.00    -0.269 OA
ENDBRANCH  11  28
BRANCH   1  31
HETATM   31  N1  UNL     1       4.727 -28.393 -26.387  1.00  0.00    -0.397 N 
ATOM     32  H12 UNL     1       4.678 -28.161 -27.379  1.00  0.00     0.156 HD
ATOM     33  H11 UNL     1       4.215 -27.915 -25.645  1.00  0.00     0.156 HD
ENDBRANCH   1  31
BRANCH   7  34
HETATM   34  N4  UNL     1       9.233 -31.186 -26.879  1.00  0.00    -0.384 N 
ATOM     35  H42 UNL     1       9.353 -31.070 -27.885  1.00  0.00     0.157 HD
ATOM     36  H41 UNL     1       9.939 -31.450 -26.191  1.00  0.00     0.157 HD
ENDBRANCH   7  34
TORSDOF 6
ENDMDL
MODEL 3
REMARK VINA RESULT: -6.666075029      8.365     11.532
REMARK  6 active torsions:
REMARK  status: ('A' for Active; 'I' for Inactive)
REMARK    1  A    between atoms: N1_1  and  C1_4 
REMARK    2  A    between atoms: C4_10  and  N4_11 
REMARK    3  A    between atoms: C6_17  and  C7_18 
REMARK    4  A    between atoms: C8_21  and  N7_22 
REMARK       I    between atoms: N7_22  and  C9_24 
REMARK    5  A    between atoms: C9_24  and  C10_26 
REMARK    6  A    between atoms: C10_26  and  N8_27 
ROOT
HETATM    1  C1  UNL     1       6.542 -31.984 -18.211  1.00  0.00     0.058 C 
HETATM    2  C2  UNL     1       6.978 -30.916 -17.408  1.00  0.00     0.076 C 
HETATM    3  C3  UNL     1       6.216 -29.965 -16.751  1.00  0.00     0.120 C 
HETATM    4  N2  UNL     1       6.855 -29.297 -15.671  1.00  0.00    -0.083 NA
HETATM    5  N3  UNL     1       4.926 -29.618 -17.044  1.00  0.00    -0.329 N 
ATOM      6  H3  UNL     1       4.631 -28.677 -16.783  1.00  0.00     0.168 HD
HETATM    7  C4  UNL     1       4.005 -30.401 -17.647  1.00  0.00     0.129 C 
HETATM    8  C5  UNL     1       4.113 -31.759 -17.972  1.00  0.00     0.106 A 
HETATM    9  N5  UNL     1       2.942 -32.375 -18.011  1.00  0.00    -0.344 N 
ATOM     10  H5  UNL     1       2.086 -31.850 -17.832  1.00  0.00     0.166 HD
HETATM   11  C6  UNL     1       2.874 -33.716 -18.293  1.00  0.00     0.143 A 
HETATM   12  C8  UNL     1       4.004 -34.452 -18.540  1.00  0.00     0.141 A 
HETATM   13  N12 UNL     1       5.217 -33.804 -18.497  1.00  0.00    -0.337 N 
ATOM     14  H12 UNL     1       6.080 -34.317 -18.674  1.00  0.00     0.167 HD
HETATM   15  C11 UNL     1       5.255 -32.503 -18.221  1.00  0.00     0.091 A 
ENDROOT
BRANCH  12  16
HETATM   16  N7  UNL     1       4.001 -35.841 -18.834  1.00  0.00    -0.310 N 
HETATM   17  C9  UNL     1       4.833 -36.354 -19.903  1.00  0.00     0.244 C 
HETATM   18  O2  UNL     1       5.565 -35.646 -20.580  1.00  0.00    -0.271 OA
ATOM     19  H7  UNL     1       3.413 -36.477 -18.294  1.00  0.00     0.170 HD
BRANCH  17  20
HETATM   20  C10 UNL     1       4.764 -37.823 -20.152  1.00  0.00     0.275 C 
BRANCH  20  21
HETATM   21  N8  UNL     1       4.763 -38.082 -21.587  1.00  0.00    -0.194 N 
HETATM   22  N9  UNL     1       3.879 -38.352 -22.511  1.00  0.00    -0.209 N 
HETATM   23  N10 UNL     1       4.850 -38.389 -23.422  1.00  0.00    -0.211 N 
ATOM     24  H9  UNL     1       2.867 -38.481 -22.527  1.00  0.00     0.211 HD
HETATM   25  N11 UNL     1       5.737 -38.119 -22.498  1.00  0.00    -0.209 N 
ATOM     26  H10 UNL     1       4.888 -38.559 -24.427  1.00  0.00     0.211 HD
ATOM     27  H11 UNL     1       6.749 -37.991 -22.482  1.00  0.00     0.211 HD
ENDBRANCH  20  21
ENDBRANCH  17  20
ENDBRANCH  12  16
BRANCH  11  28
HETATM   28  C7  UNL     1       1.553 -34.342 -18.316  1.00  0.00     0.285 C 
HETATM   29  N6  UNL     1       0.689 -34.136 -17.176  1.00  0.00    -0.056 NA
HETATM   30  O1  UNL     1       1.054 -35.043 -19.203  1.00  0.00    -0.269 OA
ENDBRANCH  11  28
BRANCH   1  31
HETATM   31  N1  UNL     1       7.362 -32.535 -19.007  1.00  0.00    -0.397 N 
ATOM     32  H12 UNL     1       8.154 -33.005 -18.569  1.00  0.00     0.156 HD
ATOM     33  H11 UNL     1       7.188 -32.489 -20.012  1.00  0.00     0.156 HD
ENDBRANCH   1  31
BRANCH   7  34
HETATM   34  N4  UNL     1       2.893 -29.839 -17.955  1.00  0.00    -0.384 N 
ATOM     35  H42 UNL     1       2.366 -30.279 -18.709  1.00  0.00     0.157 HD
ATOM     36  H41 UNL     1       2.641 -29.011 -17.416  1.00  0.00     0.157 HD
ENDBRANCH   7  34
TORSDOF 6
ENDMDL
MODEL 4
REMARK VINA RESULT: -6.268099293      8.554      9.483
REMARK  6 active torsions:
REMARK  status: ('A' for Active; 'I' for Inactive)
REMARK    1  A    between atoms: N1_1  and  C1_4 
REMARK    2  A    between atoms: C4_10  and  N4_11 
REMARK    3  A    between atoms: C6_17  and  C7_18 
REMARK    4  A    between atoms: C8_21  and  N7_22 
REMARK       I    between atoms: N7_22  and  C9_24 
REMARK    5  A    between atoms: C9_24  and  C10_26 
REMARK    6  A    between atoms: C10_26  and  N8_27 
ROOT
HETATM    1  C1  UNL     1       3.879 -35.610 -18.617  1.00  0.00     0.058 C 
HETATM    2  C2  UNL     1       4.308 -36.876 -18.181  1.00  0.00     0.076 C 
HETATM    3  C3  UNL     1       5.563 -37.253 -17.734  1.00  0.00     0.120 C 
HETATM    4  N2  UNL     1       5.610 -38.433 -16.945  1.00  0.00    -0.083 NA
HETATM    5  N3  UNL     1       6.740 -36.602 -17.981  1.00  0.00    -0.329 N 
ATOM      6  H3  UNL     1       7.591 -37.163 -17.957  1.00  0.00     0.168 HD
HETATM    7  C4  UNL     1       6.883 -35.286 -18.255  1.00  0.00     0.129 C 
HETATM    8  C5  UNL     1       5.902 -34.289 -18.209  1.00  0.00     0.106 A 
HETATM    9  N5  UNL     1       6.400 -33.086 -17.964  1.00  0.00    -0.344 N 
ATOM     10  H5  UNL     1       7.407 -32.968 -17.850  1.00  0.00     0.166 HD
HETATM   11  C6  UNL     1       5.569 -31.999 -17.864  1.00  0.00     0.143 A 
HETATM   12  C8  UNL     1       4.212 -32.122 -18.013  1.00  0.00     0.141 A 
HETATM   13  N12 UNL     1       3.703 -33.375 -18.267  1.00  0.00    -0.337 N 
ATOM     14  H12 UNL     1       2.698 -33.508 -18.383  1.00  0.00     0.167 HD
HETATM   15  C11 UNL     1       4.531 -34.412 -18.359  1.00  0.00     0.091 A 
ENDROOT
BRANCH  12  16
HETATM   16  N7  UNL     1       3.299 -31.038 -17.918  1.00  0.00    -0.310 N 
HETATM   17  C9  UNL     1       2.011 -31.233 -17.285  1.00  0.00     0.244 C 
HETATM   18  O2  UNL     1       1.656 -32.300 -16.805  1.00  0.00    -0.271 OA
ATOM     19  H7  UNL     1       3.551 -30.124 -18.295  1.00  0.00     0.170 HD
BRANCH  17  20
HETATM   20  C10 UNL     1       1.110 -30.046 -17.234  1.00  0.00     0.275 C 
BRANCH  20  21
HETATM   21  N8  UNL     1       0.574 -29.776 -18.564  1.00  0.00    -0.194 N 
HETATM   22  N9  UNL     1      -0.538 -29.999 -19.211  1.00  0.00    -0.209 N 
HETATM   23  N10 UNL     1      -0.036 -29.379 -20.278  1.00  0.00    -0.211 N 
ATOM     24  H9  UNL     1      -1.423 -30.457 -18.992  1.00  0.00     0.211 HD
HETATM   25  N11 UNL     1       1.080 -29.155 -19.632  1.00  0.00    -0.209 N 
ATOM     26  H10 UNL     1      -0.379 -29.167 -21.215  1.00  0.00     0.211 HD
ATOM     27  H11 UNL     1       1.965 -28.698 -19.852  1.00  0.00     0.211 HD
ENDBRANCH  20  21
ENDBRANCH  17  20
ENDBRANCH  12  16
BRANCH  11  28
HETATM   28  C7  UNL     1       6.177 -30.699 -17.586  1.00  0.00     0.285 C 
HETATM   29  N6  UNL     1       7.524 -30.683 -17.060  1.00  0.00    -0.056 NA
HETATM   30  O1  UNL     1       5.688 -29.576 -17.744  1.00  0.00    -0.269 OA
ENDBRANCH  11  28
BRANCH   1  31
HETATM   31  N1  UNL     1       2.821 -35.520 -19.312  1.00  0.00    -0.397 N 
ATOM     32  H12 UNL     1       1.975 -35.890 -18.877  1.00  0.00     0.156 HD
ATOM     33  H11 UNL     1       2.867 -35.090 -20.235  1.00  0.00     0.156 HD
ENDBRANCH   1  31
BRANCH   7  34
HETATM   34  N4  UNL     1       8.059 -34.900 -18.592  1.00  0.00    -0.384 N 
ATOM     35  H42 UNL     1       8.409 -34.070 -18.115  1.00  0.00     0.157 HD
ATOM     36  H41 UNL     1       8.534 -35.460 -19.301  1.00  0.00     0.157 HD
ENDBRANCH   7  34
TORSDOF 6
ENDMDL
MODEL 5
REMARK VINA RESULT: -6.088232361      2.143      3.569
REMARK  6 active torsions:
REMARK  status: ('A' for Active; 'I' for Inactive)
REMARK    1  A    between atoms: N1_1  and  C1_4 
REMARK    2  A    between atoms: C4_10  and  N4_11 
REMARK    3  A    between atoms: C6_17  and  C7_18 
REMARK    4  A    between atoms: C8_21  and  N7_22 
REMARK       I    between atoms: N7_22  and  C9_24 
REMARK    5  A    between atoms: C9_24  and  C10_26 
REMARK    6  A    between atoms: C10_26  and  N8_27 
ROOT
HETATM    1  C1  UNL     1      10.019 -30.953 -23.390  1.00  0.00     0.058 C 
HETATM    2  C2  UNL     1      10.662 -31.983 -24.098  1.00  0.00     0.076 C 
HETATM    3  C3  UNL     1      10.539 -32.316 -25.436  1.00  0.00     0.120 C 
HETATM    4  N2  UNL     1      11.607 -33.075 -25.986  1.00  0.00    -0.083 NA
HETATM    5  N3  UNL     1       9.499 -31.984 -26.260  1.00  0.00    -0.329 N 
ATOM      6  H3  UNL     1       9.328 -32.598 -27.057  1.00  0.00     0.168 HD
HETATM    7  C4  UNL     1       8.677 -30.922 -26.121  1.00  0.00     0.129 C 
HETATM    8  C5  UNL     1       8.786 -29.866 -25.208  1.00  0.00     0.106 A 
HETATM    9  N5  UNL     1       8.231 -28.746 -25.645  1.00  0.00    -0.344 N 
ATOM     10  H5  UNL     1       7.772 -28.729 -26.556  1.00  0.00     0.166 HD
HETATM   11  C6  UNL     1       8.270 -27.609 -24.879  1.00  0.00     0.143 A 
HETATM   12  C8  UNL     1       8.878 -27.596 -23.651  1.00  0.00     0.141 A 
HETATM   13  N12 UNL     1       9.452 -28.764 -23.204  1.00  0.00    -0.337 N 
ATOM     14  H12 UNL     1       9.914 -28.794 -22.296  1.00  0.00     0.167 HD
HETATM   15  C11 UNL     1       9.399 -29.852 -23.966  1.00  0.00     0.091 A 
ENDROOT
BRANCH  12  16
HETATM   16  N7  UNL     1       8.955 -26.452 -22.813  1.00  0.00    -0.310 N 
HETATM   17  C9  UNL     1       7.768 -25.973 -22.135  1.00  0.00     0.244 C 
HETATM   18  O2  UNL     1       6.676 -26.515 -22.235  1.00  0.00    -0.271 OA
ATOM     19  H7  UNL     1       9.844 -25.969 -22.689  1.00  0.00     0.170 HD
BRANCH  17  20
HETATM   20  C10 UNL     1       7.934 -24.762 -21.280  1.00  0.00     0.275 C 
BRANCH  20  21
HETATM   21  N8  UNL     1       6.802 -23.863 -21.473  1.00  0.00    -0.194 N 
HETATM   22  N9  UNL     1       6.586 -22.703 -22.034  1.00  0.00    -0.209 N 
HETATM   23  N10 UNL     1       5.302 -22.779 -21.685  1.00  0.00    -0.211 N 
ATOM     24  H9  UNL     1       7.161 -22.022 -22.531  1.00  0.00     0.211 HD
HETATM   25  N11 UNL     1       5.517 -23.941 -21.123  1.00  0.00    -0.209 N 
ATOM     26  H10 UNL     1       4.486 -22.179 -21.807  1.00  0.00     0.211 HD
ATOM     27  H11 UNL     1       4.943 -24.621 -20.624  1.00  0.00     0.211 HD
ENDBRANCH  20  21
ENDBRANCH  17  20
ENDBRANCH  12  16
BRANCH  11  28
HETATM   28  C7  UNL     1       7.646 -26.401 -25.419  1.00  0.00     0.285 C 
HETATM   29  N6  UNL     1       6.606 -26.565 -26.410  1.00  0.00    -0.056 NA
HETATM   30  O1  UNL     1       7.888 -25.224 -25.136  1.00  0.00    -0.269 OA
ENDBRANCH  11  28
BRANCH   1  31
HETATM   31  N1  UNL     1       9.974 -31.007 -22.123  1.00  0.00    -0.397 N 
ATOM     32  H12 UNL     1      10.798 -31.401 -21.669  1.00  0.00     0.156 HD
ATOM     33  H11 UNL     1       9.146 -30.657 -21.639  1.00  0.00     0.156 HD
ENDBRANCH   1  31
BRANCH   7  34
HETATM   34  N4  UNL     1       7.678 -30.866 -26.924  1.00  0.00    -0.384 N 
ATOM     35  H42 UNL     1       7.549 -31.676 -27.531  1.00  0.00     0.157 HD
ATOM     36  H41 UNL     1       7.106 -30.023 -26.877  1.00  0.00     0.157 HD
ENDBRANCH   7  34
TORSDOF 6
ENDMDL
