MODEL 1
REMARK VINA RESULT: -8.284812294      0.000      0.000
REMARK  17 active torsions:
REMARK  status: ('A' for Active; 'I' for Inactive)
REMARK    1  A    between atoms: C2_2  and  C3_3 
REMARK    2  A    between atoms: C3_3  and  C4_4 
REMARK    3  A    between atoms: C4_4  and  O1_5 
REMARK    4  A    between atoms: O1_5  and  C5_6 
REMARK       I    between atoms: C5_6  and  N1_8 
REMARK    5  A    between atoms: N2_11  and  C8_12 
REMARK    6  A    between atoms: C8_12  and  O3_13 
REMARK    7  A    between atoms: C8_12  and  C9_15 
REMARK    8  A    between atoms: C9_15  and  N3_16 
REMARK    9  A    between atoms: N3_16  and  C10_17 
REMARK   10  A    between atoms: N3_16  and  N5_33 
REMARK   11  A    between atoms: C10_17  and  C11_18 
REMARK   12  A    between atoms: C11_18  and  C12_20 
REMARK   13  A    between atoms: C12_20  and  C14_22 
REMARK   14  A    between atoms: C12_20  and  N4_24 
REMARK       I    between atoms: N4_24  and  C16_26 
REMARK   15  A    between atoms: C16_26  and  O6_28 
REMARK   16  A    between atoms: O6_28  and  C17_29 
REMARK       I    between atoms: N5_33  and  C21_35 
REMARK   17  A    between atoms: C21_35  and  C22_37 
ROOT
HETATM    1  N3  UNL     1      17.369  25.107  17.245  1.00  0.00    -0.268 N 
ENDROOT
BRANCH   1   2
HETATM    2  C9  UNL     1      16.702  24.960  16.034  1.00  0.00     0.171 C 
BRANCH   2   3
HETATM    3  C8  UNL     1      16.151  23.653  15.657  1.00  0.00     0.156 C 
BRANCH   3   4
HETATM    4  N2  UNL     1      14.886  23.092  15.833  1.00  0.00    -0.358 N 
HETATM    5  C7  UNL     1      14.751  22.086  16.913  1.00  0.00     0.145 C 
HETATM    6  C6  UNL     1      14.326  20.803  16.230  1.00  0.00     0.148 C 
HETATM    7  N1  UNL     1      12.995  21.024  15.724  1.00  0.00    -0.325 N 
HETATM    8  C5  UNL     1      11.943  20.075  16.008  1.00  0.00     0.362 C 
HETATM    9  C27 UNL     1      12.739  22.193  14.951  1.00  0.00     0.148 C 
HETATM   10  O2  UNL     1      10.790  20.288  15.545  1.00  0.00    -0.238 OA
HETATM   11  C26 UNL     1      13.692  23.318  15.078  1.00  0.00     0.145 C 
BRANCH   8  12
HETATM   12  O1  UNL     1      12.114  18.944  16.754  1.00  0.00    -0.304 OA
BRANCH  12  13
HETATM   13  C4  UNL     1      12.097  18.831  18.148  1.00  0.00     0.180 C 
BRANCH  13  14
HETATM   14  C3  UNL     1      13.140  17.846  18.588  1.00  0.00     0.026 C 
BRANCH  14  15
HETATM   15  C2  UNL     1      13.777  18.303  19.907  1.00  0.00    -0.002 C 
HETATM   16  C1  UNL     1      12.683  18.328  20.949  1.00  0.00     0.005 C 
ENDBRANCH  14  15
ENDBRANCH  13  14
ENDBRANCH  12  13
ENDBRANCH   8  12
ENDBRANCH   3   4
BRANCH   3  17
HETATM   17  O3  UNL     1      17.017  22.905  15.039  1.00  0.00    -0.345 OA
ATOM     18  H3  UNL     1      17.722  22.562  15.576  1.00  0.00     0.219 HD
ENDBRANCH   3  17
ENDBRANCH   2   3
ENDBRANCH   1   2
BRANCH   1  19
HETATM   19  C10 UNL     1      17.251  24.168  18.283  1.00  0.00     0.168 C 
BRANCH  19  20
HETATM   20  C11 UNL     1      18.268  23.142  18.454  1.00  0.00     0.194 C 
HETATM   21  O4  UNL     1      18.629  22.411  17.591  1.00  0.00    -0.289 OA
BRANCH  20  22
HETATM   22  C12 UNL     1      18.931  22.969  19.813  1.00  0.00     0.097 C 
HETATM   23  C13 UNL     1      18.282  23.950  20.740  1.00  0.00     0.047 C 
BRANCH  22  24
HETATM   24  C14 UNL     1      18.630  21.559  20.307  1.00  0.00     0.034 C 
HETATM   25  C15 UNL     1      19.000  21.405  21.757  1.00  0.00     0.008 C 
ENDBRANCH  22  24
BRANCH  22  26
HETATM   26  N4  UNL     1      20.338  23.126  19.668  1.00  0.00    -0.321 N 
HETATM   27  C16 UNL     1      20.979  24.374  19.561  1.00  0.00     0.362 C 
HETATM   28  O5  UNL     1      20.347  25.483  19.594  1.00  0.00    -0.238 OA
ATOM     29  H4  UNL     1      20.916  22.285  19.639  1.00  0.00     0.166 HD
BRANCH  27  30
HETATM   30  O6  UNL     1      22.346  24.496  19.412  1.00  0.00    -0.294 OA
BRANCH  30  31
HETATM   31  C17 UNL     1      23.276  24.801  20.377  1.00  0.00     0.061 C 
HETATM   32  C18 UNL     1      24.560  24.036  20.172  1.00  0.00     0.046 C 
HETATM   33  C19 UNL     1      23.592  26.276  20.486  1.00  0.00     0.046 C 
HETATM   34  C20 UNL     1      22.790  24.391  21.777  1.00  0.00     0.046 C 
ENDBRANCH  30  31
ENDBRANCH  27  30
ENDBRANCH  22  26
ENDBRANCH  20  22
ENDBRANCH  19  20
ENDBRANCH   1  19
BRANCH   1  35
HETATM   35  N5  UNL     1      18.485  25.908  17.195  1.00  0.00    -0.258 N 
HETATM   36  C21 UNL     1      19.563  25.750  16.300  1.00  0.00     0.288 C 
HETATM   37  O7  UNL     1      19.521  24.790  15.463  1.00  0.00    -0.264 OA
ATOM     38  H5  UNL     1      18.537  26.680  17.859  1.00  0.00     0.191 HD
BRANCH  36  39
HETATM   39  C22 UNL     1      20.743  26.622  16.254  1.00  0.00     0.117 A 
HETATM   40  C23 UNL     1      20.777  27.839  15.626  1.00  0.00     0.122 A 
HETATM   41  N6  UNL     1      21.883  28.638  15.599  1.00  0.00    -0.372 N 
HETATM   42  C24 UNL     1      23.003  28.205  16.224  1.00  0.00     0.104 A 
ATOM     43  H6  UNL     1      21.867  29.538  15.120  1.00  0.00     0.164 HD
HETATM   44  C25 UNL     1      22.994  26.989  16.861  1.00  0.00     0.105 A 
HETATM   45  N7  UNL     1      21.889  26.242  16.862  1.00  0.00    -0.359 N 
ATOM     46  H7  UNL     1      21.911  25.343  17.343  1.00  0.00     0.165 HD
ENDBRANCH  36  39
ENDBRANCH   1  35
TORSDOF 17
ENDMDL
MODEL 2
REMARK VINA RESULT: -8.281815950      1.319      1.664
REMARK  17 active torsions:
REMARK  status: ('A' for Active; 'I' for Inactive)
REMARK    1  A    between atoms: C2_2  and  C3_3 
REMARK    2  A    between atoms: C3_3  and  C4_4 
REMARK    3  A    between atoms: C4_4  and  O1_5 
REMARK    4  A    between atoms: O1_5  and  C5_6 
REMARK       I    between atoms: C5_6  and  N1_8 
REMARK    5  A    between atoms: N2_11  and  C8_12 
REMARK    6  A    between atoms: C8_12  and  O3_13 
REMARK    7  A    between atoms: C8_12  and  C9_15 
REMARK    8  A    between atoms: C9_15  and  N3_16 
REMARK    9  A    between atoms: N3_16  and  C10_17 
REMARK   10  A    between atoms: N3_16  and  N5_33 
REMARK   11  A    between atoms: C10_17  and  C11_18 
REMARK   12  A    between atoms: C11_18  and  C12_20 
REMARK   13  A    between atoms: C12_20  and  C14_22 
REMARK   14  A    between atoms: C12_20  and  N4_24 
REMARK       I    between atoms: N4_24  and  C16_26 
REMARK   15  A    between atoms: C16_26  and  O6_28 
REMARK   16  A    between atoms: O6_28  and  C17_29 
REMARK       I    between atoms: N5_33  and  C21_35 
REMARK   17  A    between atoms: C21_35  and  C22_37 
ROOT
HETATM    1  N3  UNL     1      18.182  23.109  16.020  1.00  0.00    -0.268 N 
ENDROOT
BRANCH   1   2
HETATM    2  C9  UNL     1      17.084  22.890  15.196  1.00  0.00     0.171 C 
BRANCH   2   3
HETATM    3  C8  UNL     1      15.769  23.424  15.571  1.00  0.00     0.156 C 
BRANCH   3   4
HETATM    4  N2  UNL     1      14.535  22.805  15.762  1.00  0.00    -0.358 N 
HETATM    5  C7  UNL     1      14.370  22.023  17.009  1.00  0.00     0.145 C 
HETATM    6  C6  UNL     1      14.095  20.600  16.571  1.00  0.00     0.148 C 
HETATM    7  N1  UNL     1      12.803  20.606  15.932  1.00  0.00    -0.325 N 
HETATM    8  C5  UNL     1      11.796  19.647  16.322  1.00  0.00     0.362 C 
HETATM    9  C27 UNL     1      12.540  21.575  14.922  1.00  0.00     0.148 C 
HETATM   10  O2  UNL     1      10.677  19.668  15.741  1.00  0.00    -0.238 OA
HETATM   11  C26 UNL     1      13.400  22.779  14.890  1.00  0.00     0.145 C 
BRANCH   8  12
HETATM   12  O1  UNL     1      11.974  18.702  17.293  1.00  0.00    -0.304 OA
BRANCH  12  13
HETATM   13  C4  UNL     1      11.768  18.844  18.669  1.00  0.00     0.180 C 
BRANCH  13  14
HETATM   14  C3  UNL     1      12.549  17.795  19.406  1.00  0.00     0.026 C 
BRANCH  14  15
HETATM   15  C2  UNL     1      14.015  18.228  19.544  1.00  0.00    -0.002 C 
HETATM   16  C1  UNL     1      14.813  17.446  18.527  1.00  0.00     0.005 C 
ENDBRANCH  14  15
ENDBRANCH  13  14
ENDBRANCH  12  13
ENDBRANCH   8  12
ENDBRANCH   3   4
BRANCH   3  17
HETATM   17  O3  UNL     1      15.789  24.711  15.764  1.00  0.00    -0.345 OA
ATOM     18  H3  UNL     1      16.553  25.165  15.427  1.00  0.00     0.219 HD
ENDBRANCH   3  17
ENDBRANCH   2   3
ENDBRANCH   1   2
BRANCH   1  19
HETATM   19  C10 UNL     1      18.729  22.093  16.822  1.00  0.00     0.168 C 
BRANCH  19  20
HETATM   20  C11 UNL     1      18.152  21.808  18.127  1.00  0.00     0.194 C 
HETATM   21  O4  UNL     1      17.241  21.069  18.305  1.00  0.00    -0.289 OA
BRANCH  20  22
HETATM   22  C12 UNL     1      18.732  22.484  19.362  1.00  0.00     0.097 C 
HETATM   23  C13 UNL     1      17.585  23.118  20.087  1.00  0.00     0.047 C 
BRANCH  22  24
HETATM   24  C14 UNL     1      19.332  21.402  20.251  1.00  0.00     0.034 C 
HETATM   25  C15 UNL     1      18.901  21.579  21.682  1.00  0.00     0.008 C 
ENDBRANCH  22  24
BRANCH  22  26
HETATM   26  N4  UNL     1      19.757  23.386  18.961  1.00  0.00    -0.321 N 
HETATM   27  C16 UNL     1      20.124  24.529  19.696  1.00  0.00     0.362 C 
HETATM   28  O5  UNL     1      19.566  24.853  20.798  1.00  0.00    -0.238 OA
ATOM     29  H4  UNL     1      20.255  23.192  18.092  1.00  0.00     0.166 HD
BRANCH  27  30
HETATM   30  O6  UNL     1      21.117  25.392  19.279  1.00  0.00    -0.294 OA
BRANCH  30  31
HETATM   31  C17 UNL     1      22.292  25.699  19.923  1.00  0.00     0.061 C 
HETATM   32  C18 UNL     1      22.213  27.039  20.613  1.00  0.00     0.046 C 
HETATM   33  C19 UNL     1      22.740  24.656  20.921  1.00  0.00     0.046 C 
HETATM   34  C20 UNL     1      23.459  25.833  18.932  1.00  0.00     0.046 C 
ENDBRANCH  30  31
ENDBRANCH  27  30
ENDBRANCH  22  26
ENDBRANCH  20  22
ENDBRANCH  19  20
ENDBRANCH   1  19
BRANCH   1  35
HETATM   35  N5  UNL     1      18.976  24.169  15.653  1.00  0.00    -0.258 N 
HETATM   36  C21 UNL     1      18.979  25.437  16.269  1.00  0.00     0.288 C 
HETATM   37  O7  UNL     1      18.186  25.640  17.245  1.00  0.00    -0.264 OA
ATOM     38  H5  UNL     1      19.616  24.027  14.871  1.00  0.00     0.191 HD
BRANCH  36  39
HETATM   39  C22 UNL     1      19.842  26.556  15.870  1.00  0.00     0.117 A 
HETATM   40  C23 UNL     1      19.671  27.289  14.725  1.00  0.00     0.122 A 
HETATM   41  N6  UNL     1      20.481  28.330  14.373  1.00  0.00    -0.372 N 
HETATM   42  C24 UNL     1      21.504  28.654  15.198  1.00  0.00     0.104 A 
ATOM     43  H6  UNL     1      20.320  28.850  13.511  1.00  0.00     0.164 HD
HETATM   44  C25 UNL     1      21.695  27.935  16.352  1.00  0.00     0.105 A 
HETATM   45  N7  UNL     1      20.878  26.926  16.655  1.00  0.00    -0.359 N 
ATOM     46  H7  UNL     1      21.043  26.410  17.518  1.00  0.00     0.165 HD
ENDBRANCH  36  39
ENDBRANCH   1  35
TORSDOF 17
ENDMDL
MODEL 3
REMARK VINA RESULT: -8.273293345      2.595      9.616
REMARK  17 active torsions:
REMARK  status: ('A' for Active; 'I' for Inactive)
REMARK    1  A    between atoms: C2_2  and  C3_3 
REMARK    2  A    between atoms: C3_3  and  C4_4 
REMARK    3  A    between atoms: C4_4  and  O1_5 
REMARK    4  A    between atoms: O1_5  and  C5_6 
REMARK       I    between atoms: C5_6  and  N1_8 
REMARK    5  A    between atoms: N2_11  and  C8_12 
REMARK    6  A    between atoms: C8_12  and  O3_13 
REMARK    7  A    between atoms: C8_12  and  C9_15 
REMARK    8  A    between atoms: C9_15  and  N3_16 
REMARK    9  A    between atoms: N3_16  and  C10_17 
REMARK   10  A    between atoms: N3_16  and  N5_33 
REMARK   11  A    between atoms: C10_17  and  C11_18 
REMARK   12  A    between atoms: C11_18  and  C12_20 
REMARK   13  A    between atoms: C12_20  and  C14_22 
REMARK   14  A    between atoms: C12_20  and  N4_24 
REMARK       I    between atoms: N4_24  and  C16_26 
REMARK   15  A    between atoms: C16_26  and  O6_28 
REMARK   16  A    between atoms: O6_28  and  C17_29 
REMARK       I    between atoms: N5_33  and  C21_35 
REMARK   17  A    between atoms: C21_35  and  C22_37 
ROOT
HETATM    1  N3  UNL     1      16.688  23.084  15.846  1.00  0.00    -0.268 N 
ENDROOT
BRANCH   1   2
HETATM    2  C9  UNL     1      16.463  24.445  15.671  1.00  0.00     0.171 C 
BRANCH   2   3
HETATM    3  C8  UNL     1      17.425  25.420  16.199  1.00  0.00     0.156 C 
BRANCH   3   4
HETATM    4  N2  UNL     1      18.647  25.878  15.708  1.00  0.00    -0.358 N 
HETATM    5  C7  UNL     1      19.839  25.619  16.548  1.00  0.00     0.145 C 
HETATM    6  C6  UNL     1      20.400  26.980  16.900  1.00  0.00     0.148 C 
HETATM    7  N1  UNL     1      20.895  27.554  15.674  1.00  0.00    -0.325 N 
HETATM    8  C5  UNL     1      22.232  28.098  15.615  1.00  0.00     0.362 C 
HETATM    9  C27 UNL     1      20.048  27.564  14.528  1.00  0.00     0.148 C 
HETATM   10  O2  UNL     1      22.637  28.602  14.532  1.00  0.00    -0.238 OA
HETATM   11  C26 UNL     1      18.912  26.615  14.510  1.00  0.00     0.145 C 
BRANCH   8  12
HETATM   12  O1  UNL     1      23.102  28.106  16.667  1.00  0.00    -0.304 OA
BRANCH  12  13
HETATM   13  C4  UNL     1      24.498  28.040  16.620  1.00  0.00     0.180 C 
BRANCH  13  14
HETATM   14  C3  UNL     1      24.927  26.637  16.303  1.00  0.00     0.026 C 
BRANCH  14  15
HETATM   15  C2  UNL     1      26.391  26.622  15.843  1.00  0.00    -0.002 C 
HETATM   16  C1  UNL     1      26.676  27.962  15.207  1.00  0.00     0.005 C 
ENDBRANCH  14  15
ENDBRANCH  13  14
ENDBRANCH  12  13
ENDBRANCH   8  12
ENDBRANCH   3   4
BRANCH   3  17
HETATM   17  O3  UNL     1      17.038  25.944  17.325  1.00  0.00    -0.345 OA
ATOM     18  H3  UNL     1      16.643  26.806  17.263  1.00  0.00     0.219 HD
ENDBRANCH   3  17
ENDBRANCH   2   3
ENDBRANCH   1   2
BRANCH   1  19
HETATM   19  C10 UNL     1      17.776  22.596  16.589  1.00  0.00     0.168 C 
BRANCH  19  20
HETATM   20  C11 UNL     1      17.599  21.456  17.475  1.00  0.00     0.194 C 
HETATM   21  O4  UNL     1      17.605  20.325  17.114  1.00  0.00    -0.289 OA
BRANCH  20  22
HETATM   22  C12 UNL     1      17.391  21.693  18.964  1.00  0.00     0.097 C 
HETATM   23  C13 UNL     1      18.684  21.358  19.641  1.00  0.00     0.047 C 
BRANCH  22  24
HETATM   24  C14 UNL     1      17.103  23.176  19.168  1.00  0.00     0.034 C 
HETATM   25  C15 UNL     1      18.038  23.772  20.186  1.00  0.00     0.008 C 
ENDBRANCH  22  24
BRANCH  22  26
HETATM   26  N4  UNL     1      16.272  20.933  19.405  1.00  0.00    -0.321 N 
HETATM   27  C16 UNL     1      14.938  21.243  19.080  1.00  0.00     0.362 C 
HETATM   28  O5  UNL     1      14.617  22.239  18.347  1.00  0.00    -0.238 OA
ATOM     29  H4  UNL     1      16.446  20.116  19.991  1.00  0.00     0.166 HD
BRANCH  27  30
HETATM   30  O6  UNL     1      13.870  20.492  19.529  1.00  0.00    -0.294 OA
BRANCH  30  31
HETATM   31  C17 UNL     1      13.596  19.172  19.262  1.00  0.00     0.061 C 
HETATM   32  C18 UNL     1      12.189  18.990  18.748  1.00  0.00     0.046 C 
HETATM   33  C19 UNL     1      14.562  18.524  18.296  1.00  0.00     0.046 C 
HETATM   34  C20 UNL     1      13.667  18.314  20.535  1.00  0.00     0.046 C 
ENDBRANCH  30  31
ENDBRANCH  27  30
ENDBRANCH  22  26
ENDBRANCH  20  22
ENDBRANCH  19  20
ENDBRANCH   1  19
BRANCH   1  35
HETATM   35  N5  UNL     1      15.577  22.291  15.692  1.00  0.00    -0.258 N 
HETATM   36  C21 UNL     1      15.188  21.656  14.495  1.00  0.00     0.288 C 
HETATM   37  O7  UNL     1      15.909  21.821  13.457  1.00  0.00    -0.264 OA
ATOM     38  H5  UNL     1      14.986  22.149  16.511  1.00  0.00     0.191 HD
BRANCH  36  39
HETATM   39  C22 UNL     1      14.001  20.804  14.351  1.00  0.00     0.117 A 
HETATM   40  C23 UNL     1      13.198  20.420  15.392  1.00  0.00     0.122 A 
HETATM   41  N6  UNL     1      12.095  19.631  15.237  1.00  0.00    -0.372 N 
HETATM   42  C24 UNL     1      11.780  19.206  13.992  1.00  0.00     0.104 A 
ATOM     43  H6  UNL     1      11.523  19.367  16.040  1.00  0.00     0.164 HD
HETATM   44  C25 UNL     1      12.569  19.578  12.931  1.00  0.00     0.105 A 
HETATM   45  N7  UNL     1      13.637  20.351  13.130  1.00  0.00    -0.359 N 
ATOM     46  H7  UNL     1      14.205  20.612  12.325  1.00  0.00     0.165 HD
ENDBRANCH  36  39
ENDBRANCH   1  35
TORSDOF 17
ENDMDL
MODEL 4
REMARK VINA RESULT: -8.263999070      2.152      9.068
REMARK  17 active torsions:
REMARK  status: ('A' for Active; 'I' for Inactive)
REMARK    1  A    between atoms: C2_2  and  C3_3 
REMARK    2  A    between atoms: C3_3  and  C4_4 
REMARK    3  A    between atoms: C4_4  and  O1_5 
REMARK    4  A    between atoms: O1_5  and  C5_6 
REMARK       I    between atoms: C5_6  and  N1_8 
REMARK    5  A    between atoms: N2_11  and  C8_12 
REMARK    6  A    between atoms: C8_12  and  O3_13 
REMARK    7  A    between atoms: C8_12  and  C9_15 
REMARK    8  A    between atoms: C9_15  and  N3_16 
REMARK    9  A    between atoms: N3_16  and  C10_17 
REMARK   10  A    between atoms: N3_16  and  N5_33 
REMARK   11  A    between atoms: C10_17  and  C11_18 
REMARK   12  A    between atoms: C11_18  and  C12_20 
REMARK   13  A    between atoms: C12_20  and  C14_22 
REMARK   14  A    between atoms: C12_20  and  N4_24 
REMARK       I    between atoms: N4_24  and  C16_26 
REMARK   15  A    between atoms: C16_26  and  O6_28 
REMARK   16  A    between atoms: O6_28  and  C17_29 
REMARK       I    between atoms: N5_33  and  C21_35 
REMARK   17  A    between atoms: C21_35  and  C22_37 
ROOT
HETATM    1  N3  UNL     1      17.029  22.852  15.525  1.00  0.00    -0.268 N 
ENDROOT
BRANCH   1   2
HETATM    2  C9  UNL     1      16.957  24.141  15.007  1.00  0.00     0.171 C 
BRANCH   2   3
HETATM    3  C8  UNL     1      17.602  25.252  15.717  1.00  0.00     0.156 C 
BRANCH   3   4
HETATM    4  N2  UNL     1      18.857  25.843  15.574  1.00  0.00    -0.358 N 
HETATM    5  C7  UNL     1      19.917  25.382  16.500  1.00  0.00     0.145 C 
HETATM    6  C6  UNL     1      20.337  26.604  17.288  1.00  0.00     0.148 C 
HETATM    7  N1  UNL     1      20.982  27.495  16.357  1.00  0.00    -0.325 N 
HETATM    8  C5  UNL     1      22.279  28.053  16.666  1.00  0.00     0.362 C 
HETATM    9  C27 UNL     1      20.325  27.804  15.132  1.00  0.00     0.148 C 
HETATM   10  O2  UNL     1      22.817  28.837  15.837  1.00  0.00    -0.238 OA
HETATM   11  C26 UNL     1      19.262  26.880  14.676  1.00  0.00     0.145 C 
BRANCH   8  12
HETATM   12  O1  UNL     1      22.973  27.788  17.812  1.00  0.00    -0.304 OA
BRANCH  12  13
HETATM   13  C4  UNL     1      23.622  26.599  18.159  1.00  0.00     0.180 C 
BRANCH  13  14
HETATM   14  C3  UNL     1      23.324  26.262  19.592  1.00  0.00     0.026 C 
BRANCH  14  15
HETATM   15  C2  UNL     1      23.332  24.740  19.790  1.00  0.00    -0.002 C 
HETATM   16  C1  UNL     1      21.892  24.290  19.871  1.00  0.00     0.005 C 
ENDBRANCH  14  15
ENDBRANCH  13  14
ENDBRANCH  12  13
ENDBRANCH   8  12
ENDBRANCH   3   4
BRANCH   3  17
HETATM   17  O3  UNL     1      16.838  25.768  16.635  1.00  0.00    -0.345 OA
ATOM     18  H3  UNL     1      16.083  26.251  16.319  1.00  0.00     0.219 HD
ENDBRANCH   3  17
ENDBRANCH   2   3
ENDBRANCH   1   2
BRANCH   1  19
HETATM   19  C10 UNL     1      18.029  22.467  16.434  1.00  0.00     0.168 C 
BRANCH  19  20
HETATM   20  C11 UNL     1      17.755  21.435  17.421  1.00  0.00     0.194 C 
HETATM   21  O4  UNL     1      17.685  20.276  17.172  1.00  0.00    -0.289 OA
BRANCH  20  22
HETATM   22  C12 UNL     1      17.540  21.832  18.875  1.00  0.00     0.097 C 
HETATM   23  C13 UNL     1      18.842  21.612  19.582  1.00  0.00     0.047 C 
BRANCH  22  24
HETATM   24  C14 UNL     1      17.210  23.319  18.912  1.00  0.00     0.034 C 
HETATM   25  C15 UNL     1      18.118  24.049  19.865  1.00  0.00     0.008 C 
ENDBRANCH  22  24
BRANCH  22  26
HETATM   26  N4  UNL     1      16.443  21.094  19.402  1.00  0.00    -0.321 N 
HETATM   27  C16 UNL     1      15.110  21.270  18.986  1.00  0.00     0.362 C 
HETATM   28  O5  UNL     1      14.770  22.109  18.085  1.00  0.00    -0.238 OA
ATOM     29  H4  UNL     1      16.633  20.397  20.123  1.00  0.00     0.166 HD
BRANCH  27  30
HETATM   30  O6  UNL     1      14.064  20.546  19.520  1.00  0.00    -0.294 OA
BRANCH  30  31
HETATM   31  C17 UNL     1      13.692  19.256  19.224  1.00  0.00     0.061 C 
HETATM   32  C18 UNL     1      12.285  19.193  18.685  1.00  0.00     0.046 C 
HETATM   33  C19 UNL     1      14.621  18.552  18.261  1.00  0.00     0.046 C 
HETATM   34  C20 UNL     1      13.675  18.372  20.482  1.00  0.00     0.046 C 
ENDBRANCH  30  31
ENDBRANCH  27  30
ENDBRANCH  22  26
ENDBRANCH  20  22
ENDBRANCH  19  20
ENDBRANCH   1  19
BRANCH   1  35
HETATM   35  N5  UNL     1      15.847  22.153  15.498  1.00  0.00    -0.258 N 
HETATM   36  C21 UNL     1      15.271  21.567  14.353  1.00  0.00     0.288 C 
HETATM   37  O7  UNL     1      15.878  21.687  13.239  1.00  0.00    -0.264 OA
ATOM     38  H5  UNL     1      15.345  22.049  16.380  1.00  0.00     0.191 HD
BRANCH  36  39
HETATM   39  C22 UNL     1      14.011  20.815  14.345  1.00  0.00     0.117 A 
HETATM   40  C23 UNL     1      13.680  19.875  13.404  1.00  0.00     0.122 A 
HETATM   41  N6  UNL     1      12.505  19.183  13.417  1.00  0.00    -0.372 N 
HETATM   42  C24 UNL     1      11.621  19.436  14.410  1.00  0.00     0.104 A 
ATOM     43  H6  UNL     1      12.297  18.491  12.696  1.00  0.00     0.164 HD
HETATM   44  C25 UNL     1      11.929  20.372  15.366  1.00  0.00     0.105 A 
HETATM   45  N7  UNL     1      13.090  21.025  15.313  1.00  0.00    -0.359 N 
ATOM     46  H7  UNL     1      13.293  21.714  16.037  1.00  0.00     0.165 HD
ENDBRANCH  36  39
ENDBRANCH   1  35
TORSDOF 17
ENDMDL
MODEL 5
REMARK VINA RESULT: -8.259069950      1.702      8.384
REMARK  17 active torsions:
REMARK  status: ('A' for Active; 'I' for Inactive)
REMARK    1  A    between atoms: C2_2  and  C3_3 
REMARK    2  A    between atoms: C3_3  and  C4_4 
REMARK    3  A    between atoms: C4_4  and  O1_5 
REMARK    4  A    between atoms: O1_5  and  C5_6 
REMARK       I    between atoms: C5_6  and  N1_8 
REMARK    5  A    between atoms: N2_11  and  C8_12 
REMARK    6  A    between atoms: C8_12  and  O3_13 
REMARK    7  A    between atoms: C8_12  and  C9_15 
REMARK    8  A    between atoms: C9_15  and  N3_16 
REMARK    9  A    between atoms: N3_16  and  C10_17 
REMARK   10  A    between atoms: N3_16  and  N5_33 
REMARK   11  A    between atoms: C10_17  and  C11_18 
REMARK   12  A    between atoms: C11_18  and  C12_20 
REMARK   13  A    between atoms: C12_20  and  C14_22 
REMARK   14  A    between atoms: C12_20  and  N4_24 
REMARK       I    between atoms: N4_24  and  C16_26 
REMARK   15  A    between atoms: C16_26  and  O6_28 
REMARK   16  A    between atoms: O6_28  and  C17_29 
REMARK       I    between atoms: N5_33  and  C21_35 
REMARK   17  A    between atoms: C21_35  and  C22_37 
ROOT
HETATM    1  N3  UNL     1      15.469  23.687  16.462  1.00  0.00    -0.268 N 
ENDROOT
BRANCH   1   2
HETATM    2  C9  UNL     1      15.140  23.394  17.781  1.00  0.00     0.171 C 
BRANCH   2   3
HETATM    3  C8  UNL     1      15.971  22.462  18.553  1.00  0.00     0.156 C 
BRANCH   3   4
HETATM    4  N2  UNL     1      17.271  22.566  19.045  1.00  0.00    -0.358 N 
HETATM    5  C7  UNL     1      17.430  23.202  20.374  1.00  0.00     0.145 C 
HETATM    6  C6  UNL     1      18.294  24.425  20.145  1.00  0.00     0.148 C 
HETATM    7  N1  UNL     1      19.601  23.945  19.775  1.00  0.00    -0.325 N 
HETATM    8  C5  UNL     1      20.776  24.444  20.451  1.00  0.00     0.362 C 
HETATM    9  C27 UNL     1      19.710  22.968  18.744  1.00  0.00     0.148 C 
HETATM   10  O2  UNL     1      21.909  24.014  20.102  1.00  0.00    -0.238 OA
HETATM   11  C26 UNL     1      18.499  22.179  18.421  1.00  0.00     0.145 C 
BRANCH   8  12
HETATM   12  O1  UNL     1      20.745  25.366  21.459  1.00  0.00    -0.304 OA
BRANCH  12  13
HETATM   13  C4  UNL     1      21.478  26.554  21.551  1.00  0.00     0.180 C 
BRANCH  13  14
HETATM   14  C3  UNL     1      22.363  26.507  22.763  1.00  0.00     0.026 C 
BRANCH  14  15
HETATM   15  C2  UNL     1      23.782  26.078  22.366  1.00  0.00    -0.002 C 
HETATM   16  C1  UNL     1      23.970  24.656  22.840  1.00  0.00     0.005 C 
ENDBRANCH  14  15
ENDBRANCH  13  14
ENDBRANCH  12  13
ENDBRANCH   8  12
ENDBRANCH   3   4
BRANCH   3  17
HETATM   17  O3  UNL     1      15.354  21.349  18.823  1.00  0.00    -0.345 OA
ATOM     18  H3  UNL     1      14.560  21.188  18.325  1.00  0.00     0.219 HD
ENDBRANCH   3  17
ENDBRANCH   2   3
ENDBRANCH   1   2
BRANCH   1  19
HETATM   19  C10 UNL     1      14.642  23.321  15.387  1.00  0.00     0.168 C 
BRANCH  19  20
HETATM   20  C11 UNL     1      14.698  21.969  14.854  1.00  0.00     0.194 C 
HETATM   21  O4  UNL     1      15.603  21.543  14.213  1.00  0.00    -0.289 OA
BRANCH  20  22
HETATM   22  C12 UNL     1      13.542  21.014  15.117  1.00  0.00     0.097 C 
HETATM   23  C13 UNL     1      12.281  21.784  14.871  1.00  0.00     0.047 C 
BRANCH  22  24
HETATM   24  C14 UNL     1      13.628  19.881  14.101  1.00  0.00     0.034 C 
HETATM   25  C15 UNL     1      12.416  19.864  13.209  1.00  0.00     0.008 C 
ENDBRANCH  22  24
BRANCH  22  26
HETATM   26  N4  UNL     1      13.669  20.479  16.429  1.00  0.00    -0.321 N 
HETATM   27  C16 UNL     1      12.593  19.948  17.165  1.00  0.00     0.362 C 
HETATM   28  O5  UNL     1      11.402  19.894  16.709  1.00  0.00    -0.238 OA
ATOM     29  H4  UNL     1      14.593  20.480  16.862  1.00  0.00     0.166 HD
BRANCH  27  30
HETATM   30  O6  UNL     1      12.744  19.443  18.441  1.00  0.00    -0.294 OA
BRANCH  30  31
HETATM   31  C17 UNL     1      13.035  18.151  18.807  1.00  0.00     0.061 C 
HETATM   32  C18 UNL     1      12.882  17.948  20.294  1.00  0.00     0.046 C 
HETATM   33  C19 UNL     1      12.220  17.104  18.080  1.00  0.00     0.046 C 
HETATM   34  C20 UNL     1      14.500  17.797  18.507  1.00  0.00     0.046 C 
ENDBRANCH  30  31
ENDBRANCH  27  30
ENDBRANCH  22  26
ENDBRANCH  20  22
ENDBRANCH  19  20
ENDBRANCH   1  19
BRANCH   1  35
HETATM   35  N5  UNL     1      16.343  24.735  16.305  1.00  0.00    -0.258 N 
HETATM   36  C21 UNL     1      17.633  24.645  15.745  1.00  0.00     0.288 C 
HETATM   37  O7  UNL     1      18.045  23.506  15.349  1.00  0.00    -0.264 OA
ATOM     38  H5  UNL     1      16.032  25.655  16.619  1.00  0.00     0.191 HD
BRANCH  36  39
HETATM   39  C22 UNL     1      18.550  25.779  15.576  1.00  0.00     0.117 A 
HETATM   40  C23 UNL     1      18.571  26.595  14.476  1.00  0.00     0.122 A 
HETATM   41  N6  UNL     1      19.428  27.648  14.339  1.00  0.00    -0.372 N 
HETATM   42  C24 UNL     1      20.301  27.899  15.342  1.00  0.00     0.104 A 
ATOM     43  H6  UNL     1      19.412  28.231  13.502  1.00  0.00     0.164 HD
HETATM   44  C25 UNL     1      20.299  27.096  16.456  1.00  0.00     0.105 A 
HETATM   45  N7  UNL     1      19.443  26.078  16.546  1.00  0.00    -0.359 N 
ATOM     46  H7  UNL     1      19.464  25.499  17.385  1.00  0.00     0.165 HD
ENDBRANCH  36  39
ENDBRANCH   1  35
TORSDOF 17
ENDMDL
