MODEL 1
REMARK VINA RESULT: -7.700831321      0.000      0.000
REMARK  15 active torsions:
REMARK  status: ('A' for Active; 'I' for Inactive)
REMARK    1  A    between atoms: C2_2  and  C4_4 
REMARK    2  A    between atoms: C4_4  and  C5_5 
REMARK    3  A    between atoms: C4_4  and  N2_24 
REMARK       I    between atoms: C5_5  and  N1_7 
REMARK    4  A    between atoms: N1_7  and  C6_9 
REMARK    5  A    between atoms: C6_9  and  C7_10 
REMARK    6  A    between atoms: C6_9  and  C13_18 
REMARK    7  A    between atoms: C7_10  and  C8_11 
REMARK    8  A    between atoms: C8_11  and  O3_13 
REMARK    9  A    between atoms: O3_13  and  C9_14 
REMARK   10  A    between atoms: C13_18  and  C14_20 
REMARK       I    between atoms: N4_29  and  C21_30 
REMARK   11  A    between atoms: C21_30  and  O6_32 
REMARK   12  A    between atoms: O6_32  and  C22_33 
REMARK   13  A    between atoms: C22_33  and  C23_34 
REMARK   14  A    between atoms: C23_34  and  C24_35 
REMARK   15  A    between atoms: C24_35  and  N5_36 
ROOT
HETATM    1  N2  UNL     1      17.024  23.073  18.321  1.00  0.00    -0.334 N 
HETATM    2  C18 UNL     1      17.521  22.023  19.172  1.00  0.00     0.167 C 
HETATM    3  C19 UNL     1      18.889  22.352  19.709  1.00  0.00     0.215 C 
HETATM    4  C20 UNL     1      19.059  21.767  21.049  1.00  0.00     0.086 C 
HETATM    5  N3  UNL     1      19.186  21.297  22.104  1.00  0.00    -0.195 NA
HETATM    6  N4  UNL     1      19.219  23.739  19.723  1.00  0.00    -0.296 N 
HETATM    7  C21 UNL     1      20.576  24.196  19.561  1.00  0.00     0.364 C 
HETATM    8  O5  UNL     1      21.499  23.367  19.397  1.00  0.00    -0.238 OA
HETATM    9  C27 UNL     1      18.159  24.715  19.901  1.00  0.00     0.179 C 
HETATM   10  C28 UNL     1      17.533  24.632  21.264  1.00  0.00     0.043 C 
HETATM   11  C29 UNL     1      17.170  24.424  18.818  1.00  0.00     0.243 C 
HETATM   12  O7  UNL     1      16.495  25.373  18.379  1.00  0.00    -0.271 OA
ENDROOT
BRANCH   1  13
HETATM   13  C4  UNL     1      16.408  22.891  17.062  1.00  0.00     0.182 C 
BRANCH  13  14
HETATM   14  C2  UNL     1      17.284  23.018  15.850  1.00  0.00     0.009 C 
HETATM   15  C1  UNL     1      18.752  22.900  16.105  1.00  0.00     0.012 C 
HETATM   16  C3  UNL     1      16.957  24.298  15.070  1.00  0.00     0.012 C 
ENDBRANCH  13  14
BRANCH  13  17
HETATM   17  C5  UNL     1      15.614  21.648  16.945  1.00  0.00     0.241 C 
HETATM   18  O1  UNL     1      16.053  20.743  16.188  1.00  0.00    -0.271 OA
HETATM   19  N1  UNL     1      14.412  21.488  17.654  1.00  0.00    -0.347 N 
ATOM     20  H1  UNL     1      14.093  22.249  18.254  1.00  0.00     0.163 HD
BRANCH  19  21
HETATM   21  C6  UNL     1      13.610  20.285  17.569  1.00  0.00     0.164 C 
BRANCH  21  22
HETATM   22  C7  UNL     1      12.301  20.508  16.877  1.00  0.00     0.144 C 
BRANCH  22  23
HETATM   23  C8  UNL     1      12.267  20.247  15.451  1.00  0.00     0.261 C 
HETATM   24  O2  UNL     1      11.499  19.434  14.885  1.00  0.00    -0.265 OA
BRANCH  23  25
HETATM   25  O3  UNL     1      13.148  20.942  14.632  1.00  0.00    -0.311 OA
BRANCH  25  26
HETATM   26  C9  UNL     1      12.854  22.176  14.049  1.00  0.00     0.060 C 
HETATM   27  C10 UNL     1      13.568  22.197  12.692  1.00  0.00     0.045 C 
HETATM   28  C11 UNL     1      11.386  22.371  13.777  1.00  0.00     0.045 C 
HETATM   29  C12 UNL     1      13.362  23.351  14.832  1.00  0.00     0.045 C 
ENDBRANCH  25  26
ENDBRANCH  23  25
ENDBRANCH  22  23
ENDBRANCH  21  22
BRANCH  21  30
HETATM   30  C13 UNL     1      13.538  19.549  18.840  1.00  0.00     0.157 C 
HETATM   31  O4  UNL     1      13.668  20.260  19.847  1.00  0.00    -0.295 OA
BRANCH  30  32
HETATM   32  C14 UNL     1      13.346  18.155  19.110  1.00  0.00     0.012 C 
HETATM   33  C15 UNL     1      12.293  17.368  18.460  1.00  0.00     0.022 C 
HETATM   34  C16 UNL     1      13.267  17.932  20.608  1.00  0.00     0.022 C 
HETATM   35  C17 UNL     1      14.680  17.467  18.722  1.00  0.00     0.022 C 
ENDBRANCH  30  32
ENDBRANCH  21  30
ENDBRANCH  19  21
ENDBRANCH  13  17
ENDBRANCH   1  13
BRANCH   7  36
HETATM   36  O6  UNL     1      20.866  25.531  19.583  1.00  0.00    -0.304 OA
BRANCH  36  37
HETATM   37  C22 UNL     1      21.431  26.123  18.410  1.00  0.00     0.185 C 
BRANCH  37  38
HETATM   38  C23 UNL     1      20.465  27.028  17.722  1.00  0.00     0.071 C 
BRANCH  38  39
HETATM   39  C24 UNL     1      19.595  26.431  16.685  1.00  0.00     0.059 C 
BRANCH  39  40
HETATM   40  N5  UNL     1      19.863  26.689  15.329  1.00  0.00    -0.402 N 
HETATM   41  C25 UNL     1      20.006  28.020  14.877  1.00  0.00     0.148 C 
HETATM   42  C26 UNL     1      20.679  25.729  14.661  1.00  0.00     0.148 C 
ENDBRANCH  39  40
ENDBRANCH  38  39
ENDBRANCH  37  38
ENDBRANCH  36  37
ENDBRANCH   7  36
TORSDOF 15
ENDMDL
MODEL 2
REMARK VINA RESULT: -7.655618123      2.041      9.413
REMARK  15 active torsions:
REMARK  status: ('A' for Active; 'I' for Inactive)
REMARK    1  A    between atoms: C2_2  and  C4_4 
REMARK    2  A    between atoms: C4_4  and  C5_5 
REMARK    3  A    between atoms: C4_4  and  N2_24 
REMARK       I    between atoms: C5_5  and  N1_7 
REMARK    4  A    between atoms: N1_7  and  C6_9 
REMARK    5  A    between atoms: C6_9  and  C7_10 
REMARK    6  A    between atoms: C6_9  and  C13_18 
REMARK    7  A    between atoms: C7_10  and  C8_11 
REMARK    8  A    between atoms: C8_11  and  O3_13 
REMARK    9  A    between atoms: O3_13  and  C9_14 
REMARK   10  A    between atoms: C13_18  and  C14_20 
REMARK       I    between atoms: N4_29  and  C21_30 
REMARK   11  A    between atoms: C21_30  and  O6_32 
REMARK   12  A    between atoms: O6_32  and  C22_33 
REMARK   13  A    between atoms: C22_33  and  C23_34 
REMARK   14  A    between atoms: C23_34  and  C24_35 
REMARK   15  A    between atoms: C24_35  and  N5_36 
ROOT
HETATM    1  N2  UNL     1      16.753  23.813  17.438  1.00  0.00    -0.334 N 
HETATM    2  C18 UNL     1      16.998  23.215  16.151  1.00  0.00     0.167 C 
HETATM    3  C19 UNL     1      16.094  22.035  15.912  1.00  0.00     0.215 C 
HETATM    4  C20 UNL     1      15.784  21.919  14.478  1.00  0.00     0.086 C 
HETATM    5  N3  UNL     1      15.549  21.831  13.344  1.00  0.00    -0.195 NA
HETATM    6  N4  UNL     1      14.897  22.020  16.686  1.00  0.00    -0.296 N 
HETATM    7  C21 UNL     1      14.276  20.786  17.097  1.00  0.00     0.364 C 
HETATM    8  O5  UNL     1      14.793  19.691  16.781  1.00  0.00    -0.238 OA
HETATM    9  C27 UNL     1      14.290  23.281  17.072  1.00  0.00     0.179 C 
HETATM   10  C28 UNL     1      13.769  24.047  15.889  1.00  0.00     0.043 C 
HETATM   11  C29 UNL     1      15.367  24.032  17.789  1.00  0.00     0.243 C 
HETATM   12  O7  UNL     1      15.022  24.834  18.676  1.00  0.00    -0.271 OA
ENDROOT
BRANCH   1  13
HETATM   13  C4  UNL     1      17.743  24.205  18.367  1.00  0.00     0.182 C 
BRANCH  13  14
HETATM   14  C2  UNL     1      18.122  23.206  19.421  1.00  0.00     0.009 C 
HETATM   15  C1  UNL     1      17.443  21.878  19.317  1.00  0.00     0.012 C 
HETATM   16  C3  UNL     1      17.960  23.804  20.824  1.00  0.00     0.012 C 
ENDBRANCH  13  14
BRANCH  13  17
HETATM   17  C5  UNL     1      18.980  24.737  17.752  1.00  0.00     0.241 C 
HETATM   18  O1  UNL     1      19.773  23.913  17.229  1.00  0.00    -0.271 OA
HETATM   19  N1  UNL     1      19.255  26.114  17.757  1.00  0.00    -0.347 N 
ATOM     20  H1  UNL     1      18.584  26.746  18.196  1.00  0.00     0.163 HD
BRANCH  19  21
HETATM   21  C6  UNL     1      20.452  26.673  17.163  1.00  0.00     0.164 C 
BRANCH  21  22
HETATM   22  C7  UNL     1      21.274  27.457  18.139  1.00  0.00     0.144 C 
BRANCH  22  23
HETATM   23  C8  UNL     1      22.420  26.781  18.713  1.00  0.00     0.261 C 
HETATM   24  O2  UNL     1      23.543  27.303  18.906  1.00  0.00    -0.265 OA
BRANCH  23  25
HETATM   25  O3  UNL     1      22.283  25.449  19.084  1.00  0.00    -0.311 OA
BRANCH  25  26
HETATM   26  C9  UNL     1      22.111  25.026  20.403  1.00  0.00     0.060 C 
HETATM   27  C10 UNL     1      21.529  23.609  20.333  1.00  0.00     0.045 C 
HETATM   28  C11 UNL     1      23.402  24.935  21.173  1.00  0.00     0.045 C 
HETATM   29  C12 UNL     1      21.139  25.862  21.184  1.00  0.00     0.045 C 
ENDBRANCH  25  26
ENDBRANCH  23  25
ENDBRANCH  22  23
ENDBRANCH  21  22
BRANCH  21  30
HETATM   30  C13 UNL     1      20.201  27.332  15.871  1.00  0.00     0.157 C 
HETATM   31  O4  UNL     1      20.364  28.561  15.888  1.00  0.00    -0.295 OA
BRANCH  30  32
HETATM   32  C14 UNL     1      19.800  26.796  14.606  1.00  0.00     0.012 C 
HETATM   33  C15 UNL     1      18.393  26.571  14.259  1.00  0.00     0.022 C 
HETATM   34  C16 UNL     1      20.581  25.528  14.319  1.00  0.00     0.022 C 
HETATM   35  C17 UNL     1      20.338  27.787  13.542  1.00  0.00     0.022 C 
ENDBRANCH  30  32
ENDBRANCH  21  30
ENDBRANCH  19  21
ENDBRANCH  13  17
ENDBRANCH   1  13
BRANCH   7  36
HETATM   36  O6  UNL     1      13.126  20.800  17.834  1.00  0.00    -0.304 OA
BRANCH  36  37
HETATM   37  C22 UNL     1      11.999  20.064  17.349  1.00  0.00     0.185 C 
BRANCH  37  38
HETATM   38  C23 UNL     1      11.531  19.047  18.334  1.00  0.00     0.071 C 
BRANCH  38  39
HETATM   39  C24 UNL     1      12.472  17.961  18.690  1.00  0.00     0.059 C 
BRANCH  39  40
HETATM   40  N5  UNL     1      13.117  17.991  19.939  1.00  0.00    -0.402 N 
HETATM   41  C25 UNL     1      14.472  18.382  20.025  1.00  0.00     0.148 C 
HETATM   42  C26 UNL     1      12.306  18.362  21.051  1.00  0.00     0.148 C 
ENDBRANCH  39  40
ENDBRANCH  38  39
ENDBRANCH  37  38
ENDBRANCH  36  37
ENDBRANCH   7  36
TORSDOF 15
ENDMDL
MODEL 3
REMARK VINA RESULT: -7.513846976      2.170      9.451
REMARK  15 active torsions:
REMARK  status: ('A' for Active; 'I' for Inactive)
REMARK    1  A    between atoms: C2_2  and  C4_4 
REMARK    2  A    between atoms: C4_4  and  C5_5 
REMARK    3  A    between atoms: C4_4  and  N2_24 
REMARK       I    between atoms: C5_5  and  N1_7 
REMARK    4  A    between atoms: N1_7  and  C6_9 
REMARK    5  A    between atoms: C6_9  and  C7_10 
REMARK    6  A    between atoms: C6_9  and  C13_18 
REMARK    7  A    between atoms: C7_10  and  C8_11 
REMARK    8  A    between atoms: C8_11  and  O3_13 
REMARK    9  A    between atoms: O3_13  and  C9_14 
REMARK   10  A    between atoms: C13_18  and  C14_20 
REMARK       I    between atoms: N4_29  and  C21_30 
REMARK   11  A    between atoms: C21_30  and  O6_32 
REMARK   12  A    between atoms: O6_32  and  C22_33 
REMARK   13  A    between atoms: C22_33  and  C23_34 
REMARK   14  A    between atoms: C23_34  and  C24_35 
REMARK   15  A    between atoms: C24_35  and  N5_36 
ROOT
HETATM    1  N2  UNL     1      15.748  22.806  16.313  1.00  0.00    -0.334 N 
HETATM    2  C18 UNL     1      15.957  22.535  14.914  1.00  0.00     0.167 C 
HETATM    3  C19 UNL     1      14.840  21.702  14.344  1.00  0.00     0.215 C 
HETATM    4  C20 UNL     1      14.623  22.047  12.930  1.00  0.00     0.086 C 
HETATM    5  N3  UNL     1      14.463  22.322  11.813  1.00  0.00    -0.195 NA
HETATM    6  N4  UNL     1      13.612  21.755  15.066  1.00  0.00    -0.296 N 
HETATM    7  C21 UNL     1      12.709  20.632  15.109  1.00  0.00     0.364 C 
HETATM    8  O5  UNL     1      13.000  19.573  14.508  1.00  0.00    -0.238 OA
HETATM    9  C27 UNL     1      13.264  22.971  15.779  1.00  0.00     0.179 C 
HETATM   10  C28 UNL     1      13.014  24.123  14.848  1.00  0.00     0.043 C 
HETATM   11  C29 UNL     1      14.420  23.235  16.692  1.00  0.00     0.243 C 
HETATM   12  O7  UNL     1      14.189  23.828  17.761  1.00  0.00    -0.271 OA
ENDROOT
BRANCH   1  13
HETATM   13  C4  UNL     1      16.725  22.697  17.329  1.00  0.00     0.182 C 
BRANCH  13  14
HETATM   14  C2  UNL     1      16.909  21.346  17.955  1.00  0.00     0.009 C 
HETATM   15  C1  UNL     1      15.750  20.412  17.814  1.00  0.00     0.012 C 
HETATM   16  C3  UNL     1      17.342  21.478  19.421  1.00  0.00     0.012 C 
ENDBRANCH  13  14
BRANCH  13  17
HETATM   17  C5  UNL     1      18.055  23.232  16.956  1.00  0.00     0.241 C 
HETATM   18  O1  UNL     1      18.705  22.616  16.073  1.00  0.00    -0.271 OA
HETATM   19  N1  UNL     1      18.567  24.386  17.571  1.00  0.00    -0.347 N 
ATOM     20  H1  UNL     1      18.006  24.851  18.285  1.00  0.00     0.163 HD
BRANCH  19  21
HETATM   21  C6  UNL     1      19.862  24.941  17.231  1.00  0.00     0.164 C 
BRANCH  21  22
HETATM   22  C7  UNL     1      20.810  24.956  18.390  1.00  0.00     0.144 C 
BRANCH  22  23
HETATM   23  C8  UNL     1      20.220  24.904  19.713  1.00  0.00     0.261 C 
HETATM   24  O2  UNL     1      19.528  23.957  20.157  1.00  0.00    -0.265 OA
BRANCH  23  25
HETATM   25  O3  UNL     1      20.426  25.977  20.570  1.00  0.00    -0.311 OA
BRANCH  25  26
HETATM   26  C9  UNL     1      21.665  26.293  21.133  1.00  0.00     0.060 C 
HETATM   27  C10 UNL     1      22.317  27.320  20.199  1.00  0.00     0.045 C 
HETATM   28  C11 UNL     1      21.556  26.937  22.489  1.00  0.00     0.045 C 
HETATM   29  C12 UNL     1      22.602  25.125  21.225  1.00  0.00     0.045 C 
ENDBRANCH  25  26
ENDBRANCH  23  25
ENDBRANCH  22  23
ENDBRANCH  21  22
BRANCH  21  30
HETATM   30  C13 UNL     1      19.768  26.198  16.472  1.00  0.00     0.157 C 
HETATM   31  O4  UNL     1      19.777  27.218  17.175  1.00  0.00    -0.295 OA
BRANCH  30  32
HETATM   32  C14 UNL     1      19.666  26.439  15.064  1.00  0.00     0.012 C 
HETATM   33  C15 UNL     1      20.153  27.675  14.442  1.00  0.00     0.022 C 
HETATM   34  C16 UNL     1      18.241  26.192  14.606  1.00  0.00     0.022 C 
HETATM   35  C17 UNL     1      20.457  25.292  14.385  1.00  0.00     0.022 C 
ENDBRANCH  30  32
ENDBRANCH  21  30
ENDBRANCH  19  21
ENDBRANCH  13  17
ENDBRANCH   1  13
BRANCH   7  36
HETATM   36  O6  UNL     1      11.536  20.711  15.804  1.00  0.00    -0.304 OA
BRANCH  36  37
HETATM   37  C22 UNL     1      11.115  19.571  16.559  1.00  0.00     0.185 C 
BRANCH  37  38
HETATM   38  C23 UNL     1      11.577  19.638  17.976  1.00  0.00     0.071 C 
BRANCH  38  39
HETATM   39  C24 UNL     1      11.249  18.493  18.853  1.00  0.00     0.059 C 
BRANCH  39  40
HETATM   40  N5  UNL     1      12.290  17.775  19.467  1.00  0.00    -0.402 N 
HETATM   41  C25 UNL     1      13.510  17.573  18.783  1.00  0.00     0.148 C 
HETATM   42  C26 UNL     1      12.405  17.930  20.880  1.00  0.00     0.148 C 
ENDBRANCH  39  40
ENDBRANCH  38  39
ENDBRANCH  37  38
ENDBRANCH  36  37
ENDBRANCH   7  36
TORSDOF 15
ENDMDL
MODEL 4
REMARK VINA RESULT: -7.508249702      2.184      9.511
REMARK  15 active torsions:
REMARK  status: ('A' for Active; 'I' for Inactive)
REMARK    1  A    between atoms: C2_2  and  C4_4 
REMARK    2  A    between atoms: C4_4  and  C5_5 
REMARK    3  A    between atoms: C4_4  and  N2_24 
REMARK       I    between atoms: C5_5  and  N1_7 
REMARK    4  A    between atoms: N1_7  and  C6_9 
REMARK    5  A    between atoms: C6_9  and  C7_10 
REMARK    6  A    between atoms: C6_9  and  C13_18 
REMARK    7  A    between atoms: C7_10  and  C8_11 
REMARK    8  A    between atoms: C8_11  and  O3_13 
REMARK    9  A    between atoms: O3_13  and  C9_14 
REMARK   10  A    between atoms: C13_18  and  C14_20 
REMARK       I    between atoms: N4_29  and  C21_30 
REMARK   11  A    between atoms: C21_30  and  O6_32 
REMARK   12  A    between atoms: O6_32  and  C22_33 
REMARK   13  A    between atoms: C22_33  and  C23_34 
REMARK   14  A    between atoms: C23_34  and  C24_35 
REMARK   15  A    between atoms: C24_35  and  N5_36 
ROOT
HETATM    1  N2  UNL     1      15.846  22.861  16.440  1.00  0.00    -0.334 N 
HETATM    2  C18 UNL     1      16.077  22.563  15.050  1.00  0.00     0.167 C 
HETATM    3  C19 UNL     1      14.965  21.726  14.476  1.00  0.00     0.215 C 
HETATM    4  C20 UNL     1      14.774  22.047  13.052  1.00  0.00     0.086 C 
HETATM    5  N3  UNL     1      14.635  22.302  11.927  1.00  0.00    -0.195 NA
HETATM    6  N4  UNL     1      13.725  21.800  15.175  1.00  0.00    -0.296 N 
HETATM    7  C21 UNL     1      12.815  20.683  15.224  1.00  0.00     0.364 C 
HETATM    8  O5  UNL     1      13.108  19.612  14.647  1.00  0.00    -0.238 OA
HETATM    9  C27 UNL     1      13.373  23.031  15.860  1.00  0.00     0.179 C 
HETATM   10  C28 UNL     1      13.146  24.167  14.905  1.00  0.00     0.043 C 
HETATM   11  C29 UNL     1      14.514  23.305  16.788  1.00  0.00     0.243 C 
HETATM   12  O7  UNL     1      14.269  23.918  17.842  1.00  0.00    -0.271 OA
ENDROOT
BRANCH   1  13
HETATM   13  C4  UNL     1      16.805  22.765  17.474  1.00  0.00     0.182 C 
BRANCH  13  14
HETATM   14  C2  UNL     1      17.013  21.411  18.087  1.00  0.00     0.009 C 
HETATM   15  C1  UNL     1      15.832  20.496  18.032  1.00  0.00     0.012 C 
HETATM   16  C3  UNL     1      17.554  21.535  19.516  1.00  0.00     0.012 C 
ENDBRANCH  13  14
BRANCH  13  17
HETATM   17  C5  UNL     1      18.127  23.340  17.136  1.00  0.00     0.241 C 
HETATM   18  O1  UNL     1      18.858  22.695  16.341  1.00  0.00    -0.271 OA
HETATM   19  N1  UNL     1      18.545  24.563  17.686  1.00  0.00    -0.347 N 
ATOM     20  H1  UNL     1      17.920  25.050  18.329  1.00  0.00     0.163 HD
BRANCH  19  21
HETATM   21  C6  UNL     1      19.828  25.159  17.377  1.00  0.00     0.164 C 
BRANCH  21  22
HETATM   22  C7  UNL     1      20.575  25.597  18.598  1.00  0.00     0.144 C 
BRANCH  22  23
HETATM   23  C8  UNL     1      21.000  24.552  19.510  1.00  0.00     0.261 C 
HETATM   24  O2  UNL     1      20.232  23.771  20.119  1.00  0.00    -0.265 OA
BRANCH  23  25
HETATM   25  O3  UNL     1      22.360  24.389  19.738  1.00  0.00    -0.311 OA
BRANCH  25  26
HETATM   26  C9  UNL     1      23.126  25.264  20.511  1.00  0.00     0.060 C 
HETATM   27  C10 UNL     1      24.173  24.406  21.231  1.00  0.00     0.045 C 
HETATM   28  C11 UNL     1      23.877  26.280  19.692  1.00  0.00     0.045 C 
HETATM   29  C12 UNL     1      22.341  25.980  21.571  1.00  0.00     0.045 C 
ENDBRANCH  25  26
ENDBRANCH  23  25
ENDBRANCH  22  23
ENDBRANCH  21  22
BRANCH  21  30
HETATM   30  C13 UNL     1      19.758  26.146  16.288  1.00  0.00     0.157 C 
HETATM   31  O4  UNL     1      19.741  27.325  16.672  1.00  0.00    -0.295 OA
BRANCH  30  32
HETATM   32  C14 UNL     1      19.704  25.976  14.868  1.00  0.00     0.012 C 
HETATM   33  C15 UNL     1      18.460  25.653  14.162  1.00  0.00     0.022 C 
HETATM   34  C16 UNL     1      20.779  24.999  14.431  1.00  0.00     0.022 C 
HETATM   35  C17 UNL     1      20.187  27.321  14.267  1.00  0.00     0.022 C 
ENDBRANCH  30  32
ENDBRANCH  21  30
ENDBRANCH  19  21
ENDBRANCH  13  17
ENDBRANCH   1  13
BRANCH   7  36
HETATM   36  O6  UNL     1      11.630  20.782  15.897  1.00  0.00    -0.304 OA
BRANCH  36  37
HETATM   37  C22 UNL     1      11.138  19.625  16.579  1.00  0.00     0.185 C 
BRANCH  37  38
HETATM   38  C23 UNL     1      11.524  19.621  18.020  1.00  0.00     0.071 C 
BRANCH  38  39
HETATM   39  C24 UNL     1      11.268  18.383  18.789  1.00  0.00     0.059 C 
BRANCH  39  40
HETATM   40  N5  UNL     1      12.338  17.741  19.437  1.00  0.00    -0.402 N 
HETATM   41  C25 UNL     1      13.584  17.610  18.785  1.00  0.00     0.148 C 
HETATM   42  C26 UNL     1      12.408  17.920  20.850  1.00  0.00     0.148 C 
ENDBRANCH  39  40
ENDBRANCH  38  39
ENDBRANCH  37  38
ENDBRANCH  36  37
ENDBRANCH   7  36
TORSDOF 15
ENDMDL
MODEL 5
REMARK VINA RESULT: -7.475803873      2.288      9.472
REMARK  15 active torsions:
REMARK  status: ('A' for Active; 'I' for Inactive)
REMARK    1  A    between atoms: C2_2  and  C4_4 
REMARK    2  A    between atoms: C4_4  and  C5_5 
REMARK    3  A    between atoms: C4_4  and  N2_24 
REMARK       I    between atoms: C5_5  and  N1_7 
REMARK    4  A    between atoms: N1_7  and  C6_9 
REMARK    5  A    between atoms: C6_9  and  C7_10 
REMARK    6  A    between atoms: C6_9  and  C13_18 
REMARK    7  A    between atoms: C7_10  and  C8_11 
REMARK    8  A    between atoms: C8_11  and  O3_13 
REMARK    9  A    between atoms: O3_13  and  C9_14 
REMARK   10  A    between atoms: C13_18  and  C14_20 
REMARK       I    between atoms: N4_29  and  C21_30 
REMARK   11  A    between atoms: C21_30  and  O6_32 
REMARK   12  A    between atoms: O6_32  and  C22_33 
REMARK   13  A    between atoms: C22_33  and  C23_34 
REMARK   14  A    between atoms: C23_34  and  C24_35 
REMARK   15  A    between atoms: C24_35  and  N5_36 
ROOT
HETATM    1  N2  UNL     1      16.812  23.596  17.491  1.00  0.00    -0.334 N 
HETATM    2  C18 UNL     1      17.024  22.971  16.211  1.00  0.00     0.167 C 
HETATM    3  C19 UNL     1      16.005  21.894  15.950  1.00  0.00     0.215 C 
HETATM    4  C20 UNL     1      15.719  21.807  14.509  1.00  0.00     0.086 C 
HETATM    5  N3  UNL     1      15.505  21.742  13.369  1.00  0.00    -0.195 NA
HETATM    6  N4  UNL     1      14.794  22.010  16.693  1.00  0.00    -0.296 N 
HETATM    7  C21 UNL     1      14.035  20.850  17.090  1.00  0.00     0.364 C 
HETATM    8  O5  UNL     1      14.438  19.706  16.786  1.00  0.00    -0.238 OA
HETATM    9  C27 UNL     1      14.317  23.330  17.064  1.00  0.00     0.179 C 
HETATM   10  C28 UNL     1      13.910  24.143  15.868  1.00  0.00     0.043 C 
HETATM   11  C29 UNL     1      15.450  23.964  17.807  1.00  0.00     0.243 C 
HETATM   12  O7  UNL     1      15.170  24.800  18.685  1.00  0.00    -0.271 OA
ENDROOT
BRANCH   1  13
HETATM   13  C4  UNL     1      17.816  23.882  18.445  1.00  0.00     0.182 C 
BRANCH  13  14
HETATM   14  C2  UNL     1      18.241  22.758  19.344  1.00  0.00     0.009 C 
HETATM   15  C1  UNL     1      17.252  21.647  19.492  1.00  0.00     0.012 C 
HETATM   16  C3  UNL     1      18.686  23.291  20.711  1.00  0.00     0.012 C 
ENDBRANCH  13  14
BRANCH  13  17
HETATM   17  C5  UNL     1      19.026  24.524  17.883  1.00  0.00     0.241 C 
HETATM   18  O1  UNL     1      19.885  23.780  17.345  1.00  0.00    -0.271 OA
HETATM   19  N1  UNL     1      19.203  25.916  17.953  1.00  0.00    -0.347 N 
ATOM     20  H1  UNL     1      18.482  26.480  18.402  1.00  0.00     0.163 HD
BRANCH  19  21
HETATM   21  C6  UNL     1      20.371  26.581  17.413  1.00  0.00     0.164 C 
BRANCH  21  22
HETATM   22  C7  UNL     1      21.042  27.477  18.407  1.00  0.00     0.144 C 
BRANCH  22  23
HETATM   23  C8  UNL     1      22.341  27.054  18.891  1.00  0.00     0.261 C 
HETATM   24  O2  UNL     1      23.190  26.421  18.220  1.00  0.00    -0.265 OA
BRANCH  23  25
HETATM   25  O3  UNL     1      22.690  27.364  20.200  1.00  0.00    -0.311 OA
BRANCH  25  26
HETATM   26  C9  UNL     1      22.712  26.430  21.238  1.00  0.00     0.060 C 
HETATM   27  C10 UNL     1      22.032  27.098  22.438  1.00  0.00     0.045 C 
HETATM   28  C11 UNL     1      21.934  25.178  20.930  1.00  0.00     0.045 C 
HETATM   29  C12 UNL     1      24.096  26.045  21.674  1.00  0.00     0.045 C 
ENDBRANCH  25  26
ENDBRANCH  23  25
ENDBRANCH  22  23
ENDBRANCH  21  22
BRANCH  21  30
HETATM   30  C13 UNL     1      20.136  27.169  16.085  1.00  0.00     0.157 C 
HETATM   31  O4  UNL     1      20.297  28.397  16.038  1.00  0.00    -0.295 OA
BRANCH  30  32
HETATM   32  C14 UNL     1      19.753  26.565  14.844  1.00  0.00     0.012 C 
HETATM   33  C15 UNL     1      18.375  26.147  14.567  1.00  0.00     0.022 C 
HETATM   34  C16 UNL     1      20.685  25.409  14.531  1.00  0.00     0.022 C 
HETATM   35  C17 UNL     1      20.102  27.604  13.748  1.00  0.00     0.022 C 
ENDBRANCH  30  32
ENDBRANCH  21  30
ENDBRANCH  19  21
ENDBRANCH  13  17
ENDBRANCH   1  13
BRANCH   7  36
HETATM   36  O6  UNL     1      12.875  20.990  17.797  1.00  0.00    -0.304 OA
BRANCH  36  37
HETATM   37  C22 UNL     1      12.096  19.820  18.064  1.00  0.00     0.185 C 
BRANCH  37  38
HETATM   38  C23 UNL     1      10.754  19.884  17.417  1.00  0.00     0.071 C 
BRANCH  38  39
HETATM   39  C24 UNL     1      10.690  19.648  15.957  1.00  0.00     0.059 C 
BRANCH  39  40
HETATM   40  N5  UNL     1      10.315  20.701  15.105  1.00  0.00    -0.402 N 
HETATM   41  C25 UNL     1       9.100  21.389  15.322  1.00  0.00     0.148 C 
HETATM   42  C26 UNL     1      11.381  21.498  14.593  1.00  0.00     0.148 C 
ENDBRANCH  39  40
ENDBRANCH  38  39
ENDBRANCH  37  38
ENDBRANCH  36  37
ENDBRANCH   7  36
TORSDOF 15
ENDMDL
