MODEL 1
REMARK VINA RESULT: -5.170315883      0.000      0.000
REMARK  6 active torsions:
REMARK  status: ('A' for Active; 'I' for Inactive)
REMARK    1  A    between atoms: N1_1  and  C1_5 
REMARK    2  A    between atoms: C1_5  and  C2_6 
REMARK    3  A    between atoms: C2_6  and  C3_7 
REMARK    4  A    between atoms: C3_7  and  C4_8 
REMARK    5  A    between atoms: C6_10  and  N2_11 
REMARK    6  A    between atoms: N2_11  and  C7_13 
ROOT
HETATM    1  C4  UNL     1      11.132  29.791  35.200  1.00  0.00     0.011 A 
HETATM    2  C5  UNL     1      11.907  28.542  34.935  1.00  0.00     0.032 A 
HETATM    3  C6  UNL     1      11.521  29.441  33.787  1.00  0.00     0.104 A 
ENDROOT
BRANCH   3   4
HETATM    4  N2  UNL     1      12.535  30.267  33.173  1.00  0.00    -0.220 N 
ATOM      5  H2  UNL     1      13.035  30.958  33.732  1.00  0.00     0.178 HD
BRANCH   4   6
HETATM    6  C7  UNL     1      12.812  30.131  31.902  1.00  0.00     0.694 A 
HETATM    7  N3  UNL     1      13.957  30.464  31.292  1.00  0.00    -0.185 N 
HETATM    8  C8  UNL     1      13.812  30.155  29.991  1.00  0.00     0.215 A 
ATOM      9  H3  UNL     1      14.782  30.873  31.732  1.00  0.00     0.185 HD
HETATM   10  N4  UNL     1      12.588  29.637  29.799  1.00  0.00    -0.281 N 
HETATM   11  N5  UNL     1      11.993  29.628  30.973  1.00  0.00    -0.131 N 
ATOM     12  H4  UNL     1      12.197  29.312  28.915  1.00  0.00     0.188 HD
ATOM     13  H5  UNL     1      11.047  29.289  31.148  1.00  0.00     0.205 HD
ENDBRANCH   4   6
ENDBRANCH   3   4
BRANCH   1  14
HETATM   14  C3  UNL     1       9.684  29.589  35.523  1.00  0.00     0.008 C 
BRANCH  14  15
HETATM   15  C2  UNL     1       9.168  30.559  36.562  1.00  0.00     0.028 C 
BRANCH  15  16
HETATM   16  C1  UNL     1      10.155  31.733  36.553  1.00  0.00     0.229 C 
BRANCH  16  17
HETATM   17  N1  UNL     1       9.508  32.989  36.761  1.00  0.00    -0.079 N 
ATOM     18  H13 UNL     1       9.721  33.642  36.007  1.00  0.00     0.274 HD
ATOM     19  H12 UNL     1       8.500  32.911  36.627  1.00  0.00     0.274 HD
ATOM     20  H11 UNL     1       9.727  33.393  37.672  1.00  0.00     0.274 HD
ENDBRANCH  16  17
ENDBRANCH  15  16
ENDBRANCH  14  15
ENDBRANCH   1  14
TORSDOF 6
ENDMDL
MODEL 2
REMARK VINA RESULT: -5.044068800      1.687      6.038
REMARK  6 active torsions:
REMARK  status: ('A' for Active; 'I' for Inactive)
REMARK    1  A    between atoms: N1_1  and  C1_5 
REMARK    2  A    between atoms: C1_5  and  C2_6 
REMARK    3  A    between atoms: C2_6  and  C3_7 
REMARK    4  A    between atoms: C3_7  and  C4_8 
REMARK    5  A    between atoms: C6_10  and  N2_11 
REMARK    6  A    between atoms: N2_11  and  C7_13 
ROOT
HETATM    1  C4  UNL     1      12.162  29.452  32.595  1.00  0.00     0.011 A 
HETATM    2  C5  UNL     1      12.153  28.064  33.148  1.00  0.00     0.032 A 
HETATM    3  C6  UNL     1      11.978  29.240  34.075  1.00  0.00     0.104 A 
ENDROOT
BRANCH   3   4
HETATM    4  N2  UNL     1      10.666  29.522  34.610  1.00  0.00    -0.220 N 
ATOM      5  H2  UNL     1       9.849  29.038  34.235  1.00  0.00     0.178 HD
BRANCH   4   6
HETATM    6  C7  UNL     1      10.522  30.395  35.573  1.00  0.00     0.694 A 
HETATM    7  N3  UNL     1       9.797  30.242  36.689  1.00  0.00    -0.185 N 
HETATM    8  C8  UNL     1       9.928  31.377  37.399  1.00  0.00     0.215 A 
ATOM      9  H3  UNL     1       9.250  29.422  36.951  1.00  0.00     0.185 HD
HETATM   10  N4  UNL     1      10.726  32.223  36.727  1.00  0.00    -0.281 N 
HETATM   11  N5  UNL     1      11.079  31.609  35.618  1.00  0.00    -0.131 N 
ATOM     12  H4  UNL     1      11.004  33.160  37.020  1.00  0.00     0.188 HD
ATOM     13  H5  UNL     1      11.688  32.000  34.899  1.00  0.00     0.205 HD
ENDBRANCH   4   6
ENDBRANCH   3   4
BRANCH   1  14
HETATM   14  C3  UNL     1      13.508  29.973  32.196  1.00  0.00     0.008 C 
BRANCH  14  15
HETATM   15  C2  UNL     1      13.494  30.692  30.865  1.00  0.00     0.028 C 
BRANCH  15  16
HETATM   16  C1  UNL     1      13.716  29.603  29.808  1.00  0.00     0.229 C 
BRANCH  16  17
HETATM   17  N1  UNL     1      13.817  30.139  28.488  1.00  0.00    -0.079 N 
ATOM     18  H13 UNL     1      13.374  29.523  27.806  1.00  0.00     0.274 HD
ATOM     19  H12 UNL     1      13.220  30.959  28.377  1.00  0.00     0.274 HD
ATOM     20  H11 UNL     1      14.781  30.347  28.226  1.00  0.00     0.274 HD
ENDBRANCH  16  17
ENDBRANCH  15  16
ENDBRANCH  14  15
ENDBRANCH   1  14
TORSDOF 6
ENDMDL
MODEL 3
REMARK VINA RESULT: -4.832943735      1.692      5.895
REMARK  6 active torsions:
REMARK  status: ('A' for Active; 'I' for Inactive)
REMARK    1  A    between atoms: N1_1  and  C1_5 
REMARK    2  A    between atoms: C1_5  and  C2_6 
REMARK    3  A    between atoms: C2_6  and  C3_7 
REMARK    4  A    between atoms: C3_7  and  C4_8 
REMARK    5  A    between atoms: C6_10  and  N2_11 
REMARK    6  A    between atoms: N2_11  and  C7_13 
ROOT
HETATM    1  C4  UNL     1      12.053  29.271  32.710  1.00  0.00     0.011 A 
HETATM    2  C5  UNL     1      12.183  27.847  33.144  1.00  0.00     0.032 A 
HETATM    3  C6  UNL     1      11.896  28.918  34.166  1.00  0.00     0.104 A 
ENDROOT
BRANCH   3   4
HETATM    4  N2  UNL     1      10.564  29.023  34.716  1.00  0.00    -0.220 N 
ATOM      5  H2  UNL     1       9.863  28.318  34.488  1.00  0.00     0.178 HD
BRANCH   4   6
HETATM    6  C7  UNL     1      10.256  30.019  35.506  1.00  0.00     0.694 A 
HETATM    7  N3  UNL     1      10.996  31.109  35.745  1.00  0.00    -0.185 N 
HETATM    8  C8  UNL     1      10.304  31.869  36.612  1.00  0.00     0.215 A 
ATOM      9  H3  UNL     1      11.910  31.322  35.346  1.00  0.00     0.185 HD
HETATM   10  N4  UNL     1       9.147  31.254  36.906  1.00  0.00    -0.281 N 
HETATM   11  N5  UNL     1       9.133  30.129  36.223  1.00  0.00    -0.131 N 
ATOM     12  H4  UNL     1       8.420  31.593  37.536  1.00  0.00     0.188 HD
ATOM     13  H5  UNL     1       8.379  29.442  36.238  1.00  0.00     0.205 HD
ENDBRANCH   4   6
ENDBRANCH   3   4
BRANCH   1  14
HETATM   14  C3  UNL     1      13.340  29.953  32.362  1.00  0.00     0.008 C 
BRANCH  14  15
HETATM   15  C2  UNL     1      13.306  30.627  31.008  1.00  0.00     0.028 C 
BRANCH  15  16
HETATM   16  C1  UNL     1      13.676  29.534  29.997  1.00  0.00     0.229 C 
BRANCH  16  17
HETATM   17  N1  UNL     1      13.683  30.017  28.653  1.00  0.00    -0.079 N 
ATOM     18  H13 UNL     1      13.563  31.029  28.625  1.00  0.00     0.274 HD
ATOM     19  H12 UNL     1      14.615  29.953  28.244  1.00  0.00     0.274 HD
ATOM     20  H11 UNL     1      12.991  29.547  28.068  1.00  0.00     0.274 HD
ENDBRANCH  16  17
ENDBRANCH  15  16
ENDBRANCH  14  15
ENDBRANCH   1  14
TORSDOF 6
ENDMDL
MODEL 4
REMARK VINA RESULT: -4.813166892      1.402      2.155
REMARK  6 active torsions:
REMARK  status: ('A' for Active; 'I' for Inactive)
REMARK    1  A    between atoms: N1_1  and  C1_5 
REMARK    2  A    between atoms: C1_5  and  C2_6 
REMARK    3  A    between atoms: C2_6  and  C3_7 
REMARK    4  A    between atoms: C3_7  and  C4_8 
REMARK    5  A    between atoms: C6_10  and  N2_11 
REMARK    6  A    between atoms: N2_11  and  C7_13 
ROOT
HETATM    1  C4  UNL     1      11.858  27.851  33.593  1.00  0.00     0.011 A 
HETATM    2  C5  UNL     1      10.497  27.414  33.158  1.00  0.00     0.032 A 
HETATM    3  C6  UNL     1      11.209  28.506  32.401  1.00  0.00     0.104 A 
ENDROOT
BRANCH   3   4
HETATM    4  N2  UNL     1      11.781  28.206  31.109  1.00  0.00    -0.220 N 
ATOM      5  H2  UNL     1      11.557  27.324  30.646  1.00  0.00     0.178 HD
BRANCH   4   6
HETATM    6  C7  UNL     1      12.584  29.061  30.530  1.00  0.00     0.694 A 
HETATM    7  N3  UNL     1      13.354  28.836  29.457  1.00  0.00    -0.185 N 
HETATM    8  C8  UNL     1      14.012  29.981  29.202  1.00  0.00     0.215 A 
ATOM      9  H3  UNL     1      13.426  27.964  28.934  1.00  0.00     0.185 HD
HETATM   10  N4  UNL     1      13.653  30.904  30.109  1.00  0.00    -0.281 N 
HETATM   11  N5  UNL     1      12.782  30.327  30.910  1.00  0.00    -0.131 N 
ATOM     12  H4  UNL     1      13.990  31.865  30.166  1.00  0.00     0.188 HD
ATOM     13  H5  UNL     1      12.326  30.779  31.703  1.00  0.00     0.205 HD
ENDBRANCH   4   6
ENDBRANCH   3   4
BRANCH   1  14
HETATM   14  C3  UNL     1      11.894  28.691  34.832  1.00  0.00     0.008 C 
BRANCH  14  15
HETATM   15  C2  UNL     1      11.466  30.121  34.591  1.00  0.00     0.028 C 
BRANCH  15  16
HETATM   16  C1  UNL     1      10.564  30.485  35.776  1.00  0.00     0.229 C 
BRANCH  16  17
HETATM   17  N1  UNL     1      10.734  31.840  36.194  1.00  0.00    -0.079 N 
ATOM     18  H13 UNL     1      10.748  31.912  37.211  1.00  0.00     0.274 HD
ATOM     19  H12 UNL     1      11.678  32.171  35.994  1.00  0.00     0.274 HD
ATOM     20  H11 UNL     1      10.034  32.462  35.790  1.00  0.00     0.274 HD
ENDBRANCH  16  17
ENDBRANCH  15  16
ENDBRANCH  14  15
ENDBRANCH   1  14
TORSDOF 6
ENDMDL
MODEL 5
REMARK VINA RESULT: -4.801888629      1.658      2.124
REMARK  6 active torsions:
REMARK  status: ('A' for Active; 'I' for Inactive)
REMARK    1  A    between atoms: N1_1  and  C1_5 
REMARK    2  A    between atoms: C1_5  and  C2_6 
REMARK    3  A    between atoms: C2_6  and  C3_7 
REMARK    4  A    between atoms: C3_7  and  C4_8 
REMARK    5  A    between atoms: C6_10  and  N2_11 
REMARK    6  A    between atoms: N2_11  and  C7_13 
ROOT
HETATM    1  C4  UNL     1      10.937  29.821  35.032  1.00  0.00     0.011 A 
HETATM    2  C5  UNL     1      11.976  28.748  35.076  1.00  0.00     0.032 A 
HETATM    3  C6  UNL     1      11.584  29.357  33.753  1.00  0.00     0.104 A 
ENDROOT
BRANCH   3   4
HETATM    4  N2  UNL     1      12.488  30.285  33.113  1.00  0.00    -0.220 N 
ATOM      5  H2  UNL     1      12.887  31.057  33.648  1.00  0.00     0.178 HD
BRANCH   4   6
HETATM    6  C7  UNL     1      12.797  30.138  31.851  1.00  0.00     0.694 A 
HETATM    7  N3  UNL     1      13.960  30.458  31.268  1.00  0.00    -0.185 N 
HETATM    8  C8  UNL     1      13.845  30.141  29.966  1.00  0.00     0.215 A 
ATOM      9  H3  UNL     1      14.776  30.864  31.726  1.00  0.00     0.185 HD
HETATM   10  N4  UNL     1      12.623  29.630  29.746  1.00  0.00    -0.281 N 
HETATM   11  N5  UNL     1      11.997  29.635  30.905  1.00  0.00    -0.131 N 
ATOM     12  H4  UNL     1      12.251  29.303  28.855  1.00  0.00     0.188 HD
ATOM     13  H5  UNL     1      11.045  29.304  31.058  1.00  0.00     0.205 HD
ENDBRANCH   4   6
ENDBRANCH   3   4
BRANCH   1  14
HETATM   14  C3  UNL     1       9.528  29.355  35.230  1.00  0.00     0.008 C 
BRANCH  14  15
HETATM   15  C2  UNL     1       9.051  28.427  34.136  1.00  0.00     0.028 C 
BRANCH  15  16
HETATM   16  C1  UNL     1       7.556  28.211  34.402  1.00  0.00     0.229 C 
BRANCH  16  17
HETATM   17  N1  UNL     1       7.116  28.869  35.591  1.00  0.00    -0.079 N 
ATOM     18  H13 UNL     1       7.906  29.143  36.174  1.00  0.00     0.274 HD
ATOM     19  H12 UNL     1       6.739  29.794  35.382  1.00  0.00     0.274 HD
ATOM     20  H11 UNL     1       6.445  28.309  36.119  1.00  0.00     0.274 HD
ENDBRANCH  16  17
ENDBRANCH  15  16
ENDBRANCH  14  15
ENDBRANCH   1  14
TORSDOF 6
ENDMDL
