MODEL 1
REMARK VINA RESULT: -6.656005195      0.000      0.000
REMARK  2 active torsions:
REMARK  status: ('A' for Active; 'I' for Inactive)
REMARK       I    between atoms: N1_2  and  C2_4 
REMARK       I    between atoms: C2_4  and  N3_8 
REMARK    1  A    between atoms: N3_8  and  N4_10 
REMARK    2  A    between atoms: N4_10  and  C3_11 
ROOT
HETATM    1  C1  UNL     1      24.804 -11.601  -8.933  1.00  0.00     0.165 C 
HETATM    2  N1  UNL     1      24.734 -12.962  -8.436  1.00  0.00    -0.230 N 
ATOM      3  H1  UNL     1      25.582 -13.528  -8.439  1.00  0.00     0.177 HD
HETATM    4  C2  UNL     1      23.528 -13.540  -7.946  1.00  0.00     0.682 C 
HETATM    5  N2  UNL     1      22.784 -14.192  -8.761  1.00  0.00    -0.234 N 
ATOM      6  H21 UNL     1      21.920 -14.606  -8.410  1.00  0.00     0.174 HD
ATOM      7  H22 UNL     1      23.016 -14.316  -9.747  1.00  0.00     0.174 HD
HETATM    8  N3  UNL     1      23.204 -13.366  -6.568  1.00  0.00    -0.137 N 
ATOM      9  H3  UNL     1      23.285 -14.129  -5.896  1.00  0.00     0.201 HD
ENDROOT
BRANCH   8  10
HETATM   10  N4  UNL     1      22.770 -12.099  -6.189  1.00  0.00    -0.121 NA
BRANCH  10  11
HETATM   11  C3  UNL     1      21.327 -11.964  -6.264  1.00  0.00     0.100 C 
HETATM   12  C4  UNL     1      20.978 -10.537  -5.997  1.00  0.00     0.023 C 
HETATM   13  C5  UNL     1      19.730 -10.353  -5.189  1.00  0.00     0.002 C 
HETATM   14  C6  UNL     1      18.718 -11.451  -5.387  1.00  0.00     0.000 C 
HETATM   15  C7  UNL     1      19.260 -12.816  -5.115  1.00  0.00     0.002 C 
HETATM   16  C8  UNL     1      20.747 -12.919  -5.250  1.00  0.00     0.023 C 
ENDBRANCH  10  11
ENDBRANCH   8  10
TORSDOF 2
ENDMDL
MODEL 2
REMARK VINA RESULT: -6.244767542      1.575      2.329
REMARK  2 active torsions:
REMARK  status: ('A' for Active; 'I' for Inactive)
REMARK       I    between atoms: N1_2  and  C2_4 
REMARK       I    between atoms: C2_4  and  N3_8 
REMARK    1  A    between atoms: N3_8  and  N4_10 
REMARK    2  A    between atoms: N4_10  and  C3_11 
ROOT
HETATM    1  C1  UNL     1      22.943 -13.843  -8.276  1.00  0.00     0.165 C 
HETATM    2  N1  UNL     1      23.261 -12.686  -7.461  1.00  0.00    -0.230 N 
ATOM      3  H1  UNL     1      23.772 -11.912  -7.887  1.00  0.00     0.177 HD
HETATM    4  C2  UNL     1      22.888 -12.585  -6.091  1.00  0.00     0.682 C 
HETATM    5  N2  UNL     1      23.718 -12.980  -5.198  1.00  0.00    -0.234 N 
ATOM      6  H21 UNL     1      23.451 -12.908  -4.215  1.00  0.00     0.174 HD
ATOM      7  H22 UNL     1      24.636 -13.363  -5.423  1.00  0.00     0.174 HD
HETATM    8  N3  UNL     1      21.603 -12.050  -5.774  1.00  0.00    -0.137 N 
ATOM      9  H3  UNL     1      21.493 -11.115  -5.383  1.00  0.00     0.201 HD
ENDROOT
BRANCH   8  10
HETATM   10  N4  UNL     1      20.510 -12.872  -6.030  1.00  0.00    -0.121 NA
BRANCH  10  11
HETATM   11  C3  UNL     1      19.258 -12.276  -5.600  1.00  0.00     0.100 C 
HETATM   12  C4  UNL     1      19.471 -10.805  -5.446  1.00  0.00     0.023 C 
HETATM   13  C5  UNL     1      18.747 -10.203  -4.281  1.00  0.00     0.002 C 
HETATM   14  C6  UNL     1      17.467 -10.916  -3.933  1.00  0.00     0.000 C 
HETATM   15  C7  UNL     1      17.651 -12.374  -3.670  1.00  0.00     0.002 C 
HETATM   16  C8  UNL     1      18.870 -12.960  -4.314  1.00  0.00     0.023 C 
ENDBRANCH  10  11
ENDBRANCH   8  10
TORSDOF 2
ENDMDL
MODEL 3
REMARK VINA RESULT: -4.975606725      5.081      7.587
REMARK  2 active torsions:
REMARK  status: ('A' for Active; 'I' for Inactive)
REMARK       I    between atoms: N1_2  and  C2_4 
REMARK       I    between atoms: C2_4  and  N3_8 
REMARK    1  A    between atoms: N3_8  and  N4_10 
REMARK    2  A    between atoms: N4_10  and  C3_11 
ROOT
HETATM    1  C1  UNL     1      24.155 -12.024 -11.938  1.00  0.00     0.165 C 
HETATM    2  N1  UNL     1      25.010 -12.633 -10.936  1.00  0.00    -0.230 N 
ATOM      3  H1  UNL     1      25.429 -13.541 -11.136  1.00  0.00     0.177 HD
HETATM    4  C2  UNL     1      25.287 -12.015  -9.683  1.00  0.00     0.682 C 
HETATM    5  N2  UNL     1      24.538 -12.295  -8.681  1.00  0.00    -0.234 N 
ATOM      6  H21 UNL     1      24.736 -11.852  -7.784  1.00  0.00     0.174 HD
ATOM      7  H22 UNL     1      23.751 -12.942  -8.740  1.00  0.00     0.174 HD
HETATM    8  N3  UNL     1      26.386 -11.109  -9.602  1.00  0.00    -0.137 N 
ATOM      9  H3  UNL     1      27.256 -11.361  -9.133  1.00  0.00     0.201 HD
ENDROOT
BRANCH   8  10
HETATM   10  N4  UNL     1      26.208  -9.864 -10.197  1.00  0.00    -0.121 NA
BRANCH  10  11
HETATM   11  C3  UNL     1      27.047  -8.841  -9.600  1.00  0.00     0.100 C 
HETATM   12  C4  UNL     1      27.254  -7.760 -10.610  1.00  0.00     0.023 C 
HETATM   13  C5  UNL     1      28.630  -7.170 -10.599  1.00  0.00     0.002 C 
HETATM   14  C6  UNL     1      29.289  -7.203  -9.245  1.00  0.00     0.000 C 
HETATM   15  C7  UNL     1      29.358  -8.571  -8.650  1.00  0.00     0.002 C 
HETATM   16  C8  UNL     1      28.327  -9.518  -9.181  1.00  0.00     0.023 C 
ENDBRANCH  10  11
ENDBRANCH   8  10
TORSDOF 2
ENDMDL
MODEL 4
REMARK VINA RESULT: -4.671246698      7.308      8.643
REMARK  2 active torsions:
REMARK  status: ('A' for Active; 'I' for Inactive)
REMARK       I    between atoms: N1_2  and  C2_4 
REMARK       I    between atoms: C2_4  and  N3_8 
REMARK    1  A    between atoms: N3_8  and  N4_10 
REMARK    2  A    between atoms: N4_10  and  C3_11 
ROOT
HETATM    1  C1  UNL     1      28.408  -7.445 -10.742  1.00  0.00     0.165 C 
HETATM    2  N1  UNL     1      28.049  -8.199  -9.556  1.00  0.00    -0.230 N 
ATOM      3  H1  UNL     1      27.145  -8.021  -9.118  1.00  0.00     0.177 HD
HETATM    4  C2  UNL     1      28.907  -9.178  -8.978  1.00  0.00     0.682 C 
HETATM    5  N2  UNL     1      29.716  -8.815  -8.053  1.00  0.00    -0.234 N 
ATOM      6  H21 UNL     1      30.331  -9.516  -7.638  1.00  0.00     0.174 HD
ATOM      7  H22 UNL     1      29.773  -7.856  -7.709  1.00  0.00     0.174 HD
HETATM    8  N3  UNL     1      28.827 -10.519  -9.459  1.00  0.00    -0.137 N 
ATOM      9  H3  UNL     1      28.394 -11.261  -8.910  1.00  0.00     0.201 HD
ENDROOT
BRANCH   8  10
HETATM   10  N4  UNL     1      29.372 -10.759 -10.716  1.00  0.00    -0.121 NA
BRANCH  10  11
HETATM   11  C3  UNL     1      28.614 -11.743 -11.468  1.00  0.00     0.100 C 
HETATM   12  C4  UNL     1      27.182 -11.641 -11.057  1.00  0.00     0.023 C 
HETATM   13  C5  UNL     1      26.476 -12.960 -10.969  1.00  0.00     0.002 C 
HETATM   14  C6  UNL     1      27.015 -13.995 -11.920  1.00  0.00     0.000 C 
HETATM   15  C7  UNL     1      28.481 -14.235 -11.773  1.00  0.00     0.002 C 
HETATM   16  C8  UNL     1      29.227 -13.088 -11.165  1.00  0.00     0.023 C 
ENDBRANCH  10  11
ENDBRANCH   8  10
TORSDOF 2
ENDMDL
MODEL 5
REMARK VINA RESULT: -4.667800509      5.089      7.715
REMARK  2 active torsions:
REMARK  status: ('A' for Active; 'I' for Inactive)
REMARK       I    between atoms: N1_2  and  C2_4 
REMARK       I    between atoms: C2_4  and  N3_8 
REMARK    1  A    between atoms: N3_8  and  N4_10 
REMARK    2  A    between atoms: N4_10  and  C3_11 
ROOT
HETATM    1  C1  UNL     1      24.151 -12.010 -11.955  1.00  0.00     0.165 C 
HETATM    2  N1  UNL     1      24.965 -12.718 -10.984  1.00  0.00    -0.230 N 
ATOM      3  H1  UNL     1      25.321 -13.643 -11.225  1.00  0.00     0.177 HD
HETATM    4  C2  UNL     1      25.285 -12.173  -9.708  1.00  0.00     0.682 C 
HETATM    5  N2  UNL     1      24.521 -12.444  -8.715  1.00  0.00    -0.234 N 
ATOM      6  H21 UNL     1      24.751 -12.054  -7.801  1.00  0.00     0.174 HD
ATOM      7  H22 UNL     1      23.693 -13.033  -8.797  1.00  0.00     0.174 HD
HETATM    8  N3  UNL     1      26.444 -11.348  -9.594  1.00  0.00    -0.137 N 
ATOM      9  H3  UNL     1      27.296 -11.678  -9.141  1.00  0.00     0.201 HD
ENDROOT
BRANCH   8  10
HETATM   10  N4  UNL     1      26.350 -10.070 -10.135  1.00  0.00    -0.121 NA
BRANCH  10  11
HETATM   11  C3  UNL     1      27.641  -9.414 -10.231  1.00  0.00     0.100 C 
HETATM   12  C4  UNL     1      28.411  -9.717  -8.987  1.00  0.00     0.023 C 
HETATM   13  C5  UNL     1      29.233  -8.571  -8.483  1.00  0.00     0.002 C 
HETATM   14  C6  UNL     1      29.711  -7.647  -9.573  1.00  0.00     0.000 C 
HETATM   15  C7  UNL     1      28.607  -7.101 -10.417  1.00  0.00     0.002 C 
HETATM   16  C8  UNL     1      27.369  -7.943 -10.419  1.00  0.00     0.023 C 
ENDBRANCH  10  11
ENDBRANCH   8  10
TORSDOF 2
ENDMDL
