MODEL 1
REMARK VINA RESULT: -6.846363741      0.000      0.000
REMARK  8 active torsions:
REMARK  status: ('A' for Active; 'I' for Inactive)
REMARK    1  A    between atoms: C2_2  and  N1_3 
REMARK    2  A    between atoms: C3_4  and  O1_5 
REMARK    3  A    between atoms: C4_7  and  C5_8 
REMARK    4  A    between atoms: C5_8  and  C6_9 
REMARK    5  A    between atoms: C7_12  and  O4_13 
REMARK    6  A    between atoms: C8_15  and  S1_16 
REMARK    7  A    between atoms: S1_16  and  C9_17 
REMARK    8  A    between atoms: C9_17  and  C10_18 
REMARK       I    between atoms: C10_18  and  N2_20 
ROOT
HETATM    1  N1  UNL     1      18.875  21.838  14.132  1.00  0.00    -0.320 N 
HETATM    2  C3  UNL     1      18.229  21.849  12.920  1.00  0.00     0.152 A 
HETATM    3  C4  UNL     1      18.929  22.636  12.045  1.00  0.00     0.039 A 
HETATM    4  C7  UNL     1      20.011  23.100  12.756  1.00  0.00     0.110 A 
HETATM    5  C8  UNL     1      19.961  22.587  14.061  1.00  0.00     0.112 A 
ENDROOT
BRANCH   5   6
HETATM    6  S1  UNL     1      21.212  22.890  15.241  1.00  0.00    -0.076 SA
BRANCH   6   7
HETATM    7  C9  UNL     1      21.399  24.521  15.871  1.00  0.00     0.126 C 
BRANCH   7   8
HETATM    8  C10 UNL     1      20.328  25.140  16.627  1.00  0.00     0.250 C 
HETATM    9  O5  UNL     1      20.175  24.976  17.842  1.00  0.00    -0.268 OA
HETATM   10  N2  UNL     1      19.351  26.003  15.987  1.00  0.00    -0.340 N 
HETATM   11  C11 UNL     1      19.461  26.246  14.559  1.00  0.00     0.163 C 
HETATM   12  C15 UNL     1      18.297  26.608  16.745  1.00  0.00     0.117 C 
HETATM   13  C12 UNL     1      18.153  26.807  14.035  1.00  0.00     0.331 C 
HETATM   14  N3  UNL     1      17.785  27.999  14.759  1.00  0.00     0.013 N 
HETATM   15  C13 UNL     1      16.455  28.382  14.258  1.00  0.00     0.356 C 
HETATM   16  O6  UNL     1      18.627  28.981  14.346  1.00  0.00    -0.065 OA
HETATM   17  C14 UNL     1      17.737  27.865  16.175  1.00  0.00     0.336 C 
HETATM   18  C16 UNL     1      17.168  25.647  17.052  1.00  0.00     0.034 C 
ENDBRANCH   7   8
ENDBRANCH   6   7
ENDBRANCH   5   6
BRANCH   1  19
HETATM   19  C2  UNL     1      18.318  21.110  15.289  1.00  0.00     0.127 C 
HETATM   20  C1  UNL     1      17.995  22.145  16.381  1.00  0.00     0.027 C 
ENDBRANCH   1  19
BRANCH   4  21
HETATM   21  O4  UNL     1      20.965  23.939  12.209  1.00  0.00    -0.357 OA
ATOM     22  H4  UNL     1      20.878  24.885  12.205  1.00  0.00     0.217 HD
ENDBRANCH   4  21
BRANCH   2  23
HETATM   23  O1  UNL     1      17.054  21.171  12.621  1.00  0.00    -0.345 OA
ATOM     24  H1  UNL     1      16.326  21.519  12.120  1.00  0.00     0.219 HD
ENDBRANCH   2  23
BRANCH   3  25
HETATM   25  C5  UNL     1      18.552  22.899  10.634  1.00  0.00     0.159 C 
BRANCH  25  26
HETATM   26  C6  UNL     1      17.926  24.208  10.435  1.00  0.00     0.177 C 
HETATM   27  O2  UNL     1      18.399  25.251  10.940  1.00  0.00    -0.648 OA
HETATM   28  O3  UNL     1      16.772  24.281   9.660  1.00  0.00    -0.648 OA
ENDBRANCH  25  26
ENDBRANCH   3  25
TORSDOF 8
ENDMDL
MODEL 2
REMARK VINA RESULT: -6.841872290      2.134      3.429
REMARK  8 active torsions:
REMARK  status: ('A' for Active; 'I' for Inactive)
REMARK    1  A    between atoms: C2_2  and  N1_3 
REMARK    2  A    between atoms: C3_4  and  O1_5 
REMARK    3  A    between atoms: C4_7  and  C5_8 
REMARK    4  A    between atoms: C5_8  and  C6_9 
REMARK    5  A    between atoms: C7_12  and  O4_13 
REMARK    6  A    between atoms: C8_15  and  S1_16 
REMARK    7  A    between atoms: S1_16  and  C9_17 
REMARK    8  A    between atoms: C9_17  and  C10_18 
REMARK       I    between atoms: C10_18  and  N2_20 
ROOT
HETATM    1  N1  UNL     1      21.200  22.419  11.764  1.00  0.00    -0.320 N 
HETATM    2  C3  UNL     1      21.094  23.626  11.116  1.00  0.00     0.152 A 
HETATM    3  C4  UNL     1      19.842  24.140  11.326  1.00  0.00     0.039 A 
HETATM    4  C7  UNL     1      19.196  23.218  12.114  1.00  0.00     0.110 A 
HETATM    5  C8  UNL     1      20.063  22.147  12.380  1.00  0.00     0.112 A 
ENDROOT
BRANCH   5   6
HETATM    6  S1  UNL     1      19.624  20.814  13.419  1.00  0.00    -0.076 SA
BRANCH   6   7
HETATM    7  C9  UNL     1      19.743  21.029  15.160  1.00  0.00     0.126 C 
BRANCH   7   8
HETATM    8  C10 UNL     1      20.420  22.188  15.709  1.00  0.00     0.250 C 
HETATM    9  O5  UNL     1      21.633  22.217  15.939  1.00  0.00    -0.268 OA
HETATM   10  N2  UNL     1      19.695  23.405  16.031  1.00  0.00    -0.340 N 
HETATM   11  C11 UNL     1      18.263  23.451  15.791  1.00  0.00     0.163 C 
HETATM   12  C15 UNL     1      20.375  24.542  16.575  1.00  0.00     0.117 C 
HETATM   13  C12 UNL     1      17.655  24.610  16.558  1.00  0.00     0.331 C 
HETATM   14  N3  UNL     1      18.302  25.849  16.204  1.00  0.00     0.013 N 
HETATM   15  C13 UNL     1      17.724  26.874  17.088  1.00  0.00     0.356 C 
HETATM   16  O6  UNL     1      17.879  26.166  14.953  1.00  0.00    -0.065 OA
HETATM   17  C14 UNL     1      19.719  25.857  16.331  1.00  0.00     0.336 C 
HETATM   18  C16 UNL     1      20.678  24.396  18.051  1.00  0.00     0.034 C 
ENDBRANCH   7   8
ENDBRANCH   6   7
ENDBRANCH   5   6
BRANCH   1  19
HETATM   19  C2  UNL     1      22.428  21.606  11.669  1.00  0.00     0.127 C 
HETATM   20  C1  UNL     1      23.196  21.762  12.994  1.00  0.00     0.027 C 
ENDBRANCH   1  19
BRANCH   4  21
HETATM   21  O4  UNL     1      17.892  23.380  12.545  1.00  0.00    -0.357 OA
ATOM     22  H4  UNL     1      17.167  22.872  12.199  1.00  0.00     0.217 HD
ENDBRANCH   4  21
BRANCH   2  23
HETATM   23  O1  UNL     1      22.093  24.234  10.366  1.00  0.00    -0.345 OA
ATOM     24  H1  UNL     1      22.790  24.781  10.711  1.00  0.00     0.219 HD
ENDBRANCH   2  23
BRANCH   3  25
HETATM   25  C5  UNL     1      19.343  25.430  10.789  1.00  0.00     0.159 C 
BRANCH  25  26
HETATM   26  C6  UNL     1      18.557  25.282   9.563  1.00  0.00     0.177 C 
HETATM   27  O2  UNL     1      18.981  25.676   8.453  1.00  0.00    -0.648 OA
HETATM   28  O3  UNL     1      17.303  24.684   9.646  1.00  0.00    -0.648 OA
ENDBRANCH  25  26
ENDBRANCH   3  25
TORSDOF 8
ENDMDL
MODEL 3
REMARK VINA RESULT: -6.775181433      2.353      6.075
REMARK  8 active torsions:
REMARK  status: ('A' for Active; 'I' for Inactive)
REMARK    1  A    between atoms: C2_2  and  N1_3 
REMARK    2  A    between atoms: C3_4  and  O1_5 
REMARK    3  A    between atoms: C4_7  and  C5_8 
REMARK    4  A    between atoms: C5_8  and  C6_9 
REMARK    5  A    between atoms: C7_12  and  O4_13 
REMARK    6  A    between atoms: C8_15  and  S1_16 
REMARK    7  A    between atoms: S1_16  and  C9_17 
REMARK    8  A    between atoms: C9_17  and  C10_18 
REMARK       I    between atoms: C10_18  and  N2_20 
ROOT
HETATM    1  N1  UNL     1      18.973  25.675  15.110  1.00  0.00    -0.320 N 
HETATM    2  C3  UNL     1      18.029  26.645  14.875  1.00  0.00     0.152 A 
HETATM    3  C4  UNL     1      17.586  27.141  16.073  1.00  0.00     0.039 A 
HETATM    4  C7  UNL     1      18.284  26.450  17.035  1.00  0.00     0.110 A 
HETATM    5  C8  UNL     1      19.149  25.537  16.413  1.00  0.00     0.112 A 
ENDROOT
BRANCH   5   6
HETATM    6  S1  UNL     1      20.262  24.532  17.308  1.00  0.00    -0.076 SA
BRANCH   6   7
HETATM    7  C9  UNL     1      19.885  22.826  17.503  1.00  0.00     0.126 C 
BRANCH   7   8
HETATM    8  C10 UNL     1      19.046  22.147  16.536  1.00  0.00     0.250 C 
HETATM    9  O5  UNL     1      17.834  21.969  16.698  1.00  0.00    -0.268 OA
HETATM   10  N2  UNL     1      19.591  21.623  15.295  1.00  0.00    -0.340 N 
HETATM   11  C11 UNL     1      21.009  21.792  15.029  1.00  0.00     0.163 C 
HETATM   12  C15 UNL     1      18.751  20.954  14.348  1.00  0.00     0.117 C 
HETATM   13  C12 UNL     1      21.437  20.842  13.926  1.00  0.00     0.331 C 
HETATM   14  N3  UNL     1      20.637  21.044  12.744  1.00  0.00     0.013 N 
HETATM   15  C13 UNL     1      21.050  19.999  11.793  1.00  0.00     0.356 C 
HETATM   16  O6  UNL     1      21.044  22.218  12.193  1.00  0.00    -0.065 OA
HETATM   17  C14 UNL     1      19.229  20.979  12.938  1.00  0.00     0.336 C 
HETATM   18  C16 UNL     1      18.435  19.528  14.748  1.00  0.00     0.034 C 
ENDBRANCH   7   8
ENDBRANCH   6   7
ENDBRANCH   5   6
BRANCH   1  19
HETATM   19  C2  UNL     1      19.589  24.924  14.000  1.00  0.00     0.127 C 
HETATM   20  C1  UNL     1      20.901  25.637  13.624  1.00  0.00     0.027 C 
ENDBRANCH   1  19
BRANCH   4  21
HETATM   21  O4  UNL     1      18.113  26.669  18.390  1.00  0.00    -0.357 OA
ATOM     22  H4  UNL     1      18.309  26.012  19.047  1.00  0.00     0.217 HD
ENDBRANCH   4  21
BRANCH   2  23
HETATM   23  O1  UNL     1      17.588  27.061  13.625  1.00  0.00    -0.345 OA
ATOM     24  H1  UNL     1      18.133  27.432  12.941  1.00  0.00     0.219 HD
ENDBRANCH   2  23
BRANCH   3  25
HETATM   25  C5  UNL     1      16.565  28.204  16.237  1.00  0.00     0.159 C 
BRANCH  25  26
HETATM   26  C6  UNL     1      15.210  27.765  15.896  1.00  0.00     0.177 C 
HETATM   27  O2  UNL     1      14.432  27.291  16.754  1.00  0.00    -0.648 OA
HETATM   28  O3  UNL     1      14.787  27.884  14.575  1.00  0.00    -0.648 OA
ENDBRANCH  25  26
ENDBRANCH   3  25
TORSDOF 8
ENDMDL
MODEL 4
REMARK VINA RESULT: -6.751122837      2.893      6.665
REMARK  8 active torsions:
REMARK  status: ('A' for Active; 'I' for Inactive)
REMARK    1  A    between atoms: C2_2  and  N1_3 
REMARK    2  A    between atoms: C3_4  and  O1_5 
REMARK    3  A    between atoms: C4_7  and  C5_8 
REMARK    4  A    between atoms: C5_8  and  C6_9 
REMARK    5  A    between atoms: C7_12  and  O4_13 
REMARK    6  A    between atoms: C8_15  and  S1_16 
REMARK    7  A    between atoms: S1_16  and  C9_17 
REMARK    8  A    between atoms: C9_17  and  C10_18 
REMARK       I    between atoms: C10_18  and  N2_20 
ROOT
HETATM    1  N1  UNL     1      18.516  25.273  16.807  1.00  0.00    -0.320 N 
HETATM    2  C3  UNL     1      17.687  26.257  17.289  1.00  0.00     0.152 A 
HETATM    3  C4  UNL     1      17.261  27.036  16.246  1.00  0.00     0.039 A 
HETATM    4  C7  UNL     1      17.851  26.502  15.125  1.00  0.00     0.110 A 
HETATM    5  C8  UNL     1      18.632  25.397  15.496  1.00  0.00     0.112 A 
ENDROOT
BRANCH   5   6
HETATM    6  S1  UNL     1      19.475  24.406  14.332  1.00  0.00    -0.076 SA
BRANCH   6   7
HETATM    7  C9  UNL     1      18.608  23.867  12.900  1.00  0.00     0.126 C 
BRANCH   7   8
HETATM    8  C10 UNL     1      19.038  22.679  12.189  1.00  0.00     0.250 C 
HETATM    9  O5  UNL     1      18.413  21.614  12.210  1.00  0.00    -0.268 OA
HETATM   10  N2  UNL     1      20.256  22.670  11.397  1.00  0.00    -0.340 N 
HETATM   11  C11 UNL     1      21.050  23.884  11.322  1.00  0.00     0.163 C 
HETATM   12  C15 UNL     1      20.670  21.489  10.700  1.00  0.00     0.117 C 
HETATM   13  C12 UNL     1      22.440  23.553  10.814  1.00  0.00     0.331 C 
HETATM   14  N3  UNL     1      22.369  22.874   9.544  1.00  0.00     0.013 N 
HETATM   15  C13 UNL     1      23.751  22.495   9.210  1.00  0.00     0.356 C 
HETATM   16  O6  UNL     1      22.014  23.807   8.622  1.00  0.00    -0.065 OA
HETATM   17  C14 UNL     1      21.539  21.718   9.513  1.00  0.00     0.336 C 
HETATM   18  C16 UNL     1      21.318  20.467  11.609  1.00  0.00     0.034 C 
ENDBRANCH   7   8
ENDBRANCH   6   7
ENDBRANCH   5   6
BRANCH   1  19
HETATM   19  C2  UNL     1      19.171  24.312  17.716  1.00  0.00     0.127 C 
HETATM   20  C1  UNL     1      20.494  24.942  18.187  1.00  0.00     0.027 C 
ENDBRANCH   1  19
BRANCH   4  21
HETATM   21  O4  UNL     1      17.662  27.020  13.857  1.00  0.00    -0.357 OA
ATOM     22  H4  UNL     1      18.331  26.991  13.183  1.00  0.00     0.217 HD
ENDBRANCH   4  21
BRANCH   2  23
HETATM   23  O1  UNL     1      17.331  26.437  18.619  1.00  0.00    -0.345 OA
ATOM     24  H1  UNL     1      16.463  26.310  18.984  1.00  0.00     0.219 HD
ENDBRANCH   2  23
BRANCH   3  25
HETATM   25  C5  UNL     1      16.351  28.202  16.361  1.00  0.00     0.159 C 
BRANCH  25  26
HETATM   26  C6  UNL     1      14.990  27.924  15.897  1.00  0.00     0.177 C 
HETATM   27  O2  UNL     1      14.097  27.513  16.672  1.00  0.00    -0.648 OA
HETATM   28  O3  UNL     1      14.693  28.127  14.552  1.00  0.00    -0.648 OA
ENDBRANCH  25  26
ENDBRANCH   3  25
TORSDOF 8
ENDMDL
MODEL 5
REMARK VINA RESULT: -6.740191407      2.835      6.442
REMARK  8 active torsions:
REMARK  status: ('A' for Active; 'I' for Inactive)
REMARK    1  A    between atoms: C2_2  and  N1_3 
REMARK    2  A    between atoms: C3_4  and  O1_5 
REMARK    3  A    between atoms: C4_7  and  C5_8 
REMARK    4  A    between atoms: C5_8  and  C6_9 
REMARK    5  A    between atoms: C7_12  and  O4_13 
REMARK    6  A    between atoms: C8_15  and  S1_16 
REMARK    7  A    between atoms: S1_16  and  C9_17 
REMARK    8  A    between atoms: C9_17  and  C10_18 
REMARK       I    between atoms: C10_18  and  N2_20 
ROOT
HETATM    1  N1  UNL     1      17.788  25.418  16.184  1.00  0.00    -0.320 N 
HETATM    2  C3  UNL     1      16.888  26.129  16.940  1.00  0.00     0.152 A 
HETATM    3  C4  UNL     1      16.575  27.294  16.290  1.00  0.00     0.039 A 
HETATM    4  C7  UNL     1      17.306  27.269  15.125  1.00  0.00     0.110 A 
HETATM    5  C8  UNL     1      18.058  26.086  15.076  1.00  0.00     0.112 A 
ENDROOT
BRANCH   5   6
HETATM    6  S1  UNL     1      19.054  25.658  13.706  1.00  0.00    -0.076 SA
BRANCH   6   7
HETATM    7  C9  UNL     1      20.762  25.337  13.975  1.00  0.00     0.126 C 
BRANCH   7   8
HETATM    8  C10 UNL     1      21.250  23.973  14.026  1.00  0.00     0.250 C 
HETATM    9  O5  UNL     1      21.722  23.461  15.047  1.00  0.00    -0.268 OA
HETATM   10  N2  UNL     1      21.216  23.112  12.857  1.00  0.00    -0.340 N 
HETATM   11  C11 UNL     1      20.676  23.641  11.616  1.00  0.00     0.163 C 
HETATM   12  C15 UNL     1      21.702  21.767  12.920  1.00  0.00     0.117 C 
HETATM   13  C12 UNL     1      21.104  22.759  10.458  1.00  0.00     0.331 C 
HETATM   14  N3  UNL     1      20.702  21.392  10.684  1.00  0.00     0.013 N 
HETATM   15  C13 UNL     1      21.271  20.614   9.572  1.00  0.00     0.356 C 
HETATM   16  O6  UNL     1      19.356  21.348  10.509  1.00  0.00    -0.065 OA
HETATM   17  C14 UNL     1      21.121  20.828  11.921  1.00  0.00     0.336 C 
HETATM   18  C16 UNL     1      23.213  21.685  12.869  1.00  0.00     0.034 C 
ENDBRANCH   7   8
ENDBRANCH   6   7
ENDBRANCH   5   6
BRANCH   1  19
HETATM   19  C2  UNL     1      18.346  24.139  16.663  1.00  0.00     0.127 C 
HETATM   20  C1  UNL     1      19.581  24.461  17.523  1.00  0.00     0.027 C 
ENDBRANCH   1  19
BRANCH   4  21
HETATM   21  O4  UNL     1      17.262  28.286  14.189  1.00  0.00    -0.357 OA
ATOM     22  H4  UNL     1      17.986  28.483  13.607  1.00  0.00     0.217 HD
ENDBRANCH   4  21
BRANCH   2  23
HETATM   23  O1  UNL     1      16.371  25.736  18.168  1.00  0.00    -0.345 OA
ATOM     24  H1  UNL     1      16.871  25.370  18.888  1.00  0.00     0.219 HD
ENDBRANCH   2  23
BRANCH   3  25
HETATM   25  C5  UNL     1      15.636  28.330  16.786  1.00  0.00     0.159 C 
BRANCH  25  26
HETATM   26  C6  UNL     1      14.368  28.361  16.054  1.00  0.00     0.177 C 
HETATM   27  O2  UNL     1      14.299  28.074  14.838  1.00  0.00    -0.648 OA
HETATM   28  O3  UNL     1      13.213  28.721  16.743  1.00  0.00    -0.648 OA
ENDBRANCH  25  26
ENDBRANCH   3  25
TORSDOF 8
ENDMDL
