MODEL 1
REMARK VINA RESULT: -7.065210153      0.000      0.000
REMARK  4 active torsions:
REMARK  status: ('A' for Active; 'I' for Inactive)
REMARK    1  A    between atoms: C2_2  and  C3_3 
REMARK    2  A    between atoms: C3_3  and  C4_5 
REMARK    3  A    between atoms: C5_7  and  O3_8 
REMARK    4  A    between atoms: C8_11  and  O4_12 
ROOT
HETATM    1  C4  UNL     1       2.964  34.745  25.726  1.00  0.00     0.203 C 
HETATM    2  O2  UNL     1       4.147  34.462  24.997  1.00  0.00    -0.348 OA
HETATM    3  C5  UNL     1       5.051  35.452  25.385  1.00  0.00     0.262 C 
HETATM    4  C7  UNL     1       4.699  36.805  24.827  1.00  0.00     0.099 C 
HETATM    5  C8  UNL     1       3.268  37.087  25.298  1.00  0.00     0.075 C 
HETATM    6  C9  UNL     1       2.834  38.467  25.105  1.00  0.00     0.024 C 
HETATM    7  C10 UNL     1       1.556  38.727  25.875  1.00  0.00     0.013 C 
HETATM    8  C11 UNL     1       2.686  39.006  23.740  1.00  0.00     0.088 C 
HETATM    9  C12 UNL     1       1.735  38.294  22.884  1.00  0.00     0.156 C 
HETATM   10  O5  UNL     1       0.594  38.745  22.854  1.00  0.00    -0.295 OA
HETATM   11  C13 UNL     1       1.869  37.094  22.013  1.00  0.00     0.191 C 
HETATM   12  C14 UNL     1       0.526  36.397  22.036  1.00  0.00     0.042 C 
HETATM   13  C15 UNL     1       0.683  35.544  23.285  1.00  0.00     0.035 C 
HETATM   14  C16 UNL     1       2.184  35.528  23.591  1.00  0.00     0.132 C 
HETATM   15  O6  UNL     1       2.774  36.246  22.593  1.00  0.00    -0.372 OA
HETATM   16  C17 UNL     1       2.382  35.967  24.978  1.00  0.00     0.086 C 
ENDROOT
BRANCH   1  17
HETATM   17  C3  UNL     1       2.048  33.612  25.748  1.00  0.00     0.155 C 
HETATM   18  O1  UNL     1       1.032  33.660  26.401  1.00  0.00    -0.295 OA
BRANCH  17  19
HETATM   19  C2  UNL     1       2.315  32.374  24.985  1.00  0.00     0.076 C 
HETATM   20  C1  UNL     1       1.159  31.399  25.030  1.00  0.00     0.013 C 
ENDBRANCH  17  19
ENDBRANCH   1  17
BRANCH   3  21
HETATM   21  O3  UNL     1       6.361  35.086  25.184  1.00  0.00    -0.366 OA
HETATM   22  C6  UNL     1       6.671  33.808  25.597  1.00  0.00     0.204 C 
ENDBRANCH   3  21
BRANCH   5  23
HETATM   23  O4  UNL     1       3.429  37.042  26.723  1.00  0.00    -0.389 OA
ATOM     24  H4  UNL     1       3.149  36.155  26.913  1.00  0.00     0.210 HD
ENDBRANCH   5  23
TORSDOF 4
ENDMDL
MODEL 2
REMARK VINA RESULT: -7.032965668      1.495      1.837
REMARK  4 active torsions:
REMARK  status: ('A' for Active; 'I' for Inactive)
REMARK    1  A    between atoms: C2_2  and  C3_3 
REMARK    2  A    between atoms: C3_3  and  C4_5 
REMARK    3  A    between atoms: C5_7  and  O3_8 
REMARK    4  A    between atoms: C8_11  and  O4_12 
ROOT
HETATM    1  C4  UNL     1       4.137  36.001  25.968  1.00  0.00     0.203 C 
HETATM    2  O2  UNL     1       5.418  36.304  25.443  1.00  0.00    -0.348 OA
HETATM    3  C5  UNL     1       5.735  37.555  25.974  1.00  0.00     0.262 C 
HETATM    4  C7  UNL     1       4.917  38.664  25.368  1.00  0.00     0.099 C 
HETATM    5  C8  UNL     1       3.453  38.271  25.599  1.00  0.00     0.075 C 
HETATM    6  C9  UNL     1       2.497  39.342  25.339  1.00  0.00     0.024 C 
HETATM    7  C10 UNL     1       1.135  38.974  25.891  1.00  0.00     0.013 C 
HETATM    8  C11 UNL     1       2.332  39.863  23.969  1.00  0.00     0.088 C 
HETATM    9  C12 UNL     1       1.920  38.876  22.969  1.00  0.00     0.156 C 
HETATM   10  O5  UNL     1       0.715  38.797  22.753  1.00  0.00    -0.295 OA
HETATM   11  C13 UNL     1       2.688  37.916  22.129  1.00  0.00     0.191 C 
HETATM   12  C14 UNL     1       1.794  36.711  21.932  1.00  0.00     0.042 C 
HETATM   13  C15 UNL     1       2.121  35.920  23.189  1.00  0.00     0.035 C 
HETATM   14  C16 UNL     1       3.417  36.526  23.736  1.00  0.00     0.132 C 
HETATM   15  O6  UNL     1       3.776  37.498  22.849  1.00  0.00    -0.372 OA
HETATM   16  C17 UNL     1       3.199  36.906  25.137  1.00  0.00     0.086 C 
ENDROOT
BRANCH   1  17
HETATM   17  C3  UNL     1       3.811  34.586  25.839  1.00  0.00     0.155 C 
HETATM   18  O1  UNL     1       2.747  34.165  26.228  1.00  0.00    -0.295 OA
BRANCH  17  19
HETATM   19  C2  UNL     1       4.752  33.618  25.235  1.00  0.00     0.076 C 
HETATM   20  C1  UNL     1       4.059  32.380  24.710  1.00  0.00     0.013 C 
ENDBRANCH  17  19
ENDBRANCH   1  17
BRANCH   3  21
HETATM   21  O3  UNL     1       7.088  37.802  25.990  1.00  0.00    -0.366 OA
HETATM   22  C6  UNL     1       7.875  36.678  26.129  1.00  0.00     0.204 C 
ENDBRANCH   3  21
BRANCH   5  23
HETATM   23  O4  UNL     1       3.407  38.197  27.031  1.00  0.00    -0.389 OA
ATOM     24  H4  UNL     1       4.235  38.599  27.264  1.00  0.00     0.210 HD
ENDBRANCH   5  23
TORSDOF 4
ENDMDL
MODEL 3
REMARK VINA RESULT: -6.924466943      1.884      4.346
REMARK  4 active torsions:
REMARK  status: ('A' for Active; 'I' for Inactive)
REMARK    1  A    between atoms: C2_2  and  C3_3 
REMARK    2  A    between atoms: C3_3  and  C4_5 
REMARK    3  A    between atoms: C5_7  and  O3_8 
REMARK    4  A    between atoms: C8_11  and  O4_12 
ROOT
HETATM    1  C4  UNL     1       1.161  34.232  24.804  1.00  0.00     0.203 C 
HETATM    2  O2  UNL     1       0.190  34.449  25.813  1.00  0.00    -0.348 OA
HETATM    3  C5  UNL     1      -1.027  34.501  25.132  1.00  0.00     0.262 C 
HETATM    4  C7  UNL     1      -1.182  35.761  24.322  1.00  0.00     0.099 C 
HETATM    5  C8  UNL     1       0.029  35.800  23.384  1.00  0.00     0.075 C 
HETATM    6  C9  UNL     1      -0.071  36.792  22.318  1.00  0.00     0.024 C 
HETATM    7  C10 UNL     1       0.997  36.547  21.272  1.00  0.00     0.013 C 
HETATM    8  C11 UNL     1      -0.090  38.229  22.651  1.00  0.00     0.088 C 
HETATM    9  C12 UNL     1       1.083  38.720  23.377  1.00  0.00     0.156 C 
HETATM   10  O5  UNL     1       1.978  39.206  22.692  1.00  0.00    -0.295 OA
HETATM   11  C13 UNL     1       1.429  38.752  24.825  1.00  0.00     0.191 C 
HETATM   12  C14 UNL     1       2.932  38.607  24.910  1.00  0.00     0.042 C 
HETATM   13  C15 UNL     1       3.062  37.092  24.883  1.00  0.00     0.035 C 
HETATM   14  C16 UNL     1       1.664  36.550  25.195  1.00  0.00     0.132 C 
HETATM   15  O6  UNL     1       0.882  37.645  25.418  1.00  0.00    -0.372 OA
HETATM   16  C17 UNL     1       1.275  35.619  24.130  1.00  0.00     0.086 C 
ENDROOT
BRANCH   1  17
HETATM   17  C3  UNL     1       2.430  33.769  25.353  1.00  0.00     0.155 C 
HETATM   18  O1  UNL     1       2.715  33.992  26.506  1.00  0.00    -0.295 OA
BRANCH  17  19
HETATM   19  C2  UNL     1       3.408  33.019  24.537  1.00  0.00     0.076 C 
HETATM   20  C1  UNL     1       4.832  33.212  25.009  1.00  0.00     0.013 C 
ENDBRANCH  17  19
ENDBRANCH   1  17
BRANCH   3  21
HETATM   21  O3  UNL     1      -2.104  34.219  25.940  1.00  0.00    -0.366 OA
HETATM   22  C6  UNL     1      -1.949  33.102  26.734  1.00  0.00     0.204 C 
ENDBRANCH   3  21
BRANCH   5  23
HETATM   23  O4  UNL     1      -0.148  34.582  22.648  1.00  0.00    -0.389 OA
ATOM     24  H4  UNL     1       0.745  34.391  22.387  1.00  0.00     0.210 HD
ENDBRANCH   5  23
TORSDOF 4
ENDMDL
MODEL 4
REMARK VINA RESULT: -6.876963559      1.850      4.191
REMARK  4 active torsions:
REMARK  status: ('A' for Active; 'I' for Inactive)
REMARK    1  A    between atoms: C2_2  and  C3_3 
REMARK    2  A    between atoms: C3_3  and  C4_5 
REMARK    3  A    between atoms: C5_7  and  O3_8 
REMARK    4  A    between atoms: C8_11  and  O4_12 
ROOT
HETATM    1  C4  UNL     1       2.293  35.203  24.153  1.00  0.00     0.203 C 
HETATM    2  O2  UNL     1       0.920  34.943  24.394  1.00  0.00    -0.348 OA
HETATM    3  C5  UNL     1       0.299  35.131  23.159  1.00  0.00     0.262 C 
HETATM    4  C7  UNL     1       0.241  36.581  22.755  1.00  0.00     0.099 C 
HETATM    5  C8  UNL     1       1.692  37.073  22.774  1.00  0.00     0.075 C 
HETATM    6  C9  UNL     1       1.892  38.374  22.143  1.00  0.00     0.024 C 
HETATM    7  C10 UNL     1       3.369  38.629  21.925  1.00  0.00     0.013 C 
HETATM    8  C11 UNL     1       1.282  39.579  22.737  1.00  0.00     0.088 C 
HETATM    9  C12 UNL     1       1.687  39.873  24.113  1.00  0.00     0.156 C 
HETATM   10  O5  UNL     1       2.622  40.657  24.244  1.00  0.00    -0.295 OA
HETATM   11  C13 UNL     1       1.182  39.403  25.432  1.00  0.00     0.191 C 
HETATM   12  C14 UNL     1       2.376  39.375  26.361  1.00  0.00     0.042 C 
HETATM   13  C15 UNL     1       2.933  37.995  26.049  1.00  0.00     0.035 C 
HETATM   14  C16 UNL     1       1.812  37.250  25.318  1.00  0.00     0.132 C 
HETATM   15  O6  UNL     1       0.754  38.110  25.286  1.00  0.00    -0.372 OA
HETATM   16  C17 UNL     1       2.340  36.745  24.045  1.00  0.00     0.086 C 
ENDROOT
BRANCH   1  17
HETATM   17  C3  UNL     1       3.145  34.689  25.218  1.00  0.00     0.155 C 
HETATM   18  O1  UNL     1       2.657  34.174  26.197  1.00  0.00    -0.295 OA
BRANCH  17  19
HETATM   19  C2  UNL     1       4.619  34.774  25.150  1.00  0.00     0.076 C 
HETATM   20  C1  UNL     1       5.284  33.415  25.182  1.00  0.00     0.013 C 
ENDBRANCH  17  19
ENDBRANCH   1  17
BRANCH   3  21
HETATM   21  O3  UNL     1      -0.905  34.473  23.061  1.00  0.00    -0.366 OA
HETATM   22  C6  UNL     1      -1.686  34.533  24.196  1.00  0.00     0.204 C 
ENDBRANCH   3  21
BRANCH   5  23
HETATM   23  O4  UNL     1       2.296  36.200  21.809  1.00  0.00    -0.389 OA
ATOM     24  H4  UNL     1       3.055  36.708  21.549  1.00  0.00     0.210 HD
ENDBRANCH   5  23
TORSDOF 4
ENDMDL
MODEL 5
REMARK VINA RESULT: -6.703182186      1.939      4.267
REMARK  4 active torsions:
REMARK  status: ('A' for Active; 'I' for Inactive)
REMARK    1  A    between atoms: C2_2  and  C3_3 
REMARK    2  A    between atoms: C3_3  and  C4_5 
REMARK    3  A    between atoms: C5_7  and  O3_8 
REMARK    4  A    between atoms: C8_11  and  O4_12 
ROOT
HETATM    1  C4  UNL     1       1.648  35.087  24.629  1.00  0.00     0.203 C 
HETATM    2  O2  UNL     1       0.451  35.126  25.387  1.00  0.00    -0.348 OA
HETATM    3  C5  UNL     1      -0.559  35.343  24.449  1.00  0.00     0.262 C 
HETATM    4  C7  UNL     1      -0.538  36.742  23.891  1.00  0.00     0.099 C 
HETATM    5  C8  UNL     1       0.868  36.933  23.310  1.00  0.00     0.075 C 
HETATM    6  C9  UNL     1       1.012  38.118  22.470  1.00  0.00     0.024 C 
HETATM    7  C10 UNL     1       2.313  38.056  21.695  1.00  0.00     0.013 C 
HETATM    8  C11 UNL     1       0.876  39.462  23.065  1.00  0.00     0.088 C 
HETATM    9  C12 UNL     1       1.819  39.769  24.142  1.00  0.00     0.156 C 
HETATM   10  O5  UNL     1       2.844  40.357  23.811  1.00  0.00    -0.295 OA
HETATM   11  C13 UNL     1       1.792  39.506  25.608  1.00  0.00     0.191 C 
HETATM   12  C14 UNL     1       3.230  39.308  26.033  1.00  0.00     0.042 C 
HETATM   13  C15 UNL     1       3.399  37.825  25.741  1.00  0.00     0.035 C 
HETATM   14  C16 UNL     1       1.981  37.269  25.582  1.00  0.00     0.132 C 
HETATM   15  O6  UNL     1       1.142  38.318  25.814  1.00  0.00    -0.372 OA
HETATM   16  C17 UNL     1       1.893  36.576  24.291  1.00  0.00     0.086 C 
ENDROOT
BRANCH   1  17
HETATM   17  C3  UNL     1       2.751  34.493  25.374  1.00  0.00     0.155 C 
HETATM   18  O1  UNL     1       2.583  34.095  26.502  1.00  0.00    -0.295 OA
BRANCH  17  19
HETATM   19  C2  UNL     1       4.102  34.351  24.790  1.00  0.00     0.076 C 
HETATM   20  C1  UNL     1       4.726  33.004  25.083  1.00  0.00     0.013 C 
ENDBRANCH  17  19
ENDBRANCH   1  17
BRANCH   3  21
HETATM   21  O3  UNL     1      -1.795  34.935  24.891  1.00  0.00    -0.366 OA
HETATM   22  C6  UNL     1      -1.775  33.830  25.715  1.00  0.00     0.204 C 
ENDBRANCH   3  21
BRANCH   5  23
HETATM   23  O4  UNL     1       0.909  35.889  22.327  1.00  0.00    -0.389 OA
ATOM     24  H4  UNL     1       0.872  36.391  21.522  1.00  0.00     0.210 HD
ENDBRANCH   5  23
TORSDOF 4
ENDMDL
