MODEL 1
REMARK VINA RESULT: -9.388291131      0.000      0.000
REMARK  14 active torsions:
REMARK  status: ('A' for Active; 'I' for Inactive)
REMARK    1  A    between atoms: C2_2  and  C4_4 
REMARK       I    between atoms: C4_4  and  N1_6 
REMARK       I    between atoms: N1_6  and  C5_8 
REMARK    2  A    between atoms: C5_8  and  C6_10 
REMARK       I    between atoms: C6_10  and  N2_12 
REMARK    3  A    between atoms: N2_12  and  C7_14 
REMARK    4  A    between atoms: C7_14  and  C8_15 
REMARK    5  A    between atoms: C7_14  and  C26_42 
REMARK       I    between atoms: C8_15  and  N3_17 
REMARK    6  A    between atoms: N3_17  and  C9_19 
REMARK    7  A    between atoms: C9_19  and  C10_20 
REMARK    8  A    between atoms: C9_19  and  C13_23 
REMARK    9  A    between atoms: C13_23  and  C14_24 
REMARK   10  A    between atoms: C13_23  and  N4_32 
REMARK   11  A    between atoms: C14_24  and  O6_26 
REMARK   12  A    between atoms: O6_26  and  C15_27 
REMARK   13  A    between atoms: C15_27  and  C16_28 
REMARK   14  A    between atoms: C22_35  and  C23_36 
ROOT
HETATM    1  C9  UNL     1      19.743  30.142  13.688  1.00  0.00     0.120 C 
ENDROOT
BRANCH   1   2
HETATM    2  N3  UNL     1      19.677  28.835  13.137  1.00  0.00    -0.352 N 
HETATM    3  C8  UNL     1      19.242  28.235  11.978  1.00  0.00     0.241 C 
HETATM    4  O4  UNL     1      18.695  28.842  11.055  1.00  0.00    -0.271 OA
ATOM      5  H3  UNL     1      20.060  28.145  13.784  1.00  0.00     0.163 HD
BRANCH   3   6
HETATM    6  C7  UNL     1      19.362  26.768  11.658  1.00  0.00     0.180 C 
BRANCH   6   7
HETATM    7  N2  UNL     1      20.398  26.503  10.718  1.00  0.00    -0.339 N 
HETATM    8  C6  UNL     1      21.438  25.582  10.924  1.00  0.00     0.310 C 
HETATM    9  O3  UNL     1      21.530  24.931  11.992  1.00  0.00    -0.262 OA
ATOM     10  H2  UNL     1      20.384  27.017   9.837  1.00  0.00     0.163 HD
BRANCH   8  11
HETATM   11  C5  UNL     1      22.431  25.357   9.889  1.00  0.00     0.316 C 
HETATM   12  N1  UNL     1      22.069  24.969   8.563  1.00  0.00    -0.289 N 
HETATM   13  C4  UNL     1      23.036  24.821   7.537  1.00  0.00     0.228 C 
ATOM     14  H1  UNL     1      21.088  24.793   8.348  1.00  0.00     0.172 HD
HETATM   15  O1  UNL     1      24.237  25.033   7.806  1.00  0.00    -0.273 OA
HETATM   16  O2  UNL     1      23.657  25.504  10.142  1.00  0.00    -0.262 OA
BRANCH  13  17
HETATM   17  C2  UNL     1      22.658  24.423   6.165  1.00  0.00     0.070 C 
HETATM   18  C1  UNL     1      23.855  24.743   5.270  1.00  0.00     0.019 C 
HETATM   19  C3  UNL     1      21.422  25.176   5.754  1.00  0.00     0.019 C 
ENDBRANCH  13  17
ENDBRANCH   8  11
ENDBRANCH   6   7
BRANCH   6  20
HETATM   20  C26 UNL     1      18.138  26.014  11.379  1.00  0.00     0.009 C 
HETATM   21  C27 UNL     1      17.905  24.805  12.290  1.00  0.00     0.012 C 
HETATM   22  C28 UNL     1      17.769  25.761   9.963  1.00  0.00     0.012 C 
ENDBRANCH   6  20
ENDBRANCH   3   6
ENDBRANCH   1   2
BRANCH   1  23
HETATM   23  C10 UNL     1      21.143  30.659  13.618  1.00  0.00     0.003 C 
HETATM   24  C11 UNL     1      21.407  31.358  12.275  1.00  0.00     0.011 C 
HETATM   25  C12 UNL     1      22.171  29.548  13.807  1.00  0.00     0.011 C 
ENDBRANCH   1  23
BRANCH   1  26
HETATM   26  C13 UNL     1      19.017  30.404  14.980  1.00  0.00     0.210 C 
BRANCH  26  27
HETATM   27  C14 UNL     1      19.924  30.822  16.091  1.00  0.00     0.284 C 
HETATM   28  O5  UNL     1      20.139  30.155  17.135  1.00  0.00    -0.263 OA
BRANCH  27  29
HETATM   29  O6  UNL     1      20.643  32.035  16.056  1.00  0.00    -0.319 OA
BRANCH  29  30
HETATM   30  C15 UNL     1      21.778  32.201  16.869  1.00  0.00     0.183 C 
BRANCH  30  31
HETATM   31  C16 UNL     1      22.573  33.402  16.396  1.00  0.00     0.010 C 
HETATM   32  C17 UNL     1      23.955  33.091  15.879  1.00  0.00     0.007 C 
HETATM   33  C18 UNL     1      23.474  33.249  14.448  1.00  0.00     0.001 C 
HETATM   34  C19 UNL     1      22.188  33.842  14.987  1.00  0.00     0.007 C 
ENDBRANCH  30  31
ENDBRANCH  29  30
ENDBRANCH  27  29
ENDBRANCH  26  27
BRANCH  26  35
HETATM   35  N4  UNL     1      18.144  31.555  14.891  1.00  0.00    -0.358 N 
HETATM   36  C20 UNL     1      17.377  31.694  16.054  1.00  0.00     0.065 C 
HETATM   37  C21 UNL     1      16.419  32.872  16.009  1.00  0.00     0.058 C 
HETATM   38  C22 UNL     1      17.218  34.147  15.818  1.00  0.00     0.103 C 
HETATM   39  C24 UNL     1      18.227  34.036  14.737  1.00  0.00     0.058 C 
HETATM   40  C25 UNL     1      18.517  32.673  14.197  1.00  0.00     0.065 C 
BRANCH  38  41
HETATM   41  C23 UNL     1      16.239  35.273  15.538  1.00  0.00     0.392 C 
HETATM   42  F1  UNL     1      14.972  34.749  15.734  1.00  0.00    -0.171 F 
HETATM   43  F2  UNL     1      16.463  36.384  16.294  1.00  0.00    -0.171 F 
HETATM   44  F3  UNL     1      16.378  35.604  14.205  1.00  0.00    -0.171 F 
ENDBRANCH  38  41
ENDBRANCH  26  35
ENDBRANCH   1  26
TORSDOF 14
ENDMDL
MODEL 2
REMARK VINA RESULT: -9.327718015      2.121      3.369
REMARK  14 active torsions:
REMARK  status: ('A' for Active; 'I' for Inactive)
REMARK    1  A    between atoms: C2_2  and  C4_4 
REMARK       I    between atoms: C4_4  and  N1_6 
REMARK       I    between atoms: N1_6  and  C5_8 
REMARK    2  A    between atoms: C5_8  and  C6_10 
REMARK       I    between atoms: C6_10  and  N2_12 
REMARK    3  A    between atoms: N2_12  and  C7_14 
REMARK    4  A    between atoms: C7_14  and  C8_15 
REMARK    5  A    between atoms: C7_14  and  C26_42 
REMARK       I    between atoms: C8_15  and  N3_17 
REMARK    6  A    between atoms: N3_17  and  C9_19 
REMARK    7  A    between atoms: C9_19  and  C10_20 
REMARK    8  A    between atoms: C9_19  and  C13_23 
REMARK    9  A    between atoms: C13_23  and  C14_24 
REMARK   10  A    between atoms: C13_23  and  N4_32 
REMARK   11  A    between atoms: C14_24  and  O6_26 
REMARK   12  A    between atoms: O6_26  and  C15_27 
REMARK   13  A    between atoms: C15_27  and  C16_28 
REMARK   14  A    between atoms: C22_35  and  C23_36 
ROOT
HETATM    1  C9  UNL     1      19.812  29.642  13.761  1.00  0.00     0.120 C 
ENDROOT
BRANCH   1   2
HETATM    2  N3  UNL     1      20.694  29.060  12.812  1.00  0.00    -0.352 N 
HETATM    3  C8  UNL     1      21.963  28.528  12.788  1.00  0.00     0.241 C 
HETATM    4  O4  UNL     1      22.710  28.493  13.767  1.00  0.00    -0.271 OA
ATOM      5  H3  UNL     1      20.266  29.028  11.887  1.00  0.00     0.163 HD
BRANCH   3   6
HETATM    6  C7  UNL     1      22.628  27.916  11.582  1.00  0.00     0.180 C 
BRANCH   6   7
HETATM    7  N2  UNL     1      21.691  27.303  10.703  1.00  0.00    -0.339 N 
HETATM    8  C6  UNL     1      20.705  26.388  11.108  1.00  0.00     0.310 C 
HETATM    9  O3  UNL     1      20.601  26.030  12.305  1.00  0.00    -0.262 OA
ATOM     10  H2  UNL     1      21.739  27.544   9.713  1.00  0.00     0.163 HD
BRANCH   8  11
HETATM   11  C5  UNL     1      19.772  25.842  10.139  1.00  0.00     0.316 C 
HETATM   12  N1  UNL     1      19.849  26.160   8.749  1.00  0.00    -0.289 N 
HETATM   13  C4  UNL     1      18.983  25.569   7.796  1.00  0.00     0.228 C 
ATOM     14  H1  UNL     1      20.548  26.833   8.433  1.00  0.00     0.172 HD
HETATM   15  O1  UNL     1      18.126  24.749   8.189  1.00  0.00    -0.273 OA
HETATM   16  O2  UNL     1      18.858  25.057  10.509  1.00  0.00    -0.262 OA
BRANCH  13  17
HETATM   17  C2  UNL     1      19.068  25.898   6.359  1.00  0.00     0.070 C 
HETATM   18  C1  UNL     1      20.521  25.673   5.943  1.00  0.00     0.019 C 
HETATM   19  C3  UNL     1      18.629  27.322   6.150  1.00  0.00     0.019 C 
ENDBRANCH  13  17
ENDBRANCH   8  11
ENDBRANCH   6   7
BRANCH   6  20
HETATM   20  C26 UNL     1      23.828  27.102  11.788  1.00  0.00     0.009 C 
HETATM   21  C27 UNL     1      25.140  27.891  11.826  1.00  0.00     0.012 C 
HETATM   22  C28 UNL     1      23.941  25.811  11.065  1.00  0.00     0.012 C 
ENDBRANCH   6  20
ENDBRANCH   3   6
ENDBRANCH   1   2
BRANCH   1  23
HETATM   23  C10 UNL     1      18.394  29.396  13.362  1.00  0.00     0.003 C 
HETATM   24  C11 UNL     1      17.844  28.128  14.033  1.00  0.00     0.011 C 
HETATM   25  C12 UNL     1      18.241  29.262  11.851  1.00  0.00     0.011 C 
ENDBRANCH   1  23
BRANCH   1  26
HETATM   26  C13 UNL     1      20.118  31.031  14.253  1.00  0.00     0.210 C 
BRANCH  26  27
HETATM   27  C14 UNL     1      20.728  31.905  13.206  1.00  0.00     0.284 C 
HETATM   28  O5  UNL     1      20.238  32.112  12.067  1.00  0.00    -0.263 OA
BRANCH  27  29
HETATM   29  O6  UNL     1      21.938  32.597  13.417  1.00  0.00    -0.319 OA
BRANCH  29  30
HETATM   30  C15 UNL     1      22.852  32.135  14.381  1.00  0.00     0.183 C 
BRANCH  30  31
HETATM   31  C16 UNL     1      23.041  33.190  15.452  1.00  0.00     0.010 C 
HETATM   32  C17 UNL     1      21.918  34.190  15.570  1.00  0.00     0.007 C 
HETATM   33  C18 UNL     1      21.396  33.485  16.808  1.00  0.00     0.001 C 
HETATM   34  C19 UNL     1      22.680  32.682  16.846  1.00  0.00     0.007 C 
ENDBRANCH  30  31
ENDBRANCH  29  30
ENDBRANCH  27  29
ENDBRANCH  26  27
BRANCH  26  35
HETATM   35  N4  UNL     1      18.917  31.776  14.567  1.00  0.00    -0.358 N 
HETATM   36  C20 UNL     1      18.437  31.442  15.839  1.00  0.00     0.065 C 
HETATM   37  C21 UNL     1      17.161  32.172  16.214  1.00  0.00     0.058 C 
HETATM   38  C22 UNL     1      17.424  33.665  16.190  1.00  0.00     0.103 C 
HETATM   39  C24 UNL     1      18.135  34.103  14.964  1.00  0.00     0.058 C 
HETATM   40  C25 UNL     1      18.728  33.044  14.092  1.00  0.00     0.065 C 
BRANCH  38  41
HETATM   41  C23 UNL     1      16.091  34.377  16.331  1.00  0.00     0.392 C 
HETATM   42  F1  UNL     1      15.121  33.478  15.920  1.00  0.00    -0.171 F 
HETATM   43  F2  UNL     1      15.860  34.849  17.589  1.00  0.00    -0.171 F 
HETATM   44  F3  UNL     1      16.108  35.441  15.451  1.00  0.00    -0.171 F 
ENDBRANCH  38  41
ENDBRANCH  26  35
ENDBRANCH   1  26
TORSDOF 14
ENDMDL
MODEL 3
REMARK VINA RESULT: -9.326888815      1.185      1.648
REMARK  14 active torsions:
REMARK  status: ('A' for Active; 'I' for Inactive)
REMARK    1  A    between atoms: C2_2  and  C4_4 
REMARK       I    between atoms: C4_4  and  N1_6 
REMARK       I    between atoms: N1_6  and  C5_8 
REMARK    2  A    between atoms: C5_8  and  C6_10 
REMARK       I    between atoms: C6_10  and  N2_12 
REMARK    3  A    between atoms: N2_12  and  C7_14 
REMARK    4  A    between atoms: C7_14  and  C8_15 
REMARK    5  A    between atoms: C7_14  and  C26_42 
REMARK       I    between atoms: C8_15  and  N3_17 
REMARK    6  A    between atoms: N3_17  and  C9_19 
REMARK    7  A    between atoms: C9_19  and  C10_20 
REMARK    8  A    between atoms: C9_19  and  C13_23 
REMARK    9  A    between atoms: C13_23  and  C14_24 
REMARK   10  A    between atoms: C13_23  and  N4_32 
REMARK   11  A    between atoms: C14_24  and  O6_26 
REMARK   12  A    between atoms: O6_26  and  C15_27 
REMARK   13  A    between atoms: C15_27  and  C16_28 
REMARK   14  A    between atoms: C22_35  and  C23_36 
ROOT
HETATM    1  C9  UNL     1      20.009  30.492  13.857  1.00  0.00     0.120 C 
ENDROOT
BRANCH   1   2
HETATM    2  N3  UNL     1      19.688  29.468  12.926  1.00  0.00    -0.352 N 
HETATM    3  C8  UNL     1      18.845  28.384  12.849  1.00  0.00     0.241 C 
HETATM    4  O4  UNL     1      18.109  28.021  13.769  1.00  0.00    -0.271 OA
ATOM      5  H3  UNL     1      20.238  29.566  12.072  1.00  0.00     0.163 HD
BRANCH   3   6
HETATM    6  C7  UNL     1      18.692  27.483  11.652  1.00  0.00     0.180 C 
BRANCH   6   7
HETATM    7  N2  UNL     1      19.947  27.089  11.108  1.00  0.00    -0.339 N 
HETATM    8  C6  UNL     1      20.428  25.769  11.101  1.00  0.00     0.310 C 
HETATM    9  O3  UNL     1      19.767  24.832  11.608  1.00  0.00    -0.262 OA
ATOM     10  H2  UNL     1      20.537  27.813  10.697  1.00  0.00     0.163 HD
BRANCH   8  11
HETATM   11  C5  UNL     1      21.710  25.461  10.492  1.00  0.00     0.316 C 
HETATM   12  N1  UNL     1      21.874  25.375   9.075  1.00  0.00    -0.289 N 
HETATM   13  C4  UNL     1      23.141  25.146   8.481  1.00  0.00     0.228 C 
ATOM     14  H1  UNL     1      21.057  25.481   8.474  1.00  0.00     0.172 HD
HETATM   15  O1  UNL     1      24.137  25.012   9.222  1.00  0.00    -0.273 OA
HETATM   16  O2  UNL     1      22.724  25.261  11.211  1.00  0.00    -0.262 OA
BRANCH  13  17
HETATM   17  C2  UNL     1      23.308  25.060   7.016  1.00  0.00     0.070 C 
HETATM   18  C1  UNL     1      21.903  24.981   6.419  1.00  0.00     0.019 C 
HETATM   19  C3  UNL     1      24.139  23.851   6.682  1.00  0.00     0.019 C 
ENDBRANCH  13  17
ENDBRANCH   8  11
ENDBRANCH   6   7
BRANCH   6  20
HETATM   20  C26 UNL     1      17.720  27.855  10.621  1.00  0.00     0.009 C 
HETATM   21  C27 UNL     1      18.233  27.739   9.183  1.00  0.00     0.012 C 
HETATM   22  C28 UNL     1      16.872  29.053  10.847  1.00  0.00     0.012 C 
ENDBRANCH   6  20
ENDBRANCH   3   6
ENDBRANCH   1   2
BRANCH   1  23
HETATM   23  C10 UNL     1      21.484  30.533  14.087  1.00  0.00     0.003 C 
HETATM   24  C11 UNL     1      22.130  31.697  13.319  1.00  0.00     0.011 C 
HETATM   25  C12 UNL     1      22.163  29.231  13.674  1.00  0.00     0.011 C 
ENDBRANCH   1  23
BRANCH   1  26
HETATM   26  C13 UNL     1      19.154  30.620  15.089  1.00  0.00     0.210 C 
BRANCH  26  27
HETATM   27  C14 UNL     1      19.931  31.004  16.307  1.00  0.00     0.284 C 
HETATM   28  O5  UNL     1      20.107  30.267  17.309  1.00  0.00    -0.263 OA
BRANCH  27  29
HETATM   29  O6  UNL     1      20.555  32.262  16.433  1.00  0.00    -0.319 OA
BRANCH  29  30
HETATM   30  C15 UNL     1      21.770  32.376  17.132  1.00  0.00     0.183 C 
BRANCH  30  31
HETATM   31  C16 UNL     1      22.387  33.734  16.866  1.00  0.00     0.010 C 
HETATM   32  C17 UNL     1      21.663  34.576  15.845  1.00  0.00     0.007 C 
HETATM   33  C18 UNL     1      21.057  35.424  16.948  1.00  0.00     0.001 C 
HETATM   34  C19 UNL     1      22.011  34.767  17.924  1.00  0.00     0.007 C 
ENDBRANCH  30  31
ENDBRANCH  29  30
ENDBRANCH  27  29
ENDBRANCH  26  27
BRANCH  26  35
HETATM   35  N4  UNL     1      18.226  31.728  14.996  1.00  0.00    -0.358 N 
HETATM   36  C20 UNL     1      17.492  31.869  16.180  1.00  0.00     0.065 C 
HETATM   37  C21 UNL     1      16.481  33.000  16.132  1.00  0.00     0.058 C 
HETATM   38  C22 UNL     1      17.213  34.303  15.876  1.00  0.00     0.103 C 
HETATM   39  C24 UNL     1      18.191  34.204  14.765  1.00  0.00     0.058 C 
HETATM   40  C25 UNL     1      18.525  32.839  14.257  1.00  0.00     0.065 C 
BRANCH  38  41
HETATM   41  C23 UNL     1      16.175  35.375  15.596  1.00  0.00     0.392 C 
HETATM   42  F1  UNL     1      14.938  34.783  15.791  1.00  0.00    -0.171 F 
HETATM   43  F2  UNL     1      16.338  36.496  16.353  1.00  0.00    -0.171 F 
HETATM   44  F3  UNL     1      16.297  35.714  14.263  1.00  0.00    -0.171 F 
ENDBRANCH  38  41
ENDBRANCH  26  35
ENDBRANCH   1  26
TORSDOF 14
ENDMDL
MODEL 4
REMARK VINA RESULT: -9.218431032      1.820      2.485
REMARK  14 active torsions:
REMARK  status: ('A' for Active; 'I' for Inactive)
REMARK    1  A    between atoms: C2_2  and  C4_4 
REMARK       I    between atoms: C4_4  and  N1_6 
REMARK       I    between atoms: N1_6  and  C5_8 
REMARK    2  A    between atoms: C5_8  and  C6_10 
REMARK       I    between atoms: C6_10  and  N2_12 
REMARK    3  A    between atoms: N2_12  and  C7_14 
REMARK    4  A    between atoms: C7_14  and  C8_15 
REMARK    5  A    between atoms: C7_14  and  C26_42 
REMARK       I    between atoms: C8_15  and  N3_17 
REMARK    6  A    between atoms: N3_17  and  C9_19 
REMARK    7  A    between atoms: C9_19  and  C10_20 
REMARK    8  A    between atoms: C9_19  and  C13_23 
REMARK    9  A    between atoms: C13_23  and  C14_24 
REMARK   10  A    between atoms: C13_23  and  N4_32 
REMARK   11  A    between atoms: C14_24  and  O6_26 
REMARK   12  A    between atoms: O6_26  and  C15_27 
REMARK   13  A    between atoms: C15_27  and  C16_28 
REMARK   14  A    between atoms: C22_35  and  C23_36 
ROOT
HETATM    1  C9  UNL     1      19.869  30.609  13.932  1.00  0.00     0.120 C 
ENDROOT
BRANCH   1   2
HETATM    2  N3  UNL     1      19.495  29.601  13.004  1.00  0.00    -0.352 N 
HETATM    3  C8  UNL     1      18.566  28.591  12.912  1.00  0.00     0.241 C 
HETATM    4  O4  UNL     1      17.771  28.307  13.810  1.00  0.00    -0.271 OA
ATOM      5  H3  UNL     1      20.080  29.638  12.169  1.00  0.00     0.163 HD
BRANCH   3   6
HETATM    6  C7  UNL     1      18.378  27.686  11.722  1.00  0.00     0.180 C 
BRANCH   6   7
HETATM    7  N2  UNL     1      19.618  27.279  11.153  1.00  0.00    -0.339 N 
HETATM    8  C6  UNL     1      19.998  25.941  10.955  1.00  0.00     0.310 C 
HETATM    9  O3  UNL     1      19.251  24.994  11.299  1.00  0.00    -0.262 OA
ATOM     10  H2  UNL     1      20.274  28.007  10.869  1.00  0.00     0.163 HD
BRANCH   8  11
HETATM   11  C5  UNL     1      21.272  25.626  10.334  1.00  0.00     0.316 C 
HETATM   12  N1  UNL     1      22.451  26.390  10.595  1.00  0.00    -0.289 N 
HETATM   13  C4  UNL     1      23.708  26.036  10.044  1.00  0.00     0.228 C 
ATOM     14  H1  UNL     1      22.386  27.213  11.194  1.00  0.00     0.172 HD
HETATM   15  O1  UNL     1      23.781  25.030   9.308  1.00  0.00    -0.273 OA
HETATM   16  O2  UNL     1      21.369  24.653   9.540  1.00  0.00    -0.262 OA
BRANCH  13  17
HETATM   17  C2  UNL     1      24.926  26.825  10.318  1.00  0.00     0.070 C 
HETATM   18  C1  UNL     1      25.412  26.414  11.708  1.00  0.00     0.019 C 
HETATM   19  C3  UNL     1      24.594  28.291  10.241  1.00  0.00     0.019 C 
ENDBRANCH  13  17
ENDBRANCH   8  11
ENDBRANCH   6   7
BRANCH   6  20
HETATM   20  C26 UNL     1      17.388  28.062  10.711  1.00  0.00     0.009 C 
HETATM   21  C27 UNL     1      17.863  27.924   9.262  1.00  0.00     0.012 C 
HETATM   22  C28 UNL     1      16.563  29.275  10.945  1.00  0.00     0.012 C 
ENDBRANCH   6  20
ENDBRANCH   3   6
ENDBRANCH   1   2
BRANCH   1  23
HETATM   23  C10 UNL     1      21.351  30.613  14.117  1.00  0.00     0.003 C 
HETATM   24  C11 UNL     1      22.007  31.734  13.296  1.00  0.00     0.011 C 
HETATM   25  C12 UNL     1      21.979  29.280  13.723  1.00  0.00     0.011 C 
ENDBRANCH   1  23
BRANCH   1  26
HETATM   26  C13 UNL     1      19.056  30.750  15.190  1.00  0.00     0.210 C 
BRANCH  26  27
HETATM   27  C14 UNL     1      19.874  31.135  16.380  1.00  0.00     0.284 C 
HETATM   28  O5  UNL     1      20.103  30.391  17.367  1.00  0.00    -0.263 OA
BRANCH  27  29
HETATM   29  O6  UNL     1      20.481  32.402  16.494  1.00  0.00    -0.319 OA
BRANCH  29  30
HETATM   30  C15 UNL     1      21.732  32.527  17.125  1.00  0.00     0.183 C 
BRANCH  30  31
HETATM   31  C16 UNL     1      22.353  33.862  16.766  1.00  0.00     0.010 C 
HETATM   32  C17 UNL     1      21.593  34.666  15.741  1.00  0.00     0.007 C 
HETATM   33  C18 UNL     1      21.051  35.574  16.829  1.00  0.00     0.001 C 
HETATM   34  C19 UNL     1      22.040  34.949  17.791  1.00  0.00     0.007 C 
ENDBRANCH  30  31
ENDBRANCH  29  30
ENDBRANCH  27  29
ENDBRANCH  26  27
BRANCH  26  35
HETATM   35  N4  UNL     1      18.132  31.862  15.121  1.00  0.00    -0.358 N 
HETATM   36  C20 UNL     1      17.438  32.014  16.328  1.00  0.00     0.065 C 
HETATM   37  C21 UNL     1      16.432  33.151  16.307  1.00  0.00     0.058 C 
HETATM   38  C22 UNL     1      17.163  34.448  16.020  1.00  0.00     0.103 C 
HETATM   39  C24 UNL     1      18.102  34.337  14.877  1.00  0.00     0.058 C 
HETATM   40  C25 UNL     1      18.412  32.967  14.367  1.00  0.00     0.065 C 
BRANCH  38  41
HETATM   41  C23 UNL     1      16.122  35.524  15.768  1.00  0.00     0.392 C 
HETATM   42  F1  UNL     1      16.115  35.750  14.401  1.00  0.00    -0.171 F 
HETATM   43  F2  UNL     1      14.887  35.206  16.247  1.00  0.00    -0.171 F 
HETATM   44  F3  UNL     1      16.566  36.669  16.401  1.00  0.00    -0.171 F 
ENDBRANCH  38  41
ENDBRANCH  26  35
ENDBRANCH   1  26
TORSDOF 14
ENDMDL
MODEL 5
REMARK VINA RESULT: -9.207467241      4.875     10.827
REMARK  14 active torsions:
REMARK  status: ('A' for Active; 'I' for Inactive)
REMARK    1  A    between atoms: C2_2  and  C4_4 
REMARK       I    between atoms: C4_4  and  N1_6 
REMARK       I    between atoms: N1_6  and  C5_8 
REMARK    2  A    between atoms: C5_8  and  C6_10 
REMARK       I    between atoms: C6_10  and  N2_12 
REMARK    3  A    between atoms: N2_12  and  C7_14 
REMARK    4  A    between atoms: C7_14  and  C8_15 
REMARK    5  A    between atoms: C7_14  and  C26_42 
REMARK       I    between atoms: C8_15  and  N3_17 
REMARK    6  A    between atoms: N3_17  and  C9_19 
REMARK    7  A    between atoms: C9_19  and  C10_20 
REMARK    8  A    between atoms: C9_19  and  C13_23 
REMARK    9  A    between atoms: C13_23  and  C14_24 
REMARK   10  A    between atoms: C13_23  and  N4_32 
REMARK   11  A    between atoms: C14_24  and  O6_26 
REMARK   12  A    between atoms: O6_26  and  C15_27 
REMARK   13  A    between atoms: C15_27  and  C16_28 
REMARK   14  A    between atoms: C22_35  and  C23_36 
ROOT
HETATM    1  C9  UNL     1      20.879  31.933  15.507  1.00  0.00     0.120 C 
ENDROOT
BRANCH   1   2
HETATM    2  N3  UNL     1      20.082  33.091  15.714  1.00  0.00    -0.352 N 
HETATM    3  C8  UNL     1      18.966  33.448  16.433  1.00  0.00     0.241 C 
HETATM    4  O4  UNL     1      18.316  32.662  17.126  1.00  0.00    -0.271 OA
ATOM      5  H3  UNL     1      20.440  33.881  15.177  1.00  0.00     0.163 HD
BRANCH   3   6
HETATM    6  C7  UNL     1      18.369  34.830  16.487  1.00  0.00     0.180 C 
BRANCH   6   7
HETATM    7  N2  UNL     1      19.076  35.688  17.376  1.00  0.00    -0.339 N 
HETATM    8  C6  UNL     1      20.337  36.245  17.105  1.00  0.00     0.310 C 
HETATM    9  O3  UNL     1      20.944  35.993  16.037  1.00  0.00    -0.262 OA
ATOM     10  H2  UNL     1      18.638  35.915  18.269  1.00  0.00     0.163 HD
BRANCH   8  11
HETATM   11  C5  UNL     1      20.964  37.138  18.062  1.00  0.00     0.316 C 
HETATM   12  N1  UNL     1      22.297  37.621  17.888  1.00  0.00    -0.289 N 
HETATM   13  C4  UNL     1      22.880  38.550  18.786  1.00  0.00     0.228 C 
ATOM     14  H1  UNL     1      22.845  37.288  17.095  1.00  0.00     0.172 HD
HETATM   15  O1  UNL     1      22.206  38.951  19.758  1.00  0.00    -0.273 OA
HETATM   16  O2  UNL     1      20.334  37.517  19.085  1.00  0.00    -0.262 OA
BRANCH  13  17
HETATM   17  C2  UNL     1      24.258  39.049  18.602  1.00  0.00     0.070 C 
HETATM   18  C1  UNL     1      24.912  39.051  19.983  1.00  0.00     0.019 C 
HETATM   19  C3  UNL     1      24.209  40.425  17.993  1.00  0.00     0.019 C 
ENDBRANCH  13  17
ENDBRANCH   8  11
ENDBRANCH   6   7
BRANCH   6  20
HETATM   20  C26 UNL     1      16.916  34.956  16.614  1.00  0.00     0.009 C 
HETATM   21  C27 UNL     1      16.214  35.560  15.394  1.00  0.00     0.012 C 
HETATM   22  C28 UNL     1      16.355  35.428  17.906  1.00  0.00     0.012 C 
ENDBRANCH   6  20
ENDBRANCH   3   6
ENDBRANCH   1   2
BRANCH   1  23
HETATM   23  C10 UNL     1      22.327  32.296  15.518  1.00  0.00     0.003 C 
HETATM   24  C11 UNL     1      22.819  32.560  16.950  1.00  0.00     0.011 C 
HETATM   25  C12 UNL     1      22.614  33.526  14.663  1.00  0.00     0.011 C 
ENDBRANCH   1  23
BRANCH   1  26
HETATM   26  C13 UNL     1      20.458  30.968  14.431  1.00  0.00     0.210 C 
BRANCH  26  27
HETATM   27  C14 UNL     1      19.731  31.625  13.303  1.00  0.00     0.284 C 
HETATM   28  O5  UNL     1      19.913  32.809  12.922  1.00  0.00    -0.263 OA
BRANCH  27  29
HETATM   29  O6  UNL     1      18.755  30.948  12.544  1.00  0.00    -0.319 OA
BRANCH  29  30
HETATM   30  C15 UNL     1      17.948  29.969  13.151  1.00  0.00     0.183 C 
BRANCH  30  31
HETATM   31  C16 UNL     1      17.696  28.838  12.175  1.00  0.00     0.010 C 
HETATM   32  C17 UNL     1      18.817  28.574  11.199  1.00  0.00     0.007 C 
HETATM   33  C18 UNL     1      19.249  27.359  11.999  1.00  0.00     0.001 C 
HETATM   34  C19 UNL     1      17.959  27.465  12.786  1.00  0.00     0.007 C 
ENDBRANCH  30  31
ENDBRANCH  29  30
ENDBRANCH  27  29
ENDBRANCH  26  27
BRANCH  26  35
HETATM   35  N4  UNL     1      21.593  30.401  13.733  1.00  0.00    -0.358 N 
HETATM   36  C20 UNL     1      21.767  29.053  14.068  1.00  0.00     0.065 C 
HETATM   37  C21 UNL     1      22.961  28.410  13.386  1.00  0.00     0.058 C 
HETATM   38  C22 UNL     1      22.775  28.499  11.884  1.00  0.00     0.103 C 
HETATM   39  C24 UNL     1      22.370  29.853  11.435  1.00  0.00     0.058 C 
HETATM   40  C25 UNL     1      21.937  30.829  12.481  1.00  0.00     0.065 C 
BRANCH  38  41
HETATM   41  C23 UNL     1      24.074  28.071  11.227  1.00  0.00     0.392 C 
HETATM   42  F1  UNL     1      25.074  28.276  12.164  1.00  0.00    -0.171 F 
HETATM   43  F2  UNL     1      24.051  26.789  10.766  1.00  0.00    -0.171 F 
HETATM   44  F3  UNL     1      24.287  28.925  10.162  1.00  0.00    -0.171 F 
ENDBRANCH  38  41
ENDBRANCH  26  35
ENDBRANCH   1  26
TORSDOF 14
ENDMDL
