MODEL 1
REMARK VINA RESULT: -7.901734083      0.000      0.000
REMARK  19 active torsions:
REMARK  status: ('A' for Active; 'I' for Inactive)
REMARK    1  A    between atoms: C2_2  and  O1_3 
REMARK    2  A    between atoms: O1_3  and  C3_4 
REMARK    3  A    between atoms: C3_4  and  C4_6 
REMARK    4  A    between atoms: C4_6  and  N1_7 
REMARK    5  A    between atoms: C4_6  and  C24_42 
REMARK       I    between atoms: N1_7  and  C5_9 
REMARK    6  A    between atoms: C5_9  and  C6_11 
REMARK    7  A    between atoms: C6_11  and  N2_12 
REMARK    8  A    between atoms: N2_12  and  C7_14 
REMARK    9  A    between atoms: C7_14  and  O4_15 
REMARK   10  A    between atoms: C7_14  and  C8_17 
REMARK   11  A    between atoms: C8_17  and  C9_18 
REMARK   12  A    between atoms: C8_17  and  C17_32 
REMARK   13  A    between atoms: C9_18  and  C10_19 
REMARK   14  A    between atoms: C9_18  and  N3_23 
REMARK   15  A    between atoms: C10_19  and  C11_20 
REMARK   16  A    between atoms: N3_23  and  C15_25 
REMARK   17  A    between atoms: C15_25  and  O5_26 
REMARK   18  A    between atoms: C15_25  and  C16_28 
REMARK   19  A    between atoms: C22_37  and  C23_38 
ROOT
HETATM    1  N2  UNL     1      20.051  32.224  14.463  1.00  0.00    -0.355 N 
ATOM      2  H2  UNL     1      20.006  32.039  13.461  1.00  0.00     0.162 HD
ENDROOT
BRANCH   1   3
HETATM    3  C6  UNL     1      20.852  31.295  15.208  1.00  0.00     0.125 A 
HETATM    4  C21 UNL     1      21.438  31.457  16.519  1.00  0.00     0.058 A 
HETATM    5  C22 UNL     1      22.331  31.483  15.256  1.00  0.00     0.134 A 
BRANCH   3   6
HETATM    6  C5  UNL     1      20.576  29.823  14.807  1.00  0.00     0.247 C 
HETATM    7  N1  UNL     1      20.504  29.481  13.454  1.00  0.00    -0.344 N 
ATOM      8  H1  UNL     1      20.639  30.233  12.778  1.00  0.00     0.163 HD
HETATM    9  O3  UNL     1      20.408  28.971  15.711  1.00  0.00    -0.271 OA
BRANCH   7  10
HETATM   10  C4  UNL     1      20.259  28.179  12.934  1.00  0.00     0.191 C 
BRANCH  10  11
HETATM   11  C3  UNL     1      21.274  27.700  11.967  1.00  0.00     0.282 C 
HETATM   12  O2  UNL     1      21.524  28.386  10.912  1.00  0.00    -0.263 OA
BRANCH  11  13
HETATM   13  O1  UNL     1      21.986  26.539  12.112  1.00  0.00    -0.320 OA
BRANCH  13  14
HETATM   14  C2  UNL     1      23.023  26.131  11.234  1.00  0.00     0.174 C 
HETATM   15  C1  UNL     1      24.329  26.573  11.902  1.00  0.00     0.034 C 
ENDBRANCH  13  14
ENDBRANCH  11  13
ENDBRANCH  10  11
BRANCH  10  16
HETATM   16  C24 UNL     1      18.876  27.937  12.364  1.00  0.00    -0.022 C 
HETATM   17  C25 UNL     1      18.286  29.077  11.597  1.00  0.00     0.017 C 
HETATM   18  C26 UNL     1      17.902  27.746  13.562  1.00  0.00     0.017 C 
HETATM   19  C27 UNL     1      18.743  26.692  11.560  1.00  0.00     0.017 C 
ENDBRANCH  10  16
ENDBRANCH   7  10
ENDBRANCH   3   6
BRANCH   5  20
HETATM   20  C23 UNL     1      23.183  32.671  15.171  1.00  0.00     0.394 C 
HETATM   21  F4  UNL     1      22.884  33.718  16.017  1.00  0.00    -0.171 F 
HETATM   22  F5  UNL     1      22.874  33.293  13.880  1.00  0.00    -0.171 F 
HETATM   23  F6  UNL     1      24.536  32.503  15.092  1.00  0.00    -0.171 F 
ENDBRANCH   5  20
ENDBRANCH   1   3
BRANCH   1  24
HETATM   24  C7  UNL     1      19.323  33.342  14.883  1.00  0.00     0.122 C 
BRANCH  24  25
HETATM   25  O4  UNL     1      20.095  34.407  14.862  1.00  0.00    -0.349 OA
ATOM     26  H4  UNL     1      19.568  35.179  14.692  1.00  0.00     0.219 HD
ENDBRANCH  24  25
BRANCH  24  27
HETATM   27  C8  UNL     1      17.937  33.557  15.310  1.00  0.00     0.113 C 
BRANCH  27  28
HETATM   28  C9  UNL     1      17.808  34.678  16.277  1.00  0.00     0.004 C 
BRANCH  28  29
HETATM   29  C10 UNL     1      18.171  34.424  17.679  1.00  0.00     0.057 C 
BRANCH  29  30
HETATM   30  C11 UNL     1      19.238  35.398  18.207  1.00  0.00    -0.017 C 
HETATM   31  C12 UNL     1      19.027  35.506  19.740  1.00  0.00     0.010 C 
HETATM   32  C13 UNL     1      20.619  34.753  18.089  1.00  0.00     0.010 C 
ENDBRANCH  29  30
ENDBRANCH  28  29
BRANCH  28  33
HETATM   33  N3  UNL     1      16.632  35.508  16.157  1.00  0.00    -0.335 N 
HETATM   34  C14 UNL     1      16.092  35.726  14.742  1.00  0.00     0.158 C 
BRANCH  33  35
HETATM   35  C15 UNL     1      15.878  36.203  17.072  1.00  0.00     0.227 C 
BRANCH  35  36
HETATM   36  O5  UNL     1      16.159  37.493  17.119  1.00  0.00    -0.343 OA
ATOM     37  H5  UNL     1      16.085  37.930  16.279  1.00  0.00     0.219 HD
ENDBRANCH  35  36
BRANCH  35  38
HETATM   38  C16 UNL     1      14.854  35.834  17.993  1.00  0.00     0.456 C 
HETATM   39  F1  UNL     1      15.347  35.921  19.351  1.00  0.00    -0.163 F 
HETATM   40  F2  UNL     1      13.747  36.678  18.074  1.00  0.00    -0.163 F 
HETATM   41  F3  UNL     1      14.402  34.533  17.946  1.00  0.00    -0.163 F 
ENDBRANCH  35  38
ENDBRANCH  33  35
ENDBRANCH  28  33
ENDBRANCH  27  28
BRANCH  27  42
HETATM   42  C17 UNL     1      17.242  32.284  15.597  1.00  0.00    -0.035 C 
HETATM   43  C18 UNL     1      17.242  31.492  14.267  1.00  0.00     0.015 C 
HETATM   44  C19 UNL     1      17.869  31.418  16.647  1.00  0.00     0.015 C 
HETATM   45  C20 UNL     1      15.726  32.388  15.850  1.00  0.00     0.015 C 
ENDBRANCH  27  42
ENDBRANCH  24  27
ENDBRANCH   1  24
TORSDOF 19
ENDMDL
MODEL 2
REMARK VINA RESULT: -7.877134377      2.428      8.547
REMARK  19 active torsions:
REMARK  status: ('A' for Active; 'I' for Inactive)
REMARK    1  A    between atoms: C2_2  and  O1_3 
REMARK    2  A    between atoms: O1_3  and  C3_4 
REMARK    3  A    between atoms: C3_4  and  C4_6 
REMARK    4  A    between atoms: C4_6  and  N1_7 
REMARK    5  A    between atoms: C4_6  and  C24_42 
REMARK       I    between atoms: N1_7  and  C5_9 
REMARK    6  A    between atoms: C5_9  and  C6_11 
REMARK    7  A    between atoms: C6_11  and  N2_12 
REMARK    8  A    between atoms: N2_12  and  C7_14 
REMARK    9  A    between atoms: C7_14  and  O4_15 
REMARK   10  A    between atoms: C7_14  and  C8_17 
REMARK   11  A    between atoms: C8_17  and  C9_18 
REMARK   12  A    between atoms: C8_17  and  C17_32 
REMARK   13  A    between atoms: C9_18  and  C10_19 
REMARK   14  A    between atoms: C9_18  and  N3_23 
REMARK   15  A    between atoms: C10_19  and  C11_20 
REMARK   16  A    between atoms: N3_23  and  C15_25 
REMARK   17  A    between atoms: C15_25  and  O5_26 
REMARK   18  A    between atoms: C15_25  and  C16_28 
REMARK   19  A    between atoms: C22_37  and  C23_38 
ROOT
HETATM    1  N2  UNL     1      18.556  33.322  14.567  1.00  0.00    -0.355 N 
ATOM      2  H2  UNL     1      18.119  34.002  13.945  1.00  0.00     0.162 HD
ENDROOT
BRANCH   1   3
HETATM    3  C6  UNL     1      18.439  33.627  15.964  1.00  0.00     0.125 A 
HETATM    4  C21 UNL     1      18.103  32.743  17.056  1.00  0.00     0.058 A 
HETATM    5  C22 UNL     1      17.083  33.796  16.562  1.00  0.00     0.134 A 
BRANCH   3   6
HETATM    6  C5  UNL     1      19.292  34.856  16.374  1.00  0.00     0.247 C 
HETATM    7  N1  UNL     1      18.722  35.854  17.168  1.00  0.00    -0.344 N 
ATOM      8  H1  UNL     1      17.750  35.725  17.447  1.00  0.00     0.163 HD
HETATM    9  O3  UNL     1      20.476  34.933  15.968  1.00  0.00    -0.271 OA
BRANCH   7  10
HETATM   10  C4  UNL     1      19.376  37.035  17.622  1.00  0.00     0.191 C 
BRANCH  10  11
HETATM   11  C3  UNL     1      20.204  36.853  18.836  1.00  0.00     0.282 C 
HETATM   12  O2  UNL     1      19.840  36.016  19.738  1.00  0.00    -0.263 OA
BRANCH  11  13
HETATM   13  O1  UNL     1      21.365  37.536  19.083  1.00  0.00    -0.320 OA
BRANCH  13  14
HETATM   14  C2  UNL     1      22.550  37.388  18.317  1.00  0.00     0.174 C 
HETATM   15  C1  UNL     1      23.526  38.439  18.856  1.00  0.00     0.034 C 
ENDBRANCH  13  14
ENDBRANCH  11  13
ENDBRANCH  10  11
BRANCH  10  16
HETATM   16  C24 UNL     1      18.499  38.258  17.797  1.00  0.00    -0.022 C 
HETATM   17  C25 UNL     1      18.152  38.607  19.209  1.00  0.00     0.017 C 
HETATM   18  C26 UNL     1      17.123  37.946  17.139  1.00  0.00     0.017 C 
HETATM   19  C27 UNL     1      18.988  39.479  17.102  1.00  0.00     0.017 C 
ENDBRANCH  10  16
ENDBRANCH   7  10
ENDBRANCH   3   6
BRANCH   5  20
HETATM   20  C23 UNL     1      15.775  33.227  16.230  1.00  0.00     0.394 C 
HETATM   21  F4  UNL     1      15.738  32.290  15.219  1.00  0.00    -0.171 F 
HETATM   22  F5  UNL     1      15.017  34.311  15.599  1.00  0.00    -0.171 F 
HETATM   23  F6  UNL     1      14.946  32.853  17.249  1.00  0.00    -0.171 F 
ENDBRANCH   5  20
ENDBRANCH   1   3
BRANCH   1  24
HETATM   24  C7  UNL     1      19.169  32.245  13.917  1.00  0.00     0.122 C 
BRANCH  24  25
HETATM   25  O4  UNL     1      19.770  32.671  12.828  1.00  0.00    -0.349 OA
ATOM     26  H4  UNL     1      20.708  32.711  12.977  1.00  0.00     0.219 HD
ENDBRANCH  24  25
BRANCH  24  27
HETATM   27  C8  UNL     1      19.280  30.811  14.199  1.00  0.00     0.113 C 
BRANCH  27  28
HETATM   28  C9  UNL     1      20.658  30.413  14.584  1.00  0.00     0.004 C 
BRANCH  28  29
HETATM   29  C10 UNL     1      21.036  29.000  14.432  1.00  0.00     0.057 C 
BRANCH  29  30
HETATM   30  C11 UNL     1      22.335  28.809  13.632  1.00  0.00    -0.017 C 
HETATM   31  C12 UNL     1      22.088  27.636  12.648  1.00  0.00     0.010 C 
HETATM   32  C13 UNL     1      22.543  30.006  12.703  1.00  0.00     0.010 C 
ENDBRANCH  29  30
ENDBRANCH  28  29
BRANCH  28  33
HETATM   33  N3  UNL     1      21.190  30.995  15.794  1.00  0.00    -0.335 N 
HETATM   34  C14 UNL     1      20.459  30.652  17.094  1.00  0.00     0.158 C 
BRANCH  33  35
HETATM   35  C15 UNL     1      22.235  31.852  16.042  1.00  0.00     0.227 C 
BRANCH  35  36
HETATM   36  O5  UNL     1      22.532  31.967  17.324  1.00  0.00    -0.343 OA
ATOM     37  H5  UNL     1      23.128  32.682  17.514  1.00  0.00     0.219 HD
ENDBRANCH  35  36
BRANCH  35  38
HETATM   38  C16 UNL     1      23.071  32.657  15.213  1.00  0.00     0.456 C 
HETATM   39  F1  UNL     1      23.662  33.728  15.988  1.00  0.00    -0.163 F 
HETATM   40  F2  UNL     1      24.221  32.053  14.705  1.00  0.00    -0.163 F 
HETATM   41  F3  UNL     1      22.464  33.355  14.193  1.00  0.00    -0.163 F 
ENDBRANCH  35  38
ENDBRANCH  33  35
ENDBRANCH  28  33
ENDBRANCH  27  28
BRANCH  27  42
HETATM   42  C17 UNL     1      18.553  29.992  13.205  1.00  0.00    -0.035 C 
HETATM   43  C18 UNL     1      17.200  30.709  12.974  1.00  0.00     0.015 C 
HETATM   44  C19 UNL     1      19.221  29.834  11.873  1.00  0.00     0.015 C 
HETATM   45  C20 UNL     1      18.052  28.622  13.699  1.00  0.00     0.015 C 
ENDBRANCH  27  42
ENDBRANCH  24  27
ENDBRANCH   1  24
TORSDOF 19
ENDMDL
MODEL 3
REMARK VINA RESULT: -7.848342205      3.774      6.581
REMARK  19 active torsions:
REMARK  status: ('A' for Active; 'I' for Inactive)
REMARK    1  A    between atoms: C2_2  and  O1_3 
REMARK    2  A    between atoms: O1_3  and  C3_4 
REMARK    3  A    between atoms: C3_4  and  C4_6 
REMARK    4  A    between atoms: C4_6  and  N1_7 
REMARK    5  A    between atoms: C4_6  and  C24_42 
REMARK       I    between atoms: N1_7  and  C5_9 
REMARK    6  A    between atoms: C5_9  and  C6_11 
REMARK    7  A    between atoms: C6_11  and  N2_12 
REMARK    8  A    between atoms: N2_12  and  C7_14 
REMARK    9  A    between atoms: C7_14  and  O4_15 
REMARK   10  A    between atoms: C7_14  and  C8_17 
REMARK   11  A    between atoms: C8_17  and  C9_18 
REMARK   12  A    between atoms: C8_17  and  C17_32 
REMARK   13  A    between atoms: C9_18  and  C10_19 
REMARK   14  A    between atoms: C9_18  and  N3_23 
REMARK   15  A    between atoms: C10_19  and  C11_20 
REMARK   16  A    between atoms: N3_23  and  C15_25 
REMARK   17  A    between atoms: C15_25  and  O5_26 
REMARK   18  A    between atoms: C15_25  and  C16_28 
REMARK   19  A    between atoms: C22_37  and  C23_38 
ROOT
HETATM    1  N2  UNL     1      21.439  27.933  11.411  1.00  0.00    -0.355 N 
ATOM      2  H2  UNL     1      21.729  28.694  10.795  1.00  0.00     0.162 HD
ENDROOT
BRANCH   1   3
HETATM    3  C6  UNL     1      21.977  26.648  11.068  1.00  0.00     0.125 A 
HETATM    4  C21 UNL     1      23.092  25.949  11.663  1.00  0.00     0.058 A 
HETATM    5  C22 UNL     1      23.224  26.574  10.254  1.00  0.00     0.134 A 
BRANCH   3   6
HETATM    6  C5  UNL     1      20.923  25.724  10.402  1.00  0.00     0.247 C 
HETATM    7  N1  UNL     1      20.218  26.180   9.286  1.00  0.00    -0.344 N 
ATOM      8  H1  UNL     1      20.434  27.120   8.952  1.00  0.00     0.163 HD
HETATM    9  O3  UNL     1      20.716  24.590  10.895  1.00  0.00    -0.271 OA
BRANCH   7  10
HETATM   10  C4  UNL     1      19.226  25.451   8.570  1.00  0.00     0.191 C 
BRANCH  10  11
HETATM   11  C3  UNL     1      19.753  24.597   7.481  1.00  0.00     0.282 C 
HETATM   12  O2  UNL     1      19.111  23.544   7.129  1.00  0.00    -0.263 OA
BRANCH  11  13
HETATM   13  O1  UNL     1      20.916  24.848   6.803  1.00  0.00    -0.320 OA
BRANCH  13  14
HETATM   14  C2  UNL     1      22.138  24.172   7.049  1.00  0.00     0.174 C 
HETATM   15  C1  UNL     1      23.236  25.228   6.882  1.00  0.00     0.034 C 
ENDBRANCH  13  14
ENDBRANCH  11  13
ENDBRANCH  10  11
BRANCH  10  16
HETATM   16  C24 UNL     1      18.054  26.257   8.047  1.00  0.00    -0.022 C 
HETATM   17  C25 UNL     1      18.068  26.538   6.579  1.00  0.00     0.017 C 
HETATM   18  C26 UNL     1      18.127  27.668   8.701  1.00  0.00     0.017 C 
HETATM   19  C27 UNL     1      16.716  25.727   8.427  1.00  0.00     0.017 C 
ENDBRANCH  10  16
ENDBRANCH   7  10
ENDBRANCH   3   6
BRANCH   5  20
HETATM   20  C23 UNL     1      24.376  27.469  10.121  1.00  0.00     0.394 C 
HETATM   21  F4  UNL     1      24.588  28.372  11.141  1.00  0.00    -0.171 F 
HETATM   22  F5  UNL     1      24.041  28.390   9.031  1.00  0.00    -0.171 F 
HETATM   23  F6  UNL     1      25.566  26.947   9.700  1.00  0.00    -0.171 F 
ENDBRANCH   5  20
ENDBRANCH   1   3
BRANCH   1  24
HETATM   24  C7  UNL     1      20.583  28.317  12.449  1.00  0.00     0.122 C 
BRANCH  24  25
HETATM   25  O4  UNL     1      20.980  27.768  13.575  1.00  0.00    -0.349 OA
ATOM     26  H4  UNL     1      20.609  28.242  14.310  1.00  0.00     0.219 HD
ENDBRANCH  24  25
BRANCH  24  27
HETATM   27  C8  UNL     1      19.398  29.177  12.530  1.00  0.00     0.113 C 
BRANCH  27  28
HETATM   28  C9  UNL     1      19.588  30.317  13.463  1.00  0.00     0.004 C 
BRANCH  28  29
HETATM   29  C10 UNL     1      18.515  31.320  13.554  1.00  0.00     0.057 C 
BRANCH  29  30
HETATM   30  C11 UNL     1      18.469  32.027  14.918  1.00  0.00    -0.017 C 
HETATM   31  C12 UNL     1      18.676  33.539  14.647  1.00  0.00     0.010 C 
HETATM   32  C13 UNL     1      17.047  31.964  15.477  1.00  0.00     0.010 C 
ENDBRANCH  29  30
ENDBRANCH  28  29
BRANCH  28  33
HETATM   33  N3  UNL     1      20.901  30.917  13.500  1.00  0.00    -0.335 N 
HETATM   34  C14 UNL     1      21.405  31.536  12.195  1.00  0.00     0.158 C 
BRANCH  33  35
HETATM   35  C15 UNL     1      21.853  31.030  14.485  1.00  0.00     0.227 C 
BRANCH  35  36
HETATM   36  O5  UNL     1      22.101  29.895  15.114  1.00  0.00    -0.343 OA
ATOM     37  H5  UNL     1      21.968  29.124  14.575  1.00  0.00     0.219 HD
ENDBRANCH  35  36
BRANCH  35  38
HETATM   38  C16 UNL     1      22.634  32.113  14.985  1.00  0.00     0.456 C 
HETATM   39  F1  UNL     1      22.954  31.897  16.380  1.00  0.00    -0.163 F 
HETATM   40  F2  UNL     1      23.916  32.260  14.455  1.00  0.00    -0.163 F 
HETATM   41  F3  UNL     1      22.039  33.354  15.026  1.00  0.00    -0.163 F 
ENDBRANCH  35  38
ENDBRANCH  33  35
ENDBRANCH  28  33
ENDBRANCH  27  28
BRANCH  27  42
HETATM   42  C17 UNL     1      18.148  28.392  12.610  1.00  0.00    -0.035 C 
HETATM   43  C18 UNL     1      17.817  28.274  14.118  1.00  0.00     0.015 C 
HETATM   44  C19 UNL     1      16.956  28.989  11.925  1.00  0.00     0.015 C 
HETATM   45  C20 UNL     1      18.264  26.901  12.242  1.00  0.00     0.015 C 
ENDBRANCH  27  42
ENDBRANCH  24  27
ENDBRANCH   1  24
TORSDOF 19
ENDMDL
MODEL 4
REMARK VINA RESULT: -7.826518221      2.433      7.856
REMARK  19 active torsions:
REMARK  status: ('A' for Active; 'I' for Inactive)
REMARK    1  A    between atoms: C2_2  and  O1_3 
REMARK    2  A    between atoms: O1_3  and  C3_4 
REMARK    3  A    between atoms: C3_4  and  C4_6 
REMARK    4  A    between atoms: C4_6  and  N1_7 
REMARK    5  A    between atoms: C4_6  and  C24_42 
REMARK       I    between atoms: N1_7  and  C5_9 
REMARK    6  A    between atoms: C5_9  and  C6_11 
REMARK    7  A    between atoms: C6_11  and  N2_12 
REMARK    8  A    between atoms: N2_12  and  C7_14 
REMARK    9  A    between atoms: C7_14  and  O4_15 
REMARK   10  A    between atoms: C7_14  and  C8_17 
REMARK   11  A    between atoms: C8_17  and  C9_18 
REMARK   12  A    between atoms: C8_17  and  C17_32 
REMARK   13  A    between atoms: C9_18  and  C10_19 
REMARK   14  A    between atoms: C9_18  and  N3_23 
REMARK   15  A    between atoms: C10_19  and  C11_20 
REMARK   16  A    between atoms: N3_23  and  C15_25 
REMARK   17  A    between atoms: C15_25  and  O5_26 
REMARK   18  A    between atoms: C15_25  and  C16_28 
REMARK   19  A    between atoms: C22_37  and  C23_38 
ROOT
HETATM    1  N2  UNL     1      21.341  30.348  15.508  1.00  0.00    -0.355 N 
ATOM      2  H2  UNL     1      21.782  30.093  16.393  1.00  0.00     0.162 HD
ENDROOT
BRANCH   1   3
HETATM    3  C6  UNL     1      21.024  31.741  15.377  1.00  0.00     0.125 A 
HETATM    4  C21 UNL     1      21.160  32.592  14.217  1.00  0.00     0.058 A 
HETATM    5  C22 UNL     1      22.125  32.746  15.416  1.00  0.00     0.134 A 
BRANCH   3   6
HETATM    6  C5  UNL     1      19.934  32.196  16.382  1.00  0.00     0.247 C 
HETATM    7  N1  UNL     1      19.659  33.558  16.528  1.00  0.00    -0.344 N 
ATOM      8  H1  UNL     1      20.201  34.204  15.953  1.00  0.00     0.163 HD
HETATM    9  O3  UNL     1      19.332  31.327  17.056  1.00  0.00    -0.271 OA
BRANCH   7  10
HETATM   10  C4  UNL     1      18.692  34.126  17.405  1.00  0.00     0.191 C 
BRANCH  10  11
HETATM   11  C3  UNL     1      17.382  34.412  16.777  1.00  0.00     0.282 C 
HETATM   12  O2  UNL     1      17.317  34.654  15.518  1.00  0.00    -0.263 OA
BRANCH  11  13
HETATM   13  O1  UNL     1      16.195  34.448  17.458  1.00  0.00    -0.320 OA
BRANCH  13  14
HETATM   14  C2  UNL     1      15.013  35.053  16.958  1.00  0.00     0.174 C 
HETATM   15  C1  UNL     1      14.746  36.256  17.870  1.00  0.00     0.034 C 
ENDBRANCH  13  14
ENDBRANCH  11  13
ENDBRANCH  10  11
BRANCH  10  16
HETATM   16  C24 UNL     1      19.140  35.337  18.197  1.00  0.00    -0.022 C 
HETATM   17  C25 UNL     1      18.633  36.654  17.705  1.00  0.00     0.017 C 
HETATM   18  C26 UNL     1      20.685  35.449  18.048  1.00  0.00     0.017 C 
HETATM   19  C27 UNL     1      18.902  35.244  19.664  1.00  0.00     0.017 C 
ENDBRANCH  10  16
ENDBRANCH   7  10
ENDBRANCH   3   6
BRANCH   5  20
HETATM   20  C23 UNL     1      23.538  32.684  15.036  1.00  0.00     0.394 C 
HETATM   21  F4  UNL     1      24.189  31.484  15.237  1.00  0.00    -0.171 F 
HETATM   22  F5  UNL     1      24.250  33.524  16.003  1.00  0.00    -0.171 F 
HETATM   23  F6  UNL     1      23.920  33.232  13.844  1.00  0.00    -0.171 F 
ENDBRANCH   5  20
ENDBRANCH   1   3
BRANCH   1  24
HETATM   24  C7  UNL     1      21.147  29.281  14.625  1.00  0.00     0.122 C 
BRANCH  24  25
HETATM   25  O4  UNL     1      21.104  28.152  15.297  1.00  0.00    -0.349 OA
ATOM     26  H4  UNL     1      21.058  28.336  16.228  1.00  0.00     0.219 HD
ENDBRANCH  24  25
BRANCH  24  27
HETATM   27  C8  UNL     1      20.979  29.175  13.172  1.00  0.00     0.113 C 
BRANCH  27  28
HETATM   28  C9  UNL     1      19.659  28.609  12.793  1.00  0.00     0.004 C 
BRANCH  28  29
HETATM   29  C10 UNL     1      19.223  28.750  11.396  1.00  0.00     0.057 C 
BRANCH  29  30
HETATM   30  C11 UNL     1      18.363  27.569  10.913  1.00  0.00    -0.017 C 
HETATM   31  C12 UNL     1      18.186  27.739   9.383  1.00  0.00     0.010 C 
HETATM   32  C13 UNL     1      19.166  26.273  11.031  1.00  0.00     0.010 C 
ENDBRANCH  29  30
ENDBRANCH  28  29
BRANCH  28  33
HETATM   33  N3  UNL     1      18.574  28.804  13.727  1.00  0.00    -0.335 N 
HETATM   34  C14 UNL     1      17.915  27.539  14.280  1.00  0.00     0.158 C 
BRANCH  33  35
HETATM   35  C15 UNL     1      17.955  29.926  14.224  1.00  0.00     0.227 C 
BRANCH  35  36
HETATM   36  O5  UNL     1      17.679  29.850  15.514  1.00  0.00    -0.343 OA
ATOM     37  H5  UNL     1      18.414  30.073  16.073  1.00  0.00     0.219 HD
ENDBRANCH  35  36
BRANCH  35  38
HETATM   38  C16 UNL     1      17.535  31.161  13.647  1.00  0.00     0.456 C 
HETATM   39  F1  UNL     1      16.623  30.916  12.550  1.00  0.00    -0.163 F 
HETATM   40  F2  UNL     1      16.749  31.992  14.445  1.00  0.00    -0.163 F 
HETATM   41  F3  UNL     1      18.500  31.933  13.039  1.00  0.00    -0.163 F 
ENDBRANCH  35  38
ENDBRANCH  33  35
ENDBRANCH  28  33
ENDBRANCH  27  28
BRANCH  27  42
HETATM   42  C17 UNL     1      22.193  28.656  12.509  1.00  0.00    -0.035 C 
HETATM   43  C18 UNL     1      23.389  29.196  13.332  1.00  0.00     0.015 C 
HETATM   44  C19 UNL     1      22.317  27.164  12.444  1.00  0.00     0.015 C 
HETATM   45  C20 UNL     1      22.519  29.263  11.131  1.00  0.00     0.015 C 
ENDBRANCH  27  42
ENDBRANCH  24  27
ENDBRANCH   1  24
TORSDOF 19
ENDMDL
MODEL 5
REMARK VINA RESULT: -7.737323094      4.180      9.284
REMARK  19 active torsions:
REMARK  status: ('A' for Active; 'I' for Inactive)
REMARK    1  A    between atoms: C2_2  and  O1_3 
REMARK    2  A    between atoms: O1_3  and  C3_4 
REMARK    3  A    between atoms: C3_4  and  C4_6 
REMARK    4  A    between atoms: C4_6  and  N1_7 
REMARK    5  A    between atoms: C4_6  and  C24_42 
REMARK       I    between atoms: N1_7  and  C5_9 
REMARK    6  A    between atoms: C5_9  and  C6_11 
REMARK    7  A    between atoms: C6_11  and  N2_12 
REMARK    8  A    between atoms: N2_12  and  C7_14 
REMARK    9  A    between atoms: C7_14  and  O4_15 
REMARK   10  A    between atoms: C7_14  and  C8_17 
REMARK   11  A    between atoms: C8_17  and  C9_18 
REMARK   12  A    between atoms: C8_17  and  C17_32 
REMARK   13  A    between atoms: C9_18  and  C10_19 
REMARK   14  A    between atoms: C9_18  and  N3_23 
REMARK   15  A    between atoms: C10_19  and  C11_20 
REMARK   16  A    between atoms: N3_23  and  C15_25 
REMARK   17  A    between atoms: C15_25  and  O5_26 
REMARK   18  A    between atoms: C15_25  and  C16_28 
REMARK   19  A    between atoms: C22_37  and  C23_38 
ROOT
HETATM    1  N2  UNL     1      21.821  26.628  12.384  1.00  0.00    -0.355 N 
ATOM      2  H2  UNL     1      21.815  26.260  13.336  1.00  0.00     0.162 HD
ENDROOT
BRANCH   1   3
HETATM    3  C6  UNL     1      22.190  28.011  12.280  1.00  0.00     0.125 A 
HETATM    4  C21 UNL     1      22.709  28.723  11.134  1.00  0.00     0.058 A 
HETATM    5  C22 UNL     1      23.633  28.386  12.328  1.00  0.00     0.134 A 
BRANCH   3   6
HETATM    6  C5  UNL     1      21.436  28.902  13.301  1.00  0.00     0.247 C 
HETATM    7  N1  UNL     1      21.419  30.288  13.123  1.00  0.00    -0.344 N 
ATOM      8  H1  UNL     1      21.914  30.657  12.311  1.00  0.00     0.163 HD
HETATM    9  O3  UNL     1      20.870  28.356  14.277  1.00  0.00    -0.271 OA
BRANCH   7  10
HETATM   10  C4  UNL     1      20.773  31.231  13.972  1.00  0.00     0.191 C 
BRANCH  10  11
HETATM   11  C3  UNL     1      19.810  32.121  13.284  1.00  0.00     0.282 C 
HETATM   12  O2  UNL     1      20.024  32.476  12.069  1.00  0.00    -0.263 OA
BRANCH  11  13
HETATM   13  O1  UNL     1      18.674  32.618  13.864  1.00  0.00    -0.320 OA
BRANCH  13  14
HETATM   14  C2  UNL     1      17.554  31.823  14.222  1.00  0.00     0.174 C 
HETATM   15  C1  UNL     1      17.532  31.805  15.754  1.00  0.00     0.034 C 
ENDBRANCH  13  14
ENDBRANCH  11  13
ENDBRANCH  10  11
BRANCH  10  16
HETATM   16  C24 UNL     1      21.679  32.065  14.853  1.00  0.00    -0.022 C 
HETATM   17  C25 UNL     1      23.140  31.772  14.738  1.00  0.00     0.017 C 
HETATM   18  C26 UNL     1      21.342  31.718  16.333  1.00  0.00     0.017 C 
HETATM   19  C27 UNL     1      21.469  33.535  14.748  1.00  0.00     0.017 C 
ENDBRANCH  10  16
ENDBRANCH   7  10
ENDBRANCH   3   6
BRANCH   5  20
HETATM   20  C23 UNL     1      24.854  27.680  11.936  1.00  0.00     0.394 C 
HETATM   21  F4  UNL     1      25.086  26.455  12.525  1.00  0.00    -0.171 F 
HETATM   22  F5  UNL     1      25.963  28.450  12.507  1.00  0.00    -0.171 F 
HETATM   23  F6  UNL     1      25.189  27.635  10.612  1.00  0.00    -0.171 F 
ENDBRANCH   5  20
ENDBRANCH   1   3
BRANCH   1  24
HETATM   24  C7  UNL     1      21.469  25.701  11.397  1.00  0.00     0.122 C 
BRANCH  24  25
HETATM   25  O4  UNL     1      21.446  24.492  11.914  1.00  0.00    -0.349 OA
ATOM     26  H4  UNL     1      22.049  23.931  11.440  1.00  0.00     0.219 HD
ENDBRANCH  24  25
BRANCH  24  27
HETATM   27  C8  UNL     1      21.126  25.804   9.976  1.00  0.00     0.113 C 
BRANCH  27  28
HETATM   28  C9  UNL     1      19.684  25.552   9.720  1.00  0.00     0.004 C 
BRANCH  28  29
HETATM   29  C10 UNL     1      19.123  26.000   8.437  1.00  0.00     0.057 C 
BRANCH  29  30
HETATM   30  C11 UNL     1      18.284  24.917   7.738  1.00  0.00    -0.017 C 
HETATM   31  C12 UNL     1      16.816  25.416   7.740  1.00  0.00     0.010 C 
HETATM   32  C13 UNL     1      18.638  24.878   6.251  1.00  0.00     0.010 C 
ENDBRANCH  29  30
ENDBRANCH  28  29
BRANCH  28  33
HETATM   33  N3  UNL     1      18.778  25.778  10.822  1.00  0.00    -0.335 N 
HETATM   34  C14 UNL     1      17.925  24.584  11.258  1.00  0.00     0.158 C 
BRANCH  33  35
HETATM   35  C15 UNL     1      18.477  26.886  11.577  1.00  0.00     0.227 C 
BRANCH  35  36
HETATM   36  O5  UNL     1      18.585  26.685  12.878  1.00  0.00    -0.343 OA
ATOM     37  H5  UNL     1      18.041  27.265  13.399  1.00  0.00     0.219 HD
ENDBRANCH  35  36
BRANCH  35  38
HETATM   38  C16 UNL     1      18.064  28.214  11.262  1.00  0.00     0.456 C 
HETATM   39  F1  UNL     1      19.219  29.052  11.018  1.00  0.00    -0.163 F 
HETATM   40  F2  UNL     1      17.371  28.389  10.064  1.00  0.00    -0.163 F 
HETATM   41  F3  UNL     1      17.411  28.922  12.246  1.00  0.00    -0.163 F 
ENDBRANCH  35  38
ENDBRANCH  33  35
ENDBRANCH  28  33
ENDBRANCH  27  28
BRANCH  27  42
HETATM   42  C17 UNL     1      22.128  25.142   9.113  1.00  0.00    -0.035 C 
HETATM   43  C18 UNL     1      23.363  24.894  10.014  1.00  0.00     0.015 C 
HETATM   44  C19 UNL     1      21.719  23.827   8.524  1.00  0.00     0.015 C 
HETATM   45  C20 UNL     1      22.763  26.023   8.021  1.00  0.00     0.015 C 
ENDBRANCH  27  42
ENDBRANCH  24  27
ENDBRANCH   1  24
TORSDOF 19
ENDMDL
