MODEL 1
REMARK VINA RESULT: -9.467698230      0.000      0.000
REMARK  13 active torsions:
REMARK  status: ('A' for Active; 'I' for Inactive)
REMARK    1  A    between atoms: C2_2  and  N1_3 
REMARK    2  A    between atoms: N2_9  and  C8_10 
REMARK    3  A    between atoms: C8_10  and  C9_11 
REMARK    4  A    between atoms: C9_11  and  C10_12 
REMARK    5  A    between atoms: C10_12  and  C11_13 
REMARK    6  A    between atoms: C11_13  and  O1_14 
REMARK    7  A    between atoms: O1_14  and  C12_15 
REMARK    8  A    between atoms: C12_15  and  C13_17 
REMARK    9  A    between atoms: C15_19  and  C16_20 
REMARK   10  A    between atoms: C18_25  and  C19_26 
REMARK   11  A    between atoms: C23_33  and  C24_34 
REMARK   12  A    between atoms: C24_34  and  N3_35 
REMARK       I    between atoms: N3_35  and  C25_37 
REMARK   13  A    between atoms: C25_37  and  C26_39 
ROOT
HETATM    1  C1  UNL     1      20.062  29.116  14.584  1.00  0.00     0.041 C 
HETATM    2  C2  UNL     1      20.291  30.600  14.527  1.00  0.00     0.062 C 
HETATM    3  C7  UNL     1      20.859  30.992  15.870  1.00  0.00     0.303 C 
HETATM    4  N2  UNL     1      21.638  32.231  15.759  1.00  0.00     0.090 N 
HETATM    5  C21 UNL     1      22.916  31.927  15.166  1.00  0.00     0.273 C 
HETATM    6  C22 UNL     1      22.677  30.765  14.173  1.00  0.00     0.042 C 
HETATM    7  C23 UNL     1      21.382  30.981  13.499  1.00  0.00     0.055 C 
ENDROOT
BRANCH   4   8
HETATM    8  C8  UNL     1      21.894  32.667  17.135  1.00  0.00     0.272 C 
BRANCH   8   9
HETATM    9  C9  UNL     1      22.091  34.157  17.171  1.00  0.00     0.032 C 
BRANCH   9  10
HETATM   10  C10 UNL     1      20.836  34.862  16.745  1.00  0.00     0.028 C 
BRANCH  10  11
HETATM   11  C11 UNL     1      20.901  36.310  17.065  1.00  0.00     0.179 C 
BRANCH  11  12
HETATM   12  O1  UNL     1      20.605  36.635  18.405  1.00  0.00    -0.318 OA
BRANCH  12  13
HETATM   13  C12 UNL     1      19.525  36.127  19.064  1.00  0.00     0.293 C 
HETATM   14  O2  UNL     1      19.696  35.391  20.061  1.00  0.00    -0.259 OA
BRANCH  13  15
HETATM   15  C13 UNL     1      18.167  36.447  18.596  1.00  0.00     0.041 A 
HETATM   16  C14 UNL     1      17.254  35.491  18.228  1.00  0.00     0.033 A 
HETATM   17  C15 UNL     1      15.993  35.807  17.790  1.00  0.00     0.049 A 
HETATM   18  C17 UNL     1      15.645  37.150  17.725  1.00  0.00     0.032 A 
HETATM   19  C18 UNL     1      16.510  38.149  18.079  1.00  0.00     0.049 A 
HETATM   20  C20 UNL     1      17.765  37.763  18.512  1.00  0.00     0.033 A 
BRANCH  17  21
HETATM   21  C16 UNL     1      15.012  34.773  17.408  1.00  0.00     0.417 C 
HETATM   22  F1  UNL     1      14.994  34.698  16.027  1.00  0.00    -0.166 F 
HETATM   23  F2  UNL     1      13.731  35.203  17.784  1.00  0.00    -0.166 F 
HETATM   24  F3  UNL     1      15.332  33.578  17.998  1.00  0.00    -0.166 F 
ENDBRANCH  17  21
BRANCH  19  25
HETATM   25  C19 UNL     1      16.188  39.579  18.015  1.00  0.00     0.417 C 
HETATM   26  F4  UNL     1      16.210  39.971  16.699  1.00  0.00    -0.166 F 
HETATM   27  F5  UNL     1      14.871  39.762  18.444  1.00  0.00    -0.166 F 
HETATM   28  F6  UNL     1      17.083  40.305  18.769  1.00  0.00    -0.166 F 
ENDBRANCH  19  25
ENDBRANCH  13  15
ENDBRANCH  12  13
ENDBRANCH  11  12
ENDBRANCH  10  11
ENDBRANCH   9  10
ENDBRANCH   8   9
ENDBRANCH   4   8
BRANCH   2  29
HETATM   29  N1  UNL     1      19.077  31.259  14.383  1.00  0.00    -0.382 N 
HETATM   30  C3  UNL     1      17.980  31.000  15.200  1.00  0.00     0.059 C 
HETATM   31  C4  UNL     1      17.171  32.275  15.212  1.00  0.00     0.046 C 
HETATM   32  C5  UNL     1      18.121  33.325  14.737  1.00  0.00     0.025 C 
HETATM   33  C6  UNL     1      18.982  32.512  13.751  1.00  0.00     0.123 C 
ENDBRANCH   2  29
BRANCH   7  34
HETATM   34  C24 UNL     1      21.178  30.298  12.234  1.00  0.00     0.071 C 
BRANCH  34  35
HETATM   35  N3  UNL     1      22.226  29.635  11.588  1.00  0.00    -0.340 N 
HETATM   36  C25 UNL     1      22.442  28.396  10.999  1.00  0.00     0.227 C 
HETATM   37  O3  UNL     1      21.603  27.493  10.886  1.00  0.00    -0.273 OA
ATOM     38  H3  UNL     1      23.059  30.221  11.535  1.00  0.00     0.167 HD
BRANCH  36  39
HETATM   39  C26 UNL     1      23.843  28.153  10.448  1.00  0.00     0.105 C 
HETATM   40  C27 UNL     1      24.850  28.202  11.564  1.00  0.00     0.043 C 
HETATM   41  C28 UNL     1      24.996  26.775  12.032  1.00  0.00     0.233 C 
HETATM   42  N4  UNL     1      23.944  26.031  11.348  1.00  0.00    -0.074 N 
HETATM   43  C29 UNL     1      23.853  26.691  10.039  1.00  0.00     0.246 C 
ATOM     44  H42 UNL     1      24.100  25.023  11.302  1.00  0.00     0.277 HD
ATOM     45  H41 UNL     1      23.063  25.980  11.857  1.00  0.00     0.277 HD
ENDBRANCH  36  39
ENDBRANCH  34  35
ENDBRANCH   7  34
TORSDOF 13
ENDMDL
MODEL 2
REMARK VINA RESULT: -9.433420816      1.829      2.716
REMARK  13 active torsions:
REMARK  status: ('A' for Active; 'I' for Inactive)
REMARK    1  A    between atoms: C2_2  and  N1_3 
REMARK    2  A    between atoms: N2_9  and  C8_10 
REMARK    3  A    between atoms: C8_10  and  C9_11 
REMARK    4  A    between atoms: C9_11  and  C10_12 
REMARK    5  A    between atoms: C10_12  and  C11_13 
REMARK    6  A    between atoms: C11_13  and  O1_14 
REMARK    7  A    between atoms: O1_14  and  C12_15 
REMARK    8  A    between atoms: C12_15  and  C13_17 
REMARK    9  A    between atoms: C15_19  and  C16_20 
REMARK   10  A    between atoms: C18_25  and  C19_26 
REMARK   11  A    between atoms: C23_33  and  C24_34 
REMARK   12  A    between atoms: C24_34  and  N3_35 
REMARK       I    between atoms: N3_35  and  C25_37 
REMARK   13  A    between atoms: C25_37  and  C26_39 
ROOT
HETATM    1  C1  UNL     1      20.221  28.864  15.661  1.00  0.00     0.041 C 
HETATM    2  C2  UNL     1      20.229  29.761  14.455  1.00  0.00     0.062 C 
HETATM    3  C7  UNL     1      20.198  31.177  14.980  1.00  0.00     0.303 C 
HETATM    4  N2  UNL     1      20.768  32.104  13.995  1.00  0.00     0.090 N 
HETATM    5  C21 UNL     1      22.203  31.991  14.025  1.00  0.00     0.273 C 
HETATM    6  C22 UNL     1      22.524  30.514  14.358  1.00  0.00     0.042 C 
HETATM    7  C23 UNL     1      21.551  29.653  13.660  1.00  0.00     0.055 C 
ENDROOT
BRANCH   4   8
HETATM    8  C8  UNL     1      20.431  33.449  14.472  1.00  0.00     0.272 C 
BRANCH   8   9
HETATM    9  C9  UNL     1      21.361  33.846  15.584  1.00  0.00     0.032 C 
BRANCH   9  10
HETATM   10  C10 UNL     1      21.117  35.270  15.990  1.00  0.00     0.028 C 
BRANCH  10  11
HETATM   11  C11 UNL     1      21.516  35.500  17.401  1.00  0.00     0.179 C 
BRANCH  11  12
HETATM   12  O1  UNL     1      20.889  34.657  18.341  1.00  0.00    -0.318 OA
BRANCH  12  13
HETATM   13  C12 UNL     1      19.704  34.973  18.937  1.00  0.00     0.293 C 
HETATM   14  O2  UNL     1      19.699  35.446  20.095  1.00  0.00    -0.259 OA
BRANCH  13  15
HETATM   15  C13 UNL     1      18.441  34.754  18.214  1.00  0.00     0.041 A 
HETATM   16  C14 UNL     1      18.172  33.614  17.501  1.00  0.00     0.033 A 
HETATM   17  C15 UNL     1      16.990  33.427  16.830  1.00  0.00     0.049 A 
HETATM   18  C17 UNL     1      16.043  34.442  16.885  1.00  0.00     0.032 A 
HETATM   19  C18 UNL     1      16.253  35.602  17.580  1.00  0.00     0.049 A 
HETATM   20  C20 UNL     1      17.465  35.727  18.235  1.00  0.00     0.033 A 
BRANCH  17  21
HETATM   21  C16 UNL     1      16.701  32.191  16.076  1.00  0.00     0.417 C 
HETATM   22  F1  UNL     1      15.363  31.890  16.258  1.00  0.00    -0.166 F 
HETATM   23  F2  UNL     1      17.413  31.131  16.654  1.00  0.00    -0.166 F 
HETATM   24  F3  UNL     1      17.030  32.357  14.757  1.00  0.00    -0.166 F 
ENDBRANCH  17  21
BRANCH  19  25
HETATM   25  C19 UNL     1      15.287  36.704  17.656  1.00  0.00     0.417 C 
HETATM   26  F4  UNL     1      15.270  37.179  18.944  1.00  0.00    -0.166 F 
HETATM   27  F5  UNL     1      15.751  37.761  16.867  1.00  0.00    -0.166 F 
HETATM   28  F6  UNL     1      14.040  36.275  17.262  1.00  0.00    -0.166 F 
ENDBRANCH  19  25
ENDBRANCH  13  15
ENDBRANCH  12  13
ENDBRANCH  11  12
ENDBRANCH  10  11
ENDBRANCH   9  10
ENDBRANCH   8   9
ENDBRANCH   4   8
BRANCH   2  29
HETATM   29  N1  UNL     1      19.069  29.568  13.716  1.00  0.00    -0.382 N 
HETATM   30  C3  UNL     1      18.938  29.996  12.397  1.00  0.00     0.059 C 
HETATM   31  C4  UNL     1      17.924  29.072  11.768  1.00  0.00     0.046 C 
HETATM   32  C5  UNL     1      17.878  27.890  12.680  1.00  0.00     0.025 C 
HETATM   33  C6  UNL     1      18.139  28.563  14.041  1.00  0.00     0.123 C 
ENDBRANCH   2  29
BRANCH   7  34
HETATM   34  C24 UNL     1      21.932  28.268  13.452  1.00  0.00     0.071 C 
BRANCH  34  35
HETATM   35  N3  UNL     1      22.251  27.783  12.180  1.00  0.00    -0.340 N 
HETATM   36  C25 UNL     1      22.259  26.558  11.525  1.00  0.00     0.227 C 
HETATM   37  O3  UNL     1      21.901  25.477  12.010  1.00  0.00    -0.273 OA
ATOM     38  H3  UNL     1      22.562  28.535  11.565  1.00  0.00     0.167 HD
BRANCH  36  39
HETATM   39  C26 UNL     1      22.755  26.575  10.083  1.00  0.00     0.105 C 
HETATM   40  C27 UNL     1      23.881  27.560   9.937  1.00  0.00     0.043 C 
HETATM   41  C28 UNL     1      25.141  26.760  10.157  1.00  0.00     0.233 C 
HETATM   42  N4  UNL     1      24.696  25.452  10.624  1.00  0.00    -0.074 N 
HETATM   43  C29 UNL     1      23.442  25.235   9.892  1.00  0.00     0.246 C 
ATOM     44  H42 UNL     1      25.384  24.707  10.514  1.00  0.00     0.277 HD
ATOM     45  H41 UNL     1      24.613  25.372  11.637  1.00  0.00     0.277 HD
ENDBRANCH  36  39
ENDBRANCH  34  35
ENDBRANCH   7  34
TORSDOF 13
ENDMDL
MODEL 3
REMARK VINA RESULT: -9.387477221      0.443      2.686
REMARK  13 active torsions:
REMARK  status: ('A' for Active; 'I' for Inactive)
REMARK    1  A    between atoms: C2_2  and  N1_3 
REMARK    2  A    between atoms: N2_9  and  C8_10 
REMARK    3  A    between atoms: C8_10  and  C9_11 
REMARK    4  A    between atoms: C9_11  and  C10_12 
REMARK    5  A    between atoms: C10_12  and  C11_13 
REMARK    6  A    between atoms: C11_13  and  O1_14 
REMARK    7  A    between atoms: O1_14  and  C12_15 
REMARK    8  A    between atoms: C12_15  and  C13_17 
REMARK    9  A    between atoms: C15_19  and  C16_20 
REMARK   10  A    between atoms: C18_25  and  C19_26 
REMARK   11  A    between atoms: C23_33  and  C24_34 
REMARK   12  A    between atoms: C24_34  and  N3_35 
REMARK       I    between atoms: N3_35  and  C25_37 
REMARK   13  A    between atoms: C25_37  and  C26_39 
ROOT
HETATM    1  C1  UNL     1      20.253  29.254  15.231  1.00  0.00     0.041 C 
HETATM    2  C2  UNL     1      20.334  30.697  14.820  1.00  0.00     0.062 C 
HETATM    3  C7  UNL     1      20.960  31.433  15.981  1.00  0.00     0.303 C 
HETATM    4  N2  UNL     1      21.607  32.667  15.520  1.00  0.00     0.090 N 
HETATM    5  C21 UNL     1      22.860  32.332  14.894  1.00  0.00     0.273 C 
HETATM    6  C22 UNL     1      22.660  30.955  14.214  1.00  0.00     0.042 C 
HETATM    7  C23 UNL     1      21.304  30.910  13.635  1.00  0.00     0.055 C 
ENDROOT
BRANCH   4   8
HETATM    8  C8  UNL     1      21.921  33.430  16.732  1.00  0.00     0.272 C 
BRANCH   8   9
HETATM    9  C9  UNL     1      21.185  34.741  16.717  1.00  0.00     0.032 C 
BRANCH   9  10
HETATM   10  C10 UNL     1      21.871  35.737  17.606  1.00  0.00     0.028 C 
BRANCH  10  11
HETATM   11  C11 UNL     1      21.031  36.945  17.802  1.00  0.00     0.179 C 
BRANCH  11  12
HETATM   12  O1  UNL     1      20.380  37.019  19.050  1.00  0.00    -0.318 OA
BRANCH  12  13
HETATM   13  C12 UNL     1      19.292  36.258  19.359  1.00  0.00     0.293 C 
HETATM   14  O2  UNL     1      19.431  35.232  20.061  1.00  0.00    -0.259 OA
BRANCH  13  15
HETATM   15  C13 UNL     1      17.963  36.647  18.862  1.00  0.00     0.041 A 
HETATM   16  C14 UNL     1      17.535  37.949  18.801  1.00  0.00     0.033 A 
HETATM   17  C15 UNL     1      16.291  38.295  18.339  1.00  0.00     0.049 A 
HETATM   18  C17 UNL     1      15.445  37.274  17.922  1.00  0.00     0.032 A 
HETATM   19  C18 UNL     1      15.814  35.957  17.958  1.00  0.00     0.049 A 
HETATM   20  C20 UNL     1      17.082  35.677  18.434  1.00  0.00     0.033 A 
BRANCH  17  21
HETATM   21  C16 UNL     1      15.842  39.699  18.263  1.00  0.00     0.417 C 
HETATM   22  F1  UNL     1      14.502  39.732  18.603  1.00  0.00    -0.166 F 
HETATM   23  F2  UNL     1      15.908  40.124  16.928  1.00  0.00    -0.166 F 
HETATM   24  F3  UNL     1      16.614  40.484  19.078  1.00  0.00    -0.166 F 
ENDBRANCH  17  21
BRANCH  19  25
HETATM   25  C19 UNL     1      14.950  34.847  17.539  1.00  0.00     0.417 C 
HETATM   26  F4  UNL     1      13.650  35.174  17.832  1.00  0.00    -0.166 F 
HETATM   27  F5  UNL     1      15.009  34.736  16.147  1.00  0.00    -0.166 F 
HETATM   28  F6  UNL     1      15.330  33.683  18.167  1.00  0.00    -0.166 F 
ENDBRANCH  19  25
ENDBRANCH  13  15
ENDBRANCH  12  13
ENDBRANCH  11  12
ENDBRANCH  10  11
ENDBRANCH   9  10
ENDBRANCH   8   9
ENDBRANCH   4   8
BRANCH   2  29
HETATM   29  N1  UNL     1      19.056  31.210  14.646  1.00  0.00    -0.382 N 
HETATM   30  C3  UNL     1      18.024  30.981  15.553  1.00  0.00     0.059 C 
HETATM   31  C4  UNL     1      17.092  32.161  15.416  1.00  0.00     0.046 C 
HETATM   32  C5  UNL     1      17.912  33.208  14.736  1.00  0.00     0.025 C 
HETATM   33  C6  UNL     1      18.810  32.335  13.838  1.00  0.00     0.123 C 
ENDBRANCH   2  29
BRANCH   7  34
HETATM   34  C24 UNL     1      21.074  29.938  12.581  1.00  0.00     0.071 C 
BRANCH  34  35
HETATM   35  N3  UNL     1      22.132  29.400  11.842  1.00  0.00    -0.340 N 
HETATM   36  C25 UNL     1      22.393  28.239  11.126  1.00  0.00     0.227 C 
HETATM   37  O3  UNL     1      21.598  27.306  10.948  1.00  0.00    -0.273 OA
ATOM     38  H3  UNL     1      22.931  30.034  11.825  1.00  0.00     0.167 HD
BRANCH  36  39
HETATM   39  C26 UNL     1      23.785  28.129  10.515  1.00  0.00     0.105 C 
HETATM   40  C27 UNL     1      24.828  28.180  11.597  1.00  0.00     0.043 C 
HETATM   41  C28 UNL     1      25.088  26.741  11.968  1.00  0.00     0.233 C 
HETATM   42  N4  UNL     1      24.065  25.968  11.273  1.00  0.00    -0.074 N 
HETATM   43  C29 UNL     1      23.879  26.699  10.014  1.00  0.00     0.246 C 
ATOM     44  H42 UNL     1      24.287  24.979  11.159  1.00  0.00     0.277 HD
ATOM     45  H41 UNL     1      23.209  25.825  11.808  1.00  0.00     0.277 HD
ENDBRANCH  36  39
ENDBRANCH  34  35
ENDBRANCH   7  34
TORSDOF 13
ENDMDL
MODEL 4
REMARK VINA RESULT: -9.220010784      1.846      3.485
REMARK  13 active torsions:
REMARK  status: ('A' for Active; 'I' for Inactive)
REMARK    1  A    between atoms: C2_2  and  N1_3 
REMARK    2  A    between atoms: N2_9  and  C8_10 
REMARK    3  A    between atoms: C8_10  and  C9_11 
REMARK    4  A    between atoms: C9_11  and  C10_12 
REMARK    5  A    between atoms: C10_12  and  C11_13 
REMARK    6  A    between atoms: C11_13  and  O1_14 
REMARK    7  A    between atoms: O1_14  and  C12_15 
REMARK    8  A    between atoms: C12_15  and  C13_17 
REMARK    9  A    between atoms: C15_19  and  C16_20 
REMARK   10  A    between atoms: C18_25  and  C19_26 
REMARK   11  A    between atoms: C23_33  and  C24_34 
REMARK   12  A    between atoms: C24_34  and  N3_35 
REMARK       I    between atoms: N3_35  and  C25_37 
REMARK   13  A    between atoms: C25_37  and  C26_39 
ROOT
HETATM    1  C1  UNL     1      20.107  28.794  15.667  1.00  0.00     0.041 C 
HETATM    2  C2  UNL     1      20.085  29.690  14.461  1.00  0.00     0.062 C 
HETATM    3  C7  UNL     1      20.148  31.105  14.984  1.00  0.00     0.303 C 
HETATM    4  N2  UNL     1      20.701  32.006  13.966  1.00  0.00     0.090 N 
HETATM    5  C21 UNL     1      22.130  31.829  13.912  1.00  0.00     0.273 C 
HETATM    6  C22 UNL     1      22.402  30.339  14.229  1.00  0.00     0.042 C 
HETATM    7  C23 UNL     1      21.352  29.523  13.590  1.00  0.00     0.055 C 
ENDROOT
BRANCH   4   8
HETATM    8  C8  UNL     1      20.454  33.365  14.459  1.00  0.00     0.272 C 
BRANCH   8   9
HETATM    9  C9  UNL     1      21.420  33.693  15.563  1.00  0.00     0.032 C 
BRANCH   9  10
HETATM   10  C10 UNL     1      21.258  35.121  15.995  1.00  0.00     0.028 C 
BRANCH  10  11
HETATM   11  C11 UNL     1      21.646  35.298  17.417  1.00  0.00     0.179 C 
BRANCH  11  12
HETATM   12  O1  UNL     1      20.923  34.505  18.332  1.00  0.00    -0.318 OA
BRANCH  12  13
HETATM   13  C12 UNL     1      19.795  34.946  18.956  1.00  0.00     0.293 C 
HETATM   14  O2  UNL     1      19.867  35.406  20.117  1.00  0.00    -0.259 OA
BRANCH  13  15
HETATM   15  C13 UNL     1      18.500  34.877  18.259  1.00  0.00     0.041 A 
HETATM   16  C14 UNL     1      17.569  35.882  18.304  1.00  0.00     0.033 A 
HETATM   17  C15 UNL     1      16.365  35.800  17.651  1.00  0.00     0.049 A 
HETATM   18  C17 UNL     1      16.096  34.647  16.924  1.00  0.00     0.032 A 
HETATM   19  C18 UNL     1      16.985  33.611  16.841  1.00  0.00     0.049 A 
HETATM   20  C20 UNL     1      18.180  33.757  17.521  1.00  0.00     0.033 A 
BRANCH  17  21
HETATM   21  C16 UNL     1      15.372  36.892  17.692  1.00  0.00     0.417 C 
HETATM   22  F1  UNL     1      14.175  36.392  17.212  1.00  0.00    -0.166 F 
HETATM   23  F2  UNL     1      15.760  37.890  16.787  1.00  0.00    -0.166 F 
HETATM   24  F3  UNL     1      15.266  37.384  18.966  1.00  0.00    -0.166 F 
ENDBRANCH  17  21
BRANCH  19  25
HETATM   25  C19 UNL     1      16.739  32.371  16.095  1.00  0.00     0.417 C 
HETATM   26  F4  UNL     1      15.389  32.120  16.102  1.00  0.00    -0.166 F 
HETATM   27  F5  UNL     1      17.079  32.581  14.756  1.00  0.00    -0.166 F 
HETATM   28  F6  UNL     1      17.446  31.330  16.651  1.00  0.00    -0.166 F 
ENDBRANCH  19  25
ENDBRANCH  13  15
ENDBRANCH  12  13
ENDBRANCH  11  12
ENDBRANCH  10  11
ENDBRANCH   9  10
ENDBRANCH   8   9
ENDBRANCH   4   8
BRANCH   2  29
HETATM   29  N1  UNL     1      18.877  29.550  13.791  1.00  0.00    -0.382 N 
HETATM   30  C3  UNL     1      18.567  30.270  12.640  1.00  0.00     0.059 C 
HETATM   31  C4  UNL     1      17.582  29.417  11.878  1.00  0.00     0.046 C 
HETATM   32  C5  UNL     1      17.744  28.050  12.459  1.00  0.00     0.025 C 
HETATM   33  C6  UNL     1      18.084  28.394  13.922  1.00  0.00     0.123 C 
ENDBRANCH   2  29
BRANCH   7  34
HETATM   34  C24 UNL     1      21.657  28.122  13.363  1.00  0.00     0.071 C 
BRANCH  34  35
HETATM   35  N3  UNL     1      22.101  27.666  12.118  1.00  0.00    -0.340 N 
HETATM   36  C25 UNL     1      22.213  26.451  11.455  1.00  0.00     0.227 C 
HETATM   37  O3  UNL     1      21.859  25.350  11.899  1.00  0.00    -0.273 OA
ATOM     38  H3  UNL     1      22.433  28.437  11.538  1.00  0.00     0.167 HD
BRANCH  36  39
HETATM   39  C26 UNL     1      22.827  26.504  10.060  1.00  0.00     0.105 C 
HETATM   40  C27 UNL     1      23.901  27.555  10.010  1.00  0.00     0.043 C 
HETATM   41  C28 UNL     1      25.183  26.830  10.336  1.00  0.00     0.233 C 
HETATM   42  N4  UNL     1      24.779  25.496  10.764  1.00  0.00    -0.074 N 
HETATM   43  C29 UNL     1      23.606  25.208   9.928  1.00  0.00     0.246 C 
ATOM     44  H42 UNL     1      25.517  24.793  10.712  1.00  0.00     0.277 HD
ATOM     45  H41 UNL     1      24.615  25.405  11.766  1.00  0.00     0.277 HD
ENDBRANCH  36  39
ENDBRANCH  34  35
ENDBRANCH   7  34
TORSDOF 13
ENDMDL
MODEL 5
REMARK VINA RESULT: -9.192455584      5.874     11.844
REMARK  13 active torsions:
REMARK  status: ('A' for Active; 'I' for Inactive)
REMARK    1  A    between atoms: C2_2  and  N1_3 
REMARK    2  A    between atoms: N2_9  and  C8_10 
REMARK    3  A    between atoms: C8_10  and  C9_11 
REMARK    4  A    between atoms: C9_11  and  C10_12 
REMARK    5  A    between atoms: C10_12  and  C11_13 
REMARK    6  A    between atoms: C11_13  and  O1_14 
REMARK    7  A    between atoms: O1_14  and  C12_15 
REMARK    8  A    between atoms: C12_15  and  C13_17 
REMARK    9  A    between atoms: C15_19  and  C16_20 
REMARK   10  A    between atoms: C18_25  and  C19_26 
REMARK   11  A    between atoms: C23_33  and  C24_34 
REMARK   12  A    between atoms: C24_34  and  N3_35 
REMARK       I    between atoms: N3_35  and  C25_37 
REMARK   13  A    between atoms: C25_37  and  C26_39 
ROOT
HETATM    1  C1  UNL     1      19.991  30.498  16.950  1.00  0.00     0.041 C 
HETATM    2  C2  UNL     1      19.964  31.313  15.688  1.00  0.00     0.062 C 
HETATM    3  C7  UNL     1      20.165  30.339  14.551  1.00  0.00     0.303 C 
HETATM    4  N2  UNL     1      19.602  30.875  13.307  1.00  0.00     0.090 N 
HETATM    5  C21 UNL     1      18.169  30.730  13.344  1.00  0.00     0.273 C 
HETATM    6  C22 UNL     1      17.746  30.894  14.823  1.00  0.00     0.042 C 
HETATM    7  C23 UNL     1      18.577  31.948  15.436  1.00  0.00     0.055 C 
ENDROOT
BRANCH   4   8
HETATM    8  C8  UNL     1      20.096  30.004  12.236  1.00  0.00     0.272 C 
BRANCH   8   9
HETATM    9  C9  UNL     1      19.509  28.628  12.385  1.00  0.00     0.032 C 
BRANCH   9  10
HETATM   10  C10 UNL     1      19.081  28.093  11.049  1.00  0.00     0.028 C 
BRANCH  10  11
HETATM   11  C11 UNL     1      18.507  26.731  11.178  1.00  0.00     0.179 C 
BRANCH  11  12
HETATM   12  O1  UNL     1      19.310  25.811  11.883  1.00  0.00    -0.318 OA
BRANCH  12  13
HETATM   13  C12 UNL     1      20.088  24.883  11.257  1.00  0.00     0.293 C 
HETATM   14  O2  UNL     1      19.684  23.704  11.153  1.00  0.00    -0.259 OA
BRANCH  13  15
HETATM   15  C13 UNL     1      21.397  25.275  10.710  1.00  0.00     0.041 A 
HETATM   16  C14 UNL     1      21.843  24.881   9.474  1.00  0.00     0.033 A 
HETATM   17  C15 UNL     1      23.067  25.252   8.980  1.00  0.00     0.049 A 
HETATM   18  C17 UNL     1      23.873  26.058   9.776  1.00  0.00     0.032 A 
HETATM   19  C18 UNL     1      23.483  26.484  11.016  1.00  0.00     0.049 A 
HETATM   20  C20 UNL     1      22.237  26.075  11.455  1.00  0.00     0.033 A 
BRANCH  17  21
HETATM   21  C16 UNL     1      23.536  24.835   7.644  1.00  0.00     0.417 C 
HETATM   22  F1  UNL     1      22.883  25.614   6.706  1.00  0.00    -0.166 F 
HETATM   23  F2  UNL     1      23.114  23.518   7.407  1.00  0.00    -0.166 F 
HETATM   24  F3  UNL     1      24.899  24.947   7.567  1.00  0.00    -0.166 F 
ENDBRANCH  17  21
BRANCH  19  25
HETATM   25  C19 UNL     1      24.304  27.326  11.894  1.00  0.00     0.417 C 
HETATM   26  F4  UNL     1      25.202  26.522  12.552  1.00  0.00    -0.166 F 
HETATM   27  F5  UNL     1      25.073  28.183  11.101  1.00  0.00    -0.166 F 
HETATM   28  F6  UNL     1      23.507  28.016  12.778  1.00  0.00    -0.166 F 
ENDBRANCH  19  25
ENDBRANCH  13  15
ENDBRANCH  12  13
ENDBRANCH  11  12
ENDBRANCH  10  11
ENDBRANCH   9  10
ENDBRANCH   8   9
ENDBRANCH   4   8
BRANCH   2  29
HETATM   29  N1  UNL     1      21.037  32.194  15.672  1.00  0.00    -0.382 N 
HETATM   30  C3  UNL     1      22.145  32.044  16.503  1.00  0.00     0.059 C 
HETATM   31  C4  UNL     1      23.292  32.700  15.774  1.00  0.00     0.046 C 
HETATM   32  C5  UNL     1      22.831  32.792  14.356  1.00  0.00     0.025 C 
HETATM   33  C6  UNL     1      21.318  33.004  14.557  1.00  0.00     0.123 C 
ENDBRANCH   2  29
BRANCH   7  34
HETATM   34  C24 UNL     1      18.057  32.578  16.636  1.00  0.00     0.071 C 
BRANCH  34  35
HETATM   35  N3  UNL     1      17.044  33.539  16.574  1.00  0.00    -0.340 N 
HETATM   36  C25 UNL     1      16.315  34.315  17.466  1.00  0.00     0.227 C 
HETATM   37  O3  UNL     1      16.460  34.331  18.696  1.00  0.00    -0.273 OA
ATOM     38  H3  UNL     1      16.765  33.720  15.610  1.00  0.00     0.167 HD
BRANCH  36  39
HETATM   39  C26 UNL     1      15.251  35.218  16.851  1.00  0.00     0.105 C 
HETATM   40  C27 UNL     1      14.795  36.236  17.860  1.00  0.00     0.043 C 
HETATM   41  C28 UNL     1      15.674  37.441  17.635  1.00  0.00     0.233 C 
HETATM   42  N4  UNL     1      16.704  37.004  16.699  1.00  0.00    -0.074 N 
HETATM   43  C29 UNL     1      15.997  36.057  15.829  1.00  0.00     0.246 C 
ATOM     44  H42 UNL     1      17.175  37.762  16.205  1.00  0.00     0.277 HD
ATOM     45  H41 UNL     1      17.542  36.627  17.141  1.00  0.00     0.277 HD
ENDBRANCH  36  39
ENDBRANCH  34  35
ENDBRANCH   7  34
TORSDOF 13
ENDMDL
