MODEL 1
REMARK VINA RESULT: -8.503152367      0.000      0.000
REMARK  12 active torsions:
REMARK  status: ('A' for Active; 'I' for Inactive)
REMARK    1  A    between atoms: C2_2  and  C3_3 
REMARK    2  A    between atoms: C3_3  and  N1_4 
REMARK    3  A    between atoms: N1_4  and  C4_5 
REMARK    4  A    between atoms: N1_4  and  C22_26 
REMARK    5  A    between atoms: C4_5  and  C5_6 
REMARK    6  A    between atoms: C9_11  and  C10_12 
REMARK    7  A    between atoms: C10_12  and  N2_13 
REMARK    8  A    between atoms: C13_16  and  N3_17 
REMARK    9  A    between atoms: C22_26  and  C23_27 
REMARK   10  A    between atoms: C24_29  and  C25_30 
REMARK   11  A    between atoms: C25_30  and  C26_31 
REMARK   12  A    between atoms: C26_31  and  N4_32 
ROOT
HETATM    1  C5  UNL     1      17.919  32.145  16.374  1.00  0.00    -0.029 A 
HETATM    2  C6  UNL     1      16.649  32.039  15.854  1.00  0.00     0.011 A 
HETATM    3  C7  UNL     1      15.766  33.076  16.033  1.00  0.00     0.025 A 
HETATM    4  C8  UNL     1      16.177  34.189  16.732  1.00  0.00     0.045 A 
HETATM    5 CL1  UNL     1      15.075  35.552  16.975  1.00  0.00    -0.083 Cl
HETATM    6  C9  UNL     1      17.425  34.327  17.273  1.00  0.00     0.001 A 
HETATM    7  C21 UNL     1      18.305  33.240  17.066  1.00  0.00     0.023 A 
ENDROOT
BRANCH   1   8
HETATM    8  C4  UNL     1      18.925  31.122  15.923  1.00  0.00     0.311 C 
BRANCH   8   9
HETATM    9  N1  UNL     1      18.770  30.952  14.460  1.00  0.00     0.095 N 
BRANCH   9  10
HETATM   10  C3  UNL     1      19.932  31.406  13.703  1.00  0.00     0.272 C 
BRANCH  10  11
HETATM   11  C2  UNL     1      19.737  32.513  12.723  1.00  0.00     0.026 C 
HETATM   12  C1  UNL     1      19.014  33.651  13.503  1.00  0.00     0.007 C 
ENDBRANCH  10  11
ENDBRANCH   9  10
BRANCH   9  13
HETATM   13  C22 UNL     1      18.610  29.553  14.163  1.00  0.00     0.306 C 
BRANCH  13  14
HETATM   14  C23 UNL     1      19.226  28.899  13.049  1.00  0.00     0.169 C 
HETATM   15  O1  UNL     1      20.188  27.958  13.111  1.00  0.00    -0.367 OA
HETATM   16  C24 UNL     1      20.732  27.943  11.785  1.00  0.00     0.185 C 
HETATM   17  S1  UNL     1      19.237  27.776  10.804  1.00  0.00    -0.125 SA
HETATM   18  C28 UNL     1      18.086  28.313  12.110  1.00  0.00     0.031 C 
HETATM   19  C29 UNL     1      17.480  27.130  12.738  1.00  0.00     0.029 C 
HETATM   20  C30 UNL     1      17.198  29.413  11.662  1.00  0.00     0.029 C 
BRANCH  16  21
HETATM   21  C25 UNL     1      21.618  29.072  11.461  1.00  0.00     0.062 C 
BRANCH  21  22
HETATM   22  C26 UNL     1      22.984  28.767  12.145  1.00  0.00     0.125 C 
BRANCH  22  23
HETATM   23  N4  UNL     1      23.232  27.393  11.863  1.00  0.00    -0.367 N 
HETATM   24  C27 UNL     1      24.398  26.859  11.770  1.00  0.00     0.196 C 
HETATM   25  N5  UNL     1      25.530  27.677  11.961  1.00  0.00    -0.067 NA
HETATM   26  N6  UNL     1      24.524  25.453  11.442  1.00  0.00    -0.067 NA
ATOM     27  H4  UNL     1      22.423  26.787  11.724  1.00  0.00     0.161 HD
ENDBRANCH  22  23
ENDBRANCH  21  22
ENDBRANCH  16  21
ENDBRANCH  13  14
ENDBRANCH   9  13
ENDBRANCH   8   9
ENDBRANCH   1   8
BRANCH   6  28
HETATM   28  C10 UNL     1      17.894  35.618  17.796  1.00  0.00     0.098 C 
BRANCH  28  29
HETATM   29  N2  UNL     1      19.263  35.709  17.969  1.00  0.00    -0.389 N 
HETATM   30  C11 UNL     1      19.790  36.652  16.934  1.00  0.00     0.124 C 
HETATM   31  C12 UNL     1      21.257  36.739  16.988  1.00  0.00     0.055 C 
HETATM   32  C13 UNL     1      22.036  35.550  17.436  1.00  0.00     0.226 C 
HETATM   33  C19 UNL     1      21.455  34.994  18.721  1.00  0.00     0.055 C 
HETATM   34  C20 UNL     1      20.075  35.637  19.054  1.00  0.00     0.124 C 
BRANCH  32  35
HETATM   35  N3  UNL     1      22.284  34.539  16.452  1.00  0.00     0.093 N 
HETATM   36  C14 UNL     1      23.336  34.701  15.524  1.00  0.00     0.273 C 
HETATM   37  C15 UNL     1      22.984  33.725  14.376  1.00  0.00     0.030 C 
HETATM   38  C16 UNL     1      23.131  32.341  14.897  1.00  0.00     0.003 C 
HETATM   39  C17 UNL     1      22.462  32.132  16.235  1.00  0.00     0.030 C 
HETATM   40  C18 UNL     1      22.577  33.303  17.169  1.00  0.00     0.273 C 
ENDBRANCH  32  35
ENDBRANCH  28  29
ENDBRANCH   6  28
TORSDOF 12
ENDMDL
MODEL 2
REMARK VINA RESULT: -8.350873100      2.045      4.278
REMARK  12 active torsions:
REMARK  status: ('A' for Active; 'I' for Inactive)
REMARK    1  A    between atoms: C2_2  and  C3_3 
REMARK    2  A    between atoms: C3_3  and  N1_4 
REMARK    3  A    between atoms: N1_4  and  C4_5 
REMARK    4  A    between atoms: N1_4  and  C22_26 
REMARK    5  A    between atoms: C4_5  and  C5_6 
REMARK    6  A    between atoms: C9_11  and  C10_12 
REMARK    7  A    between atoms: C10_12  and  N2_13 
REMARK    8  A    between atoms: C13_16  and  N3_17 
REMARK    9  A    between atoms: C22_26  and  C23_27 
REMARK   10  A    between atoms: C24_29  and  C25_30 
REMARK   11  A    between atoms: C25_30  and  C26_31 
REMARK   12  A    between atoms: C26_31  and  N4_32 
ROOT
HETATM    1  C5  UNL     1      20.320  32.718  13.890  1.00  0.00    -0.029 A 
HETATM    2  C6  UNL     1      21.212  32.038  13.093  1.00  0.00     0.011 A 
HETATM    3  C7  UNL     1      22.535  31.992  13.460  1.00  0.00     0.025 A 
HETATM    4  C8  UNL     1      22.929  32.633  14.614  1.00  0.00     0.045 A 
HETATM    5 CL1  UNL     1      24.622  32.588  15.129  1.00  0.00    -0.083 Cl
HETATM    6  C9  UNL     1      22.076  33.328  15.425  1.00  0.00     0.001 A 
HETATM    7  C21 UNL     1      20.724  33.350  15.014  1.00  0.00     0.023 A 
ENDROOT
BRANCH   1   8
HETATM    8  C4  UNL     1      18.858  32.512  13.603  1.00  0.00     0.311 C 
BRANCH   8   9
HETATM    9  N1  UNL     1      18.483  31.172  14.110  1.00  0.00     0.095 N 
BRANCH   9  10
HETATM   10  C3  UNL     1      17.312  31.195  14.980  1.00  0.00     0.272 C 
BRANCH  10  11
HETATM   11  C2  UNL     1      17.152  32.355  15.902  1.00  0.00     0.026 C 
HETATM   12  C1  UNL     1      15.639  32.726  15.865  1.00  0.00     0.007 C 
ENDBRANCH  10  11
ENDBRANCH   9  10
BRANCH   9  13
HETATM   13  C22 UNL     1      18.149  30.323  12.997  1.00  0.00     0.306 C 
BRANCH  13  14
HETATM   14  C23 UNL     1      18.985  29.262  12.525  1.00  0.00     0.169 C 
HETATM   15  O1  UNL     1      19.939  28.626  13.232  1.00  0.00    -0.367 OA
HETATM   16  C24 UNL     1      20.730  27.980  12.226  1.00  0.00     0.185 C 
HETATM   17  S1  UNL     1      19.459  27.133  11.282  1.00  0.00    -0.125 SA
HETATM   18  C28 UNL     1      18.063  28.130  11.898  1.00  0.00     0.031 C 
HETATM   19  C29 UNL     1      17.376  27.394  12.968  1.00  0.00     0.029 C 
HETATM   20  C30 UNL     1      17.253  28.704  10.796  1.00  0.00     0.029 C 
BRANCH  16  21
HETATM   21  C25 UNL     1      21.635  28.867  11.478  1.00  0.00     0.062 C 
BRANCH  21  22
HETATM   22  C26 UNL     1      23.043  28.204  11.532  1.00  0.00     0.125 C 
BRANCH  22  23
HETATM   23  N4  UNL     1      23.038  27.255  10.470  1.00  0.00    -0.367 N 
HETATM   24  C27 UNL     1      23.699  26.152  10.465  1.00  0.00     0.196 C 
HETATM   25  N5  UNL     1      24.493  25.838  11.587  1.00  0.00    -0.067 NA
HETATM   26  N6  UNL     1      23.642  25.281   9.309  1.00  0.00    -0.067 NA
ATOM     27  H4  UNL     1      22.466  27.465   9.652  1.00  0.00     0.161 HD
ENDBRANCH  22  23
ENDBRANCH  21  22
ENDBRANCH  16  21
ENDBRANCH  13  14
ENDBRANCH   9  13
ENDBRANCH   8   9
ENDBRANCH   1   8
BRANCH   6  28
HETATM   28  C10 UNL     1      22.491  33.787  16.758  1.00  0.00     0.098 C 
BRANCH  28  29
HETATM   29  N2  UNL     1      22.073  35.063  17.087  1.00  0.00    -0.389 N 
HETATM   30  C11 UNL     1      21.661  35.049  18.525  1.00  0.00     0.124 C 
HETATM   31  C12 UNL     1      21.114  36.349  18.938  1.00  0.00     0.055 C 
HETATM   32  C13 UNL     1      20.411  37.192  17.928  1.00  0.00     0.226 C 
HETATM   33  C19 UNL     1      21.242  37.301  16.665  1.00  0.00     0.055 C 
HETATM   34  C20 UNL     1      22.438  36.302  16.674  1.00  0.00     0.124 C 
BRANCH  32  35
HETATM   35  N3  UNL     1      19.040  36.869  17.668  1.00  0.00     0.093 N 
HETATM   36  C14 UNL     1      18.307  36.103  18.600  1.00  0.00     0.273 C 
HETATM   37  C15 UNL     1      17.110  35.555  17.786  1.00  0.00     0.030 C 
HETATM   38  C16 UNL     1      16.232  36.705  17.445  1.00  0.00     0.003 C 
HETATM   39  C17 UNL     1      16.985  37.889  16.888  1.00  0.00     0.030 C 
HETATM   40  C18 UNL     1      18.318  38.130  17.538  1.00  0.00     0.273 C 
ENDBRANCH  32  35
ENDBRANCH  28  29
ENDBRANCH   6  28
TORSDOF 12
ENDMDL
MODEL 3
REMARK VINA RESULT: -8.254766854      3.063      6.109
REMARK  12 active torsions:
REMARK  status: ('A' for Active; 'I' for Inactive)
REMARK    1  A    between atoms: C2_2  and  C3_3 
REMARK    2  A    between atoms: C3_3  and  N1_4 
REMARK    3  A    between atoms: N1_4  and  C4_5 
REMARK    4  A    between atoms: N1_4  and  C22_26 
REMARK    5  A    between atoms: C4_5  and  C5_6 
REMARK    6  A    between atoms: C9_11  and  C10_12 
REMARK    7  A    between atoms: C10_12  and  N2_13 
REMARK    8  A    between atoms: C13_16  and  N3_17 
REMARK    9  A    between atoms: C22_26  and  C23_27 
REMARK   10  A    between atoms: C24_29  and  C25_30 
REMARK   11  A    between atoms: C25_30  and  C26_31 
REMARK   12  A    between atoms: C26_31  and  N4_32 
ROOT
HETATM    1  C5  UNL     1      17.600  32.882  15.161  1.00  0.00    -0.029 A 
HETATM    2  C6  UNL     1      16.553  32.147  15.669  1.00  0.00     0.011 A 
HETATM    3  C7  UNL     1      15.553  32.794  16.353  1.00  0.00     0.025 A 
HETATM    4  C8  UNL     1      15.630  34.160  16.513  1.00  0.00     0.045 A 
HETATM    5 CL1  UNL     1      14.357  35.035  17.376  1.00  0.00    -0.083 Cl
HETATM    6  C9  UNL     1      16.659  34.924  16.033  1.00  0.00     0.001 A 
HETATM    7  C21 UNL     1      17.667  34.221  15.334  1.00  0.00     0.023 A 
ENDROOT
BRANCH   1   8
HETATM    8  C4  UNL     1      18.516  32.182  14.196  1.00  0.00     0.311 C 
BRANCH   8   9
HETATM    9  N1  UNL     1      18.760  30.816  14.715  1.00  0.00     0.095 N 
BRANCH   9  10
HETATM   10  C3  UNL     1      18.364  29.768  13.780  1.00  0.00     0.272 C 
BRANCH  10  11
HETATM   11  C2  UNL     1      17.795  30.185  12.466  1.00  0.00     0.026 C 
HETATM   12  C1  UNL     1      17.412  28.867  11.729  1.00  0.00     0.007 C 
ENDBRANCH  10  11
ENDBRANCH   9  10
BRANCH   9  13
HETATM   13  C22 UNL     1      20.169  30.645  14.947  1.00  0.00     0.306 C 
BRANCH  13  14
HETATM   14  C23 UNL     1      21.116  31.718  14.931  1.00  0.00     0.169 C 
HETATM   15  O1  UNL     1      21.766  32.223  15.998  1.00  0.00    -0.367 OA
HETATM   16  C24 UNL     1      22.244  33.491  15.533  1.00  0.00     0.185 C 
HETATM   17  S1  UNL     1      23.060  33.010  14.007  1.00  0.00    -0.125 SA
HETATM   18  C28 UNL     1      22.228  31.398  13.842  1.00  0.00     0.031 C 
HETATM   19  C29 UNL     1      23.121  30.339  14.333  1.00  0.00     0.029 C 
HETATM   20  C30 UNL     1      21.587  31.229  12.515  1.00  0.00     0.029 C 
BRANCH  16  21
HETATM   21  C25 UNL     1      21.224  34.547  15.438  1.00  0.00     0.062 C 
BRANCH  21  22
HETATM   22  C26 UNL     1      21.700  35.701  16.370  1.00  0.00     0.125 C 
BRANCH  22  23
HETATM   23  N4  UNL     1      21.724  35.128  17.674  1.00  0.00    -0.367 N 
HETATM   24  C27 UNL     1      22.162  35.717  18.730  1.00  0.00     0.196 C 
HETATM   25  N5  UNL     1      22.658  37.031  18.610  1.00  0.00    -0.067 NA
HETATM   26  N6  UNL     1      22.169  35.016  19.998  1.00  0.00    -0.067 NA
ATOM     27  H4  UNL     1      21.366  34.178  17.778  1.00  0.00     0.161 HD
ENDBRANCH  22  23
ENDBRANCH  21  22
ENDBRANCH  16  21
ENDBRANCH  13  14
ENDBRANCH   9  13
ENDBRANCH   8   9
ENDBRANCH   1   8
BRANCH   6  28
HETATM   28  C10 UNL     1      16.580  36.390  16.016  1.00  0.00     0.098 C 
BRANCH  28  29
HETATM   29  N2  UNL     1      17.254  37.018  17.048  1.00  0.00    -0.389 N 
HETATM   30  C11 UNL     1      16.379  38.121  17.556  1.00  0.00     0.124 C 
HETATM   31  C12 UNL     1      17.058  38.903  18.600  1.00  0.00     0.055 C 
HETATM   32  C13 UNL     1      18.542  39.036  18.554  1.00  0.00     0.226 C 
HETATM   33  C19 UNL     1      19.186  37.678  18.356  1.00  0.00     0.055 C 
HETATM   34  C20 UNL     1      18.132  36.590  17.989  1.00  0.00     0.124 C 
BRANCH  32  35
HETATM   35  N3  UNL     1      19.069  40.036  17.675  1.00  0.00     0.093 N 
HETATM   36  C14 UNL     1      19.628  41.219  18.207  1.00  0.00     0.273 C 
HETATM   37  C15 UNL     1      19.612  42.214  17.022  1.00  0.00     0.030 C 
HETATM   38  C16 UNL     1      20.595  41.734  16.015  1.00  0.00     0.003 C 
HETATM   39  C17 UNL     1      20.464  40.262  15.706  1.00  0.00     0.030 C 
HETATM   40  C18 UNL     1      20.135  39.411  16.899  1.00  0.00     0.273 C 
ENDBRANCH  32  35
ENDBRANCH  28  29
ENDBRANCH   6  28
TORSDOF 12
ENDMDL
MODEL 4
REMARK VINA RESULT: -8.195240867      3.024      5.905
REMARK  12 active torsions:
REMARK  status: ('A' for Active; 'I' for Inactive)
REMARK    1  A    between atoms: C2_2  and  C3_3 
REMARK    2  A    between atoms: C3_3  and  N1_4 
REMARK    3  A    between atoms: N1_4  and  C4_5 
REMARK    4  A    between atoms: N1_4  and  C22_26 
REMARK    5  A    between atoms: C4_5  and  C5_6 
REMARK    6  A    between atoms: C9_11  and  C10_12 
REMARK    7  A    between atoms: C10_12  and  N2_13 
REMARK    8  A    between atoms: C13_16  and  N3_17 
REMARK    9  A    between atoms: C22_26  and  C23_27 
REMARK   10  A    between atoms: C24_29  and  C25_30 
REMARK   11  A    between atoms: C25_30  and  C26_31 
REMARK   12  A    between atoms: C26_31  and  N4_32 
ROOT
HETATM    1  C5  UNL     1      22.657  29.936  13.865  1.00  0.00    -0.029 A 
HETATM    2  C6  UNL     1      23.826  30.661  13.925  1.00  0.00     0.011 A 
HETATM    3  C7  UNL     1      23.884  31.768  14.735  1.00  0.00     0.025 A 
HETATM    4  C8  UNL     1      22.768  32.123  15.460  1.00  0.00     0.045 A 
HETATM    5 CL1  UNL     1      22.804  33.536  16.525  1.00  0.00    -0.083 Cl
HETATM    6  C9  UNL     1      21.586  31.437  15.419  1.00  0.00     0.001 A 
HETATM    7  C21 UNL     1      21.567  30.303  14.575  1.00  0.00     0.023 A 
ENDROOT
BRANCH   1   8
HETATM    8  C4  UNL     1      22.724  28.593  13.191  1.00  0.00     0.311 C 
BRANCH   8   9
HETATM    9  N1  UNL     1      21.795  28.620  12.038  1.00  0.00     0.095 N 
BRANCH   9  10
HETATM   10  C3  UNL     1      22.367  28.037  10.828  1.00  0.00     0.272 C 
BRANCH  10  11
HETATM   11  C2  UNL     1      23.849  28.073  10.670  1.00  0.00     0.026 C 
HETATM   12  C1  UNL     1      24.232  26.754   9.935  1.00  0.00     0.007 C 
ENDBRANCH  10  11
ENDBRANCH   9  10
BRANCH   9  13
HETATM   13  C22 UNL     1      20.628  27.843  12.354  1.00  0.00     0.306 C 
BRANCH  13  14
HETATM   14  C23 UNL     1      19.444  27.818  11.550  1.00  0.00     0.169 C 
HETATM   15  O1  UNL     1      18.774  26.718  11.155  1.00  0.00    -0.367 OA
HETATM   16  C24 UNL     1      17.959  27.190  10.074  1.00  0.00     0.185 C 
HETATM   17  S1  UNL     1      17.173  28.614  10.835  1.00  0.00    -0.125 SA
HETATM   18  C28 UNL     1      18.367  28.787  12.201  1.00  0.00     0.031 C 
HETATM   19  C29 UNL     1      17.808  28.173  13.414  1.00  0.00     0.029 C 
HETATM   20  C30 UNL     1      18.924  30.159  12.291  1.00  0.00     0.029 C 
BRANCH  16  21
HETATM   21  C25 UNL     1      18.672  27.420   8.808  1.00  0.00     0.062 C 
BRANCH  21  22
HETATM   22  C26 UNL     1      18.620  26.075   8.024  1.00  0.00     0.125 C 
BRANCH  22  23
HETATM   23  N4  UNL     1      19.568  26.233   6.973  1.00  0.00    -0.367 N 
HETATM   24  C27 UNL     1      20.272  25.282   6.468  1.00  0.00     0.196 C 
HETATM   25  N5  UNL     1      20.107  23.978   6.978  1.00  0.00    -0.067 NA
HETATM   26  N6  UNL     1      21.233  25.573   5.422  1.00  0.00    -0.067 NA
ATOM     27  H4  UNL     1      19.698  27.169   6.591  1.00  0.00     0.161 HD
ENDBRANCH  22  23
ENDBRANCH  21  22
ENDBRANCH  16  21
ENDBRANCH  13  14
ENDBRANCH   9  13
ENDBRANCH   8   9
ENDBRANCH   1   8
BRANCH   6  28
HETATM   28  C10 UNL     1      20.510  31.707  16.382  1.00  0.00     0.098 C 
BRANCH  28  29
HETATM   29  N2  UNL     1      19.278  31.975  15.815  1.00  0.00    -0.389 N 
HETATM   30  C11 UNL     1      19.471  33.062  14.804  1.00  0.00     0.124 C 
HETATM   31  C12 UNL     1      18.190  33.475  14.213  1.00  0.00     0.055 C 
HETATM   32  C13 UNL     1      16.950  33.379  15.034  1.00  0.00     0.226 C 
HETATM   33  C19 UNL     1      16.857  32.013  15.688  1.00  0.00     0.055 C 
HETATM   34  C20 UNL     1      18.188  31.215  15.544  1.00  0.00     0.124 C 
BRANCH  32  35
HETATM   35  N3  UNL     1      16.701  34.453  15.948  1.00  0.00     0.093 N 
HETATM   36  C14 UNL     1      16.431  35.748  15.457  1.00  0.00     0.273 C 
HETATM   37  C15 UNL     1      16.715  36.679  16.660  1.00  0.00     0.030 C 
HETATM   38  C16 UNL     1      15.670  36.423  17.686  1.00  0.00     0.003 C 
HETATM   39  C17 UNL     1      15.450  34.955  17.963  1.00  0.00     0.030 C 
HETATM   40  C18 UNL     1      15.535  34.081  16.743  1.00  0.00     0.273 C 
ENDBRANCH  32  35
ENDBRANCH  28  29
ENDBRANCH   6  28
TORSDOF 12
ENDMDL
MODEL 5
REMARK VINA RESULT: -8.021394580      3.578      8.076
REMARK  12 active torsions:
REMARK  status: ('A' for Active; 'I' for Inactive)
REMARK    1  A    between atoms: C2_2  and  C3_3 
REMARK    2  A    between atoms: C3_3  and  N1_4 
REMARK    3  A    between atoms: N1_4  and  C4_5 
REMARK    4  A    between atoms: N1_4  and  C22_26 
REMARK    5  A    between atoms: C4_5  and  C5_6 
REMARK    6  A    between atoms: C9_11  and  C10_12 
REMARK    7  A    between atoms: C10_12  and  N2_13 
REMARK    8  A    between atoms: C13_16  and  N3_17 
REMARK    9  A    between atoms: C22_26  and  C23_27 
REMARK   10  A    between atoms: C24_29  and  C25_30 
REMARK   11  A    between atoms: C25_30  and  C26_31 
REMARK   12  A    between atoms: C26_31  and  N4_32 
ROOT
HETATM    1  C5  UNL     1      17.250  36.282  17.323  1.00  0.00    -0.029 A 
HETATM    2  C6  UNL     1      15.879  36.205  17.421  1.00  0.00     0.011 A 
HETATM    3  C7  UNL     1      15.252  35.026  17.102  1.00  0.00     0.025 A 
HETATM    4  C8  UNL     1      16.014  33.956  16.688  1.00  0.00     0.045 A 
HETATM    5 CL1  UNL     1      15.247  32.415  16.279  1.00  0.00    -0.083 Cl
HETATM    6  C9  UNL     1      17.376  33.996  16.567  1.00  0.00     0.001 A 
HETATM    7  C21 UNL     1      17.984  35.226  16.906  1.00  0.00     0.023 A 
ENDROOT
BRANCH   1   8
HETATM    8  C4  UNL     1      17.909  37.486  17.938  1.00  0.00     0.311 C 
BRANCH   8   9
HETATM    9  N1  UNL     1      17.843  38.590  16.953  1.00  0.00     0.095 N 
BRANCH   9  10
HETATM   10  C3  UNL     1      16.889  39.631  17.322  1.00  0.00     0.272 C 
BRANCH  10  11
HETATM   11  C2  UNL     1      16.402  39.662  18.731  1.00  0.00     0.026 C 
HETATM   12  C1  UNL     1      15.113  40.537  18.719  1.00  0.00     0.007 C 
ENDBRANCH  10  11
ENDBRANCH   9  10
BRANCH   9  13
HETATM   13  C22 UNL     1      19.130  39.226  16.871  1.00  0.00     0.306 C 
BRANCH  13  14
HETATM   14  C23 UNL     1      20.344  38.633  17.342  1.00  0.00     0.169 C 
HETATM   15  O1  UNL     1      21.129  37.777  16.658  1.00  0.00    -0.367 OA
HETATM   16  C24 UNL     1      21.943  37.179  17.675  1.00  0.00     0.185 C 
HETATM   17  S1  UNL     1      22.561  38.639  18.520  1.00  0.00    -0.125 SA
HETATM   18  C28 UNL     1      21.299  39.785  17.876  1.00  0.00     0.031 C 
HETATM   19  C29 UNL     1      21.859  40.537  16.744  1.00  0.00     0.029 C 
HETATM   20  C30 UNL     1      20.615  40.534  18.958  1.00  0.00     0.029 C 
BRANCH  16  21
HETATM   21  C25 UNL     1      21.267  36.168  18.503  1.00  0.00     0.062 C 
BRANCH  21  22
HETATM   22  C26 UNL     1      21.941  34.804  18.168  1.00  0.00     0.125 C 
BRANCH  22  23
HETATM   23  N4  UNL     1      22.303  34.908  16.794  1.00  0.00    -0.367 N 
HETATM   24  C27 UNL     1      22.231  33.949  15.939  1.00  0.00     0.196 C 
HETATM   25  N5  UNL     1      21.758  32.694  16.374  1.00  0.00    -0.067 NA
HETATM   26  N6  UNL     1      22.663  34.166  14.573  1.00  0.00    -0.067 NA
ATOM     27  H4  UNL     1      22.645  35.810  16.463  1.00  0.00     0.161 HD
ENDBRANCH  22  23
ENDBRANCH  21  22
ENDBRANCH  16  21
ENDBRANCH  13  14
ENDBRANCH   9  13
ENDBRANCH   8   9
ENDBRANCH   1   8
BRANCH   6  28
HETATM   28  C10 UNL     1      18.162  32.772  16.357  1.00  0.00     0.098 C 
BRANCH  28  29
HETATM   29  N2  UNL     1      18.427  32.474  15.033  1.00  0.00    -0.389 N 
HETATM   30  C11 UNL     1      17.800  31.149  14.733  1.00  0.00     0.124 C 
HETATM   31  C12 UNL     1      18.111  30.709  13.365  1.00  0.00     0.055 C 
HETATM   32  C13 UNL     1      19.403  31.125  12.747  1.00  0.00     0.226 C 
HETATM   33  C19 UNL     1      19.614  32.616  12.924  1.00  0.00     0.055 C 
HETATM   34  C20 UNL     1      18.583  33.229  13.918  1.00  0.00     0.124 C 
BRANCH  32  35
HETATM   35  N3  UNL     1      20.558  30.352  13.095  1.00  0.00     0.093 N 
HETATM   36  C14 UNL     1      20.918  29.232  12.315  1.00  0.00     0.273 C 
HETATM   37  C15 UNL     1      21.843  28.405  13.240  1.00  0.00     0.030 C 
HETATM   38  C16 UNL     1      23.101  29.175  13.426  1.00  0.00     0.003 C 
HETATM   39  C17 UNL     1      22.869  30.627  13.770  1.00  0.00     0.030 C 
HETATM   40  C18 UNL     1      21.707  31.250  13.051  1.00  0.00     0.273 C 
ENDBRANCH  32  35
ENDBRANCH  28  29
ENDBRANCH   6  28
TORSDOF 12
ENDMDL
