MODEL 1
REMARK VINA RESULT: -8.843458409      0.000      0.000
REMARK  15 active torsions:
REMARK  status: ('A' for Active; 'I' for Inactive)
REMARK    1  A    between atoms: C2_2  and  C3_3 
REMARK    2  A    between atoms: C3_3  and  N1_6 
REMARK       I    between atoms: N1_6  and  C6_8 
REMARK    3  A    between atoms: C6_8  and  C7_10 
REMARK    4  A    between atoms: C7_10  and  C9_12 
REMARK    5  A    between atoms: C9_12  and  C10_13 
REMARK    6  A    between atoms: C10_13  and  C11_15 
REMARK    7  A    between atoms: C11_15  and  C12_16 
REMARK    8  A    between atoms: C11_15  and  C24_34 
REMARK       I    between atoms: C12_16  and  N2_18 
REMARK    9  A    between atoms: N2_18  and  C13_20 
REMARK   10  A    between atoms: C13_20  and  C14_21 
REMARK   11  A    between atoms: C13_20  and  C21_28 
REMARK   12  A    between atoms: C14_21  and  C15_22 
REMARK   13  A    between atoms: C21_28  and  C22_30 
REMARK   14  A    between atoms: C22_30  and  O6_32 
REMARK   15  A    between atoms: C24_34  and  C26_36 
ROOT
HETATM    1  C11 UNL     1      20.097  32.353  13.956  1.00  0.00     0.153 C 
ENDROOT
BRANCH   1   2
HETATM    2  C10 UNL     1      19.897  31.334  15.062  1.00  0.00     0.141 C 
HETATM    3  O2  UNL     1      20.672  30.409  15.131  1.00  0.00    -0.297 OA
BRANCH   2   4
HETATM    4  C9  UNL     1      18.801  31.450  16.026  1.00  0.00     0.093 C 
BRANCH   4   5
HETATM    5  C7  UNL     1      17.637  32.282  15.617  1.00  0.00     0.081 C 
HETATM    6  C8  UNL     1      16.341  31.470  15.628  1.00  0.00     0.020 C 
BRANCH   5   7
HETATM    7  C6  UNL     1      17.411  33.531  16.309  1.00  0.00     0.222 C 
HETATM    8  N1  UNL     1      16.086  34.074  16.394  1.00  0.00    -0.352 N 
ATOM      9  H1  UNL     1      15.314  33.561  15.967  1.00  0.00     0.163 HD
HETATM   10  O1  UNL     1      18.315  34.186  16.847  1.00  0.00    -0.273 OA
BRANCH   8  11
HETATM   11  C3  UNL     1      15.807  35.321  17.061  1.00  0.00     0.025 C 
HETATM   12  C4  UNL     1      14.336  35.461  17.335  1.00  0.00     0.038 C 
HETATM   13  C5  UNL     1      16.532  35.391  18.403  1.00  0.00     0.038 C 
BRANCH  11  14
HETATM   14  C2  UNL     1      16.278  36.460  16.198  1.00  0.00     0.026 C 
HETATM   15  C1  UNL     1      16.668  37.670  17.004  1.00  0.00     0.007 C 
ENDBRANCH  11  14
ENDBRANCH   8  11
ENDBRANCH   5   7
ENDBRANCH   4   5
ENDBRANCH   2   4
ENDBRANCH   1   2
BRANCH   1  16
HETATM   16  C12 UNL     1      19.966  31.744  12.641  1.00  0.00     0.230 C 
HETATM   17  O3  UNL     1      20.069  32.279  11.516  1.00  0.00    -0.273 OA
HETATM   18  N2  UNL     1      19.676  30.336  12.591  1.00  0.00    -0.348 N 
ATOM     19  H2  UNL     1      19.593  29.810  13.461  1.00  0.00     0.163 HD
BRANCH  18  20
HETATM   20  C13 UNL     1      19.494  29.630  11.289  1.00  0.00     0.165 C 
BRANCH  20  21
HETATM   21  C14 UNL     1      20.581  28.608  11.241  1.00  0.00     0.038 C 
BRANCH  21  22
HETATM   22  C15 UNL     1      21.969  29.003  10.998  1.00  0.00    -0.012 C 
HETATM   23  C16 UNL     1      22.530  28.675   9.671  1.00  0.00     0.005 C 
HETATM   24  C17 UNL     1      24.013  28.288   9.746  1.00  0.00     0.000 C 
HETATM   25  C18 UNL     1      24.281  27.137  10.655  1.00  0.00     0.000 C 
HETATM   26  C19 UNL     1      23.284  27.051  11.777  1.00  0.00     0.000 C 
HETATM   27  C20 UNL     1      22.837  28.447  12.139  1.00  0.00     0.005 C 
ENDBRANCH  21  22
ENDBRANCH  20  21
BRANCH  20  28
HETATM   28  C21 UNL     1      18.112  29.127  11.336  1.00  0.00     0.246 C 
HETATM   29  O4  UNL     1      17.263  29.515  10.452  1.00  0.00    -0.284 OA
BRANCH  28  30
HETATM   30  C22 UNL     1      17.581  28.192  12.313  1.00  0.00     0.331 C 
HETATM   31  O5  UNL     1      17.685  28.468  13.558  1.00  0.00    -0.256 OA
BRANCH  30  32
HETATM   32  O6  UNL     1      16.963  27.014  12.010  1.00  0.00    -0.320 OA
HETATM   33  C23 UNL     1      17.497  25.949  11.276  1.00  0.00     0.213 C 
ENDBRANCH  30  32
ENDBRANCH  28  30
ENDBRANCH  20  28
ENDBRANCH  18  20
ENDBRANCH   1  16
BRANCH   1  34
HETATM   34  C24 UNL     1      21.367  33.056  14.270  1.00  0.00     0.032 C 
HETATM   35  C25 UNL     1      22.524  32.130  13.893  1.00  0.00     0.013 C 
BRANCH  34  36
HETATM   36  C26 UNL     1      21.553  33.621  15.626  1.00  0.00     0.190 C 
HETATM   37  C27 UNL     1      22.998  33.796  16.032  1.00  0.00     0.033 C 
HETATM   38  C28 UNL     1      23.061  34.501  17.369  1.00  0.00     0.004 C 
HETATM   39  C29 UNL     1      22.485  35.873  17.211  1.00  0.00     0.027 C 
HETATM   40  C30 UNL     1      21.622  36.013  15.974  1.00  0.00     0.232 C 
HETATM   41  N3  UNL     1      20.818  34.872  15.723  1.00  0.00    -0.070 N 
ATOM     42  H32 UNL     1      20.252  35.016  14.886  1.00  0.00     0.277 HD
ATOM     43  H31 UNL     1      20.080  34.797  16.423  1.00  0.00     0.277 HD
ENDBRANCH  34  36
ENDBRANCH   1  34
TORSDOF 15
ENDMDL
MODEL 2
REMARK VINA RESULT: -8.708865458      1.129      1.716
REMARK  15 active torsions:
REMARK  status: ('A' for Active; 'I' for Inactive)
REMARK    1  A    between atoms: C2_2  and  C3_3 
REMARK    2  A    between atoms: C3_3  and  N1_6 
REMARK       I    between atoms: N1_6  and  C6_8 
REMARK    3  A    between atoms: C6_8  and  C7_10 
REMARK    4  A    between atoms: C7_10  and  C9_12 
REMARK    5  A    between atoms: C9_12  and  C10_13 
REMARK    6  A    between atoms: C10_13  and  C11_15 
REMARK    7  A    between atoms: C11_15  and  C12_16 
REMARK    8  A    between atoms: C11_15  and  C24_34 
REMARK       I    between atoms: C12_16  and  N2_18 
REMARK    9  A    between atoms: N2_18  and  C13_20 
REMARK   10  A    between atoms: C13_20  and  C14_21 
REMARK   11  A    between atoms: C13_20  and  C21_28 
REMARK   12  A    between atoms: C14_21  and  C15_22 
REMARK   13  A    between atoms: C21_28  and  C22_30 
REMARK   14  A    between atoms: C22_30  and  O6_32 
REMARK   15  A    between atoms: C24_34  and  C26_36 
ROOT
HETATM    1  C11 UNL     1      20.562  32.084  13.858  1.00  0.00     0.153 C 
ENDROOT
BRANCH   1   2
HETATM    2  C10 UNL     1      20.302  31.108  14.990  1.00  0.00     0.141 C 
HETATM    3  O2  UNL     1      21.092  30.210  15.159  1.00  0.00    -0.297 OA
BRANCH   2   4
HETATM    4  C9  UNL     1      19.133  31.235  15.862  1.00  0.00     0.093 C 
BRANCH   4   5
HETATM    5  C7  UNL     1      17.928  31.882  15.274  1.00  0.00     0.081 C 
HETATM    6  C8  UNL     1      16.662  31.080  15.579  1.00  0.00     0.020 C 
BRANCH   5   7
HETATM    7  C6  UNL     1      17.682  33.274  15.577  1.00  0.00     0.222 C 
HETATM    8  N1  UNL     1      16.962  33.634  16.764  1.00  0.00    -0.352 N 
ATOM      9  H1  UNL     1      16.639  32.894  17.388  1.00  0.00     0.163 HD
HETATM   10  O1  UNL     1      18.060  34.207  14.852  1.00  0.00    -0.273 OA
BRANCH   8  11
HETATM   11  C3  UNL     1      16.679  35.005  17.106  1.00  0.00     0.025 C 
HETATM   12  C4  UNL     1      17.895  35.670  17.689  1.00  0.00     0.038 C 
HETATM   13  C5  UNL     1      16.271  35.799  15.868  1.00  0.00     0.038 C 
BRANCH  11  14
HETATM   14  C2  UNL     1      15.549  35.043  18.098  1.00  0.00     0.026 C 
HETATM   15  C1  UNL     1      14.285  35.612  17.510  1.00  0.00     0.007 C 
ENDBRANCH  11  14
ENDBRANCH   8  11
ENDBRANCH   5   7
ENDBRANCH   4   5
ENDBRANCH   2   4
ENDBRANCH   1   2
BRANCH   1  16
HETATM   16  C12 UNL     1      20.775  31.391  12.596  1.00  0.00     0.230 C 
HETATM   17  O3  UNL     1      20.864  31.869  11.444  1.00  0.00    -0.273 OA
HETATM   18  N2  UNL     1      20.902  29.958  12.642  1.00  0.00    -0.348 N 
ATOM     19  H2  UNL     1      20.861  29.481  13.543  1.00  0.00     0.163 HD
BRANCH  18  20
HETATM   20  C13 UNL     1      21.092  29.158  11.398  1.00  0.00     0.165 C 
BRANCH  20  21
HETATM   21  C14 UNL     1      22.252  28.262  11.680  1.00  0.00     0.038 C 
BRANCH  21  22
HETATM   22  C15 UNL     1      23.399  28.215  10.773  1.00  0.00    -0.012 C 
HETATM   23  C16 UNL     1      23.230  27.434   9.530  1.00  0.00     0.005 C 
HETATM   24  C17 UNL     1      24.519  26.712   9.117  1.00  0.00     0.000 C 
HETATM   25  C18 UNL     1      25.047  25.793  10.167  1.00  0.00     0.000 C 
HETATM   26  C19 UNL     1      24.690  26.249  11.555  1.00  0.00     0.000 C 
HETATM   27  C20 UNL     1      24.630  27.757  11.572  1.00  0.00     0.005 C 
ENDBRANCH  21  22
ENDBRANCH  20  21
BRANCH  20  28
HETATM   28  C21 UNL     1      19.790  28.510  11.177  1.00  0.00     0.246 C 
HETATM   29  O4  UNL     1      19.745  27.323  10.685  1.00  0.00    -0.284 OA
BRANCH  28  30
HETATM   30  C22 UNL     1      18.491  29.089  11.476  1.00  0.00     0.331 C 
HETATM   31  O5  UNL     1      17.817  29.625  10.530  1.00  0.00    -0.256 OA
BRANCH  30  32
HETATM   32  O6  UNL     1      17.912  29.109  12.711  1.00  0.00    -0.320 OA
HETATM   33  C23 UNL     1      17.918  28.081  13.660  1.00  0.00     0.213 C 
ENDBRANCH  30  32
ENDBRANCH  28  30
ENDBRANCH  20  28
ENDBRANCH  18  20
ENDBRANCH   1  16
BRANCH   1  34
HETATM   34  C24 UNL     1      21.633  32.995  14.337  1.00  0.00     0.032 C 
HETATM   35  C25 UNL     1      22.973  32.281  14.159  1.00  0.00     0.013 C 
BRANCH  34  36
HETATM   36  C26 UNL     1      21.514  33.584  15.690  1.00  0.00     0.190 C 
HETATM   37  C27 UNL     1      22.823  33.684  16.439  1.00  0.00     0.033 C 
HETATM   38  C28 UNL     1      22.600  34.421  17.741  1.00  0.00     0.004 C 
HETATM   39  C29 UNL     1      22.170  35.819  17.430  1.00  0.00     0.027 C 
HETATM   40  C30 UNL     1      21.648  35.976  16.016  1.00  0.00     0.232 C 
HETATM   41  N3  UNL     1      20.860  34.879  15.587  1.00  0.00    -0.070 N 
ATOM     42  H32 UNL     1      20.527  35.033  14.635  1.00  0.00     0.277 HD
ATOM     43  H31 UNL     1      19.969  34.866  16.084  1.00  0.00     0.277 HD
ENDBRANCH  34  36
ENDBRANCH   1  34
TORSDOF 15
ENDMDL
MODEL 3
REMARK VINA RESULT: -8.705591643      1.884      7.676
REMARK  15 active torsions:
REMARK  status: ('A' for Active; 'I' for Inactive)
REMARK    1  A    between atoms: C2_2  and  C3_3 
REMARK    2  A    between atoms: C3_3  and  N1_6 
REMARK       I    between atoms: N1_6  and  C6_8 
REMARK    3  A    between atoms: C6_8  and  C7_10 
REMARK    4  A    between atoms: C7_10  and  C9_12 
REMARK    5  A    between atoms: C9_12  and  C10_13 
REMARK    6  A    between atoms: C10_13  and  C11_15 
REMARK    7  A    between atoms: C11_15  and  C12_16 
REMARK    8  A    between atoms: C11_15  and  C24_34 
REMARK       I    between atoms: C12_16  and  N2_18 
REMARK    9  A    between atoms: N2_18  and  C13_20 
REMARK   10  A    between atoms: C13_20  and  C14_21 
REMARK   11  A    between atoms: C13_20  and  C21_28 
REMARK   12  A    between atoms: C14_21  and  C15_22 
REMARK   13  A    between atoms: C21_28  and  C22_30 
REMARK   14  A    between atoms: C22_30  and  O6_32 
REMARK   15  A    between atoms: C24_34  and  C26_36 
ROOT
HETATM    1  C11 UNL     1      21.768  31.608  15.032  1.00  0.00     0.153 C 
ENDROOT
BRANCH   1   2
HETATM    2  C10 UNL     1      22.186  31.126  13.655  1.00  0.00     0.141 C 
HETATM    3  O2  UNL     1      21.730  31.693  12.690  1.00  0.00    -0.297 OA
BRANCH   2   4
HETATM    4  C9  UNL     1      23.112  30.006  13.482  1.00  0.00     0.093 C 
BRANCH   4   5
HETATM    5  C7  UNL     1      22.528  28.722  13.005  1.00  0.00     0.081 C 
HETATM    6  C8  UNL     1      21.115  28.517  13.553  1.00  0.00     0.020 C 
BRANCH   5   7
HETATM    7  C6  UNL     1      22.520  28.460  11.583  1.00  0.00     0.222 C 
HETATM    8  N1  UNL     1      23.534  27.628  11.002  1.00  0.00    -0.352 N 
ATOM      9  H1  UNL     1      24.247  27.224  11.609  1.00  0.00     0.163 HD
HETATM   10  O1  UNL     1      21.671  28.925  10.809  1.00  0.00    -0.273 OA
BRANCH   8  11
HETATM   11  C3  UNL     1      23.580  27.345   9.590  1.00  0.00     0.025 C 
HETATM   12  C4  UNL     1      22.346  26.604   9.155  1.00  0.00     0.038 C 
HETATM   13  C5  UNL     1      23.649  28.637   8.780  1.00  0.00     0.038 C 
BRANCH  11  14
HETATM   14  C2  UNL     1      24.803  26.522   9.290  1.00  0.00     0.026 C 
HETATM   15  C1  UNL     1      25.746  26.444  10.462  1.00  0.00     0.007 C 
ENDBRANCH  11  14
ENDBRANCH   8  11
ENDBRANCH   5   7
ENDBRANCH   4   5
ENDBRANCH   2   4
ENDBRANCH   1   2
BRANCH   1  16
HETATM   16  C12 UNL     1      20.416  31.179  15.357  1.00  0.00     0.230 C 
HETATM   17  O3  UNL     1      20.013  30.558  16.365  1.00  0.00    -0.273 OA
HETATM   18  N2  UNL     1      19.377  31.492  14.413  1.00  0.00    -0.348 N 
ATOM     19  H2  UNL     1      19.609  32.013  13.568  1.00  0.00     0.163 HD
BRANCH  18  20
HETATM   20  C13 UNL     1      17.966  31.066  14.646  1.00  0.00     0.165 C 
BRANCH  20  21
HETATM   21  C14 UNL     1      17.151  32.306  14.489  1.00  0.00     0.038 C 
BRANCH  21  22
HETATM   22  C15 UNL     1      17.463  33.509  15.260  1.00  0.00    -0.012 C 
HETATM   23  C16 UNL     1      17.855  33.311  16.670  1.00  0.00     0.005 C 
HETATM   24  C17 UNL     1      17.335  34.430  17.582  1.00  0.00     0.000 C 
HETATM   25  C18 UNL     1      15.853  34.591  17.537  1.00  0.00     0.000 C 
HETATM   26  C19 UNL     1      15.276  34.188  16.208  1.00  0.00     0.000 C 
HETATM   27  C20 UNL     1      16.285  34.489  15.127  1.00  0.00     0.005 C 
ENDBRANCH  21  22
ENDBRANCH  20  21
BRANCH  20  28
HETATM   28  C21 UNL     1      17.741  29.994  13.664  1.00  0.00     0.246 C 
HETATM   29  O4  UNL     1      17.556  28.788  14.069  1.00  0.00    -0.284 OA
BRANCH  28  30
HETATM   30  C22 UNL     1      17.695  30.160  12.221  1.00  0.00     0.331 C 
HETATM   31  O5  UNL     1      18.700  30.677  11.622  1.00  0.00    -0.256 OA
BRANCH  30  32
HETATM   32  O6  UNL     1      16.645  29.801  11.427  1.00  0.00    -0.320 OA
HETATM   33  C23 UNL     1      16.711  29.174  10.178  1.00  0.00     0.213 C 
ENDBRANCH  30  32
ENDBRANCH  28  30
ENDBRANCH  20  28
ENDBRANCH  18  20
ENDBRANCH   1  16
BRANCH   1  34
HETATM   34  C24 UNL     1      22.058  33.065  15.062  1.00  0.00     0.032 C 
HETATM   35  C25 UNL     1      23.565  33.248  14.883  1.00  0.00     0.013 C 
BRANCH  34  36
HETATM   36  C26 UNL     1      21.552  33.868  16.199  1.00  0.00     0.190 C 
HETATM   37  C27 UNL     1      22.574  34.123  17.281  1.00  0.00     0.033 C 
HETATM   38  C28 UNL     1      21.988  35.061  18.314  1.00  0.00     0.004 C 
HETATM   39  C29 UNL     1      21.711  36.377  17.659  1.00  0.00     0.027 C 
HETATM   40  C30 UNL     1      21.647  36.284  16.148  1.00  0.00     0.232 C 
HETATM   41  N3  UNL     1      20.995  35.111  15.688  1.00  0.00    -0.070 N 
ATOM     42  H32 UNL     1      20.971  35.096  14.668  1.00  0.00     0.277 HD
ATOM     43  H31 UNL     1      19.996  35.160  15.887  1.00  0.00     0.277 HD
ENDBRANCH  34  36
ENDBRANCH   1  34
TORSDOF 15
ENDMDL
MODEL 4
REMARK VINA RESULT: -8.703689561      1.859      7.383
REMARK  15 active torsions:
REMARK  status: ('A' for Active; 'I' for Inactive)
REMARK    1  A    between atoms: C2_2  and  C3_3 
REMARK    2  A    between atoms: C3_3  and  N1_6 
REMARK       I    between atoms: N1_6  and  C6_8 
REMARK    3  A    between atoms: C6_8  and  C7_10 
REMARK    4  A    between atoms: C7_10  and  C9_12 
REMARK    5  A    between atoms: C9_12  and  C10_13 
REMARK    6  A    between atoms: C10_13  and  C11_15 
REMARK    7  A    between atoms: C11_15  and  C12_16 
REMARK    8  A    between atoms: C11_15  and  C24_34 
REMARK       I    between atoms: C12_16  and  N2_18 
REMARK    9  A    between atoms: N2_18  and  C13_20 
REMARK   10  A    between atoms: C13_20  and  C14_21 
REMARK   11  A    between atoms: C13_20  and  C21_28 
REMARK   12  A    between atoms: C14_21  and  C15_22 
REMARK   13  A    between atoms: C21_28  and  C22_30 
REMARK   14  A    between atoms: C22_30  and  O6_32 
REMARK   15  A    between atoms: C24_34  and  C26_36 
ROOT
HETATM    1  C11 UNL     1      21.683  30.869  14.766  1.00  0.00     0.153 C 
ENDROOT
BRANCH   1   2
HETATM    2  C10 UNL     1      22.073  30.320  13.407  1.00  0.00     0.141 C 
HETATM    3  O2  UNL     1      21.872  31.011  12.435  1.00  0.00    -0.297 OA
BRANCH   2   4
HETATM    4  C9  UNL     1      22.676  28.995  13.256  1.00  0.00     0.093 C 
BRANCH   4   5
HETATM    5  C7  UNL     1      22.945  28.537  11.865  1.00  0.00     0.081 C 
HETATM    6  C8  UNL     1      24.235  27.719  11.788  1.00  0.00     0.020 C 
BRANCH   5   7
HETATM    7  C6  UNL     1      21.899  27.826  11.165  1.00  0.00     0.222 C 
HETATM    8  N1  UNL     1      21.665  26.438  11.443  1.00  0.00    -0.352 N 
ATOM      9  H1  UNL     1      22.240  25.972  12.145  1.00  0.00     0.163 HD
HETATM   10  O1  UNL     1      21.173  28.351  10.308  1.00  0.00    -0.273 OA
BRANCH   8  11
HETATM   11  C3  UNL     1      20.645  25.679  10.765  1.00  0.00     0.025 C 
HETATM   12  C4  UNL     1      20.850  25.721   9.277  1.00  0.00     0.038 C 
HETATM   13  C5  UNL     1      20.685  24.214  11.192  1.00  0.00     0.038 C 
BRANCH  11  14
HETATM   14  C2  UNL     1      19.295  26.245  11.112  1.00  0.00     0.026 C 
HETATM   15  C1  UNL     1      18.223  25.188  11.165  1.00  0.00     0.007 C 
ENDBRANCH  11  14
ENDBRANCH   8  11
ENDBRANCH   5   7
ENDBRANCH   4   5
ENDBRANCH   2   4
ENDBRANCH   1   2
BRANCH   1  16
HETATM   16  C12 UNL     1      20.314  30.517  15.109  1.00  0.00     0.230 C 
HETATM   17  O3  UNL     1      19.840  30.204  16.223  1.00  0.00    -0.273 OA
HETATM   18  N2  UNL     1      19.345  30.516  14.045  1.00  0.00    -0.348 N 
ATOM     19  H2  UNL     1      19.636  30.777  13.103  1.00  0.00     0.163 HD
BRANCH  18  20
HETATM   20  C13 UNL     1      17.924  30.139  14.293  1.00  0.00     0.165 C 
BRANCH  20  21
HETATM   21  C14 UNL     1      17.172  31.428  14.305  1.00  0.00     0.038 C 
BRANCH  21  22
HETATM   22  C15 UNL     1      16.974  32.167  15.553  1.00  0.00    -0.012 C 
HETATM   23  C16 UNL     1      15.580  32.339  16.009  1.00  0.00     0.005 C 
HETATM   24  C17 UNL     1      15.350  33.700  16.679  1.00  0.00     0.000 C 
HETATM   25  C18 UNL     1      15.693  34.858  15.804  1.00  0.00     0.000 C 
HETATM   26  C19 UNL     1      16.778  34.526  14.818  1.00  0.00     0.000 C 
HETATM   27  C20 UNL     1      17.709  33.513  15.440  1.00  0.00     0.005 C 
ENDBRANCH  21  22
ENDBRANCH  20  21
BRANCH  20  28
HETATM   28  C21 UNL     1      17.602  29.193  13.213  1.00  0.00     0.246 C 
HETATM   29  O4  UNL     1      17.402  27.953  13.490  1.00  0.00    -0.284 OA
BRANCH  28  30
HETATM   30  C22 UNL     1      17.473  29.525  11.804  1.00  0.00     0.331 C 
HETATM   31  O5  UNL     1      18.486  29.997  11.181  1.00  0.00    -0.256 OA
BRANCH  30  32
HETATM   32  O6  UNL     1      16.335  29.371  11.067  1.00  0.00    -0.320 OA
HETATM   33  C23 UNL     1      15.903  28.208  10.420  1.00  0.00     0.213 C 
ENDBRANCH  30  32
ENDBRANCH  28  30
ENDBRANCH  20  28
ENDBRANCH  18  20
ENDBRANCH   1  16
BRANCH   1  34
HETATM   34  C24 UNL     1      22.044  32.310  14.748  1.00  0.00     0.032 C 
HETATM   35  C25 UNL     1      23.546  32.416  14.482  1.00  0.00     0.013 C 
BRANCH  34  36
HETATM   36  C26 UNL     1      21.640  33.160  15.891  1.00  0.00     0.190 C 
HETATM   37  C27 UNL     1      22.754  33.451  16.870  1.00  0.00     0.033 C 
HETATM   38  C28 UNL     1      22.261  34.431  17.912  1.00  0.00     0.004 C 
HETATM   39  C29 UNL     1      21.933  35.723  17.232  1.00  0.00     0.027 C 
HETATM   40  C30 UNL     1      21.737  35.571  15.737  1.00  0.00     0.232 C 
HETATM   41  N3  UNL     1      21.045  34.385  15.382  1.00  0.00    -0.070 N 
ATOM     42  H32 UNL     1      20.932  34.331  14.370  1.00  0.00     0.277 HD
ATOM     43  H31 UNL     1      20.067  34.448  15.665  1.00  0.00     0.277 HD
ENDBRANCH  34  36
ENDBRANCH   1  34
TORSDOF 15
ENDMDL
MODEL 5
REMARK VINA RESULT: -8.633545148      1.967      5.564
REMARK  15 active torsions:
REMARK  status: ('A' for Active; 'I' for Inactive)
REMARK    1  A    between atoms: C2_2  and  C3_3 
REMARK    2  A    between atoms: C3_3  and  N1_6 
REMARK       I    between atoms: N1_6  and  C6_8 
REMARK    3  A    between atoms: C6_8  and  C7_10 
REMARK    4  A    between atoms: C7_10  and  C9_12 
REMARK    5  A    between atoms: C9_12  and  C10_13 
REMARK    6  A    between atoms: C10_13  and  C11_15 
REMARK    7  A    between atoms: C11_15  and  C12_16 
REMARK    8  A    between atoms: C11_15  and  C24_34 
REMARK       I    between atoms: C12_16  and  N2_18 
REMARK    9  A    between atoms: N2_18  and  C13_20 
REMARK   10  A    between atoms: C13_20  and  C14_21 
REMARK   11  A    between atoms: C13_20  and  C21_28 
REMARK   12  A    between atoms: C14_21  and  C15_22 
REMARK   13  A    between atoms: C21_28  and  C22_30 
REMARK   14  A    between atoms: C22_30  and  O6_32 
REMARK   15  A    between atoms: C24_34  and  C26_36 
ROOT
HETATM    1  C11 UNL     1      18.492  29.042  14.115  1.00  0.00     0.153 C 
ENDROOT
BRANCH   1   2
HETATM    2  C10 UNL     1      17.844  30.413  14.117  1.00  0.00     0.141 C 
HETATM    3  O2  UNL     1      17.557  30.910  13.053  1.00  0.00    -0.297 OA
BRANCH   2   4
HETATM    4  C9  UNL     1      17.566  31.131  15.363  1.00  0.00     0.093 C 
BRANCH   4   5
HETATM    5  C7  UNL     1      16.676  32.320  15.265  1.00  0.00     0.081 C 
HETATM    6  C8  UNL     1      15.253  31.988  15.717  1.00  0.00     0.020 C 
BRANCH   5   7
HETATM    7  C6  UNL     1      17.096  33.544  15.909  1.00  0.00     0.222 C 
HETATM    8  N1  UNL     1      16.218  34.210  16.827  1.00  0.00    -0.352 N 
ATOM      9  H1  UNL     1      15.304  33.800  17.020  1.00  0.00     0.163 HD
HETATM   10  O1  UNL     1      18.198  34.077  15.709  1.00  0.00    -0.273 OA
BRANCH   8  11
HETATM   11  C3  UNL     1      16.582  35.439  17.486  1.00  0.00     0.025 C 
HETATM   12  C4  UNL     1      17.756  35.226  18.399  1.00  0.00     0.038 C 
HETATM   13  C5  UNL     1      16.980  36.503  16.466  1.00  0.00     0.038 C 
BRANCH  11  14
HETATM   14  C2  UNL     1      15.404  35.944  18.274  1.00  0.00     0.026 C 
HETATM   15  C1  UNL     1      14.099  35.742  17.553  1.00  0.00     0.007 C 
ENDBRANCH  11  14
ENDBRANCH   8  11
ENDBRANCH   5   7
ENDBRANCH   4   5
ENDBRANCH   2   4
ENDBRANCH   1   2
BRANCH   1  16
HETATM   16  C12 UNL     1      19.944  29.140  14.119  1.00  0.00     0.230 C 
HETATM   17  O3  UNL     1      20.775  28.434  14.731  1.00  0.00    -0.273 OA
HETATM   18  N2  UNL     1      20.539  30.183  13.327  1.00  0.00    -0.348 N 
ATOM     19  H2  UNL     1      19.939  30.798  12.777  1.00  0.00     0.163 HD
BRANCH  18  20
HETATM   20  C13 UNL     1      22.017  30.381  13.293  1.00  0.00     0.165 C 
BRANCH  20  21
HETATM   21  C14 UNL     1      22.440  29.951  11.928  1.00  0.00     0.038 C 
BRANCH  21  22
HETATM   22  C15 UNL     1      22.481  28.533  11.569  1.00  0.00    -0.012 C 
HETATM   23  C16 UNL     1      23.709  27.793  11.923  1.00  0.00     0.005 C 
HETATM   24  C17 UNL     1      24.077  26.739  10.871  1.00  0.00     0.000 C 
HETATM   25  C18 UNL     1      24.261  27.305   9.504  1.00  0.00     0.000 C 
HETATM   26  C19 UNL     1      23.420  28.530   9.276  1.00  0.00     0.000 C 
HETATM   27  C20 UNL     1      22.146  28.402  10.074  1.00  0.00     0.005 C 
ENDBRANCH  21  22
ENDBRANCH  20  21
BRANCH  20  28
HETATM   28  C21 UNL     1      22.203  31.801  13.629  1.00  0.00     0.246 C 
HETATM   29  O4  UNL     1      21.570  32.702  12.964  1.00  0.00    -0.284 OA
BRANCH  28  30
HETATM   30  C22 UNL     1      23.058  32.320  14.684  1.00  0.00     0.331 C 
HETATM   31  O5  UNL     1      24.180  32.849  14.370  1.00  0.00    -0.256 OA
BRANCH  30  32
HETATM   32  O6  UNL     1      22.760  32.292  16.015  1.00  0.00    -0.320 OA
HETATM   33  C23 UNL     1      21.485  32.323  16.591  1.00  0.00     0.213 C 
ENDBRANCH  30  32
ENDBRANCH  28  30
ENDBRANCH  20  28
ENDBRANCH  18  20
ENDBRANCH   1  16
BRANCH   1  34
HETATM   34  C24 UNL     1      17.853  28.287  13.007  1.00  0.00     0.032 C 
HETATM   35  C25 UNL     1      17.161  27.063  13.608  1.00  0.00     0.013 C 
BRANCH  34  36
HETATM   36  C26 UNL     1      18.674  27.914  11.832  1.00  0.00     0.190 C 
HETATM   37  C27 UNL     1      18.422  26.515  11.318  1.00  0.00     0.033 C 
HETATM   38  C28 UNL     1      19.211  26.300  10.046  1.00  0.00     0.004 C 
HETATM   39  C29 UNL     1      18.700  27.243   9.003  1.00  0.00     0.027 C 
HETATM   40  C30 UNL     1      17.919  28.403   9.588  1.00  0.00     0.232 C 
HETATM   41  N3  UNL     1      18.483  28.907  10.787  1.00  0.00    -0.070 N 
ATOM     42  H32 UNL     1      17.928  29.688  11.138  1.00  0.00     0.277 HD
ATOM     43  H31 UNL     1      19.360  29.389  10.591  1.00  0.00     0.277 HD
ENDBRANCH  34  36
ENDBRANCH   1  34
TORSDOF 15
ENDMDL
