MODEL 1
REMARK VINA RESULT: -8.733897147      0.000      0.000
REMARK  13 active torsions:
REMARK  status: ('A' for Active; 'I' for Inactive)
REMARK    1  A    between atoms: C2_2  and  C3_3 
REMARK    2  A    between atoms: C3_3  and  C4_4 
REMARK    3  A    between atoms: C4_4  and  C5_5 
REMARK    4  A    between atoms: C5_5  and  N1_6 
REMARK    5  A    between atoms: N1_6  and  C6_8 
REMARK    6  A    between atoms: C7_11  and  N3_12 
REMARK    7  A    between atoms: N4_15  and  C10_16 
REMARK    8  A    between atoms: C10_16  and  C11_17 
REMARK    9  A    between atoms: C11_17  and  O1_18 
REMARK   10  A    between atoms: C17_26  and  N6_27 
REMARK   11  A    between atoms: N6_27  and  C18_29 
REMARK   12  A    between atoms: C23_36  and  C24_37 
REMARK   13  A    between atoms: C30_45  and  O2_46 
ROOT
HETATM    1  C6  UNL     1      20.892  31.156  15.077  1.00  0.00     0.153 C 
HETATM    2  N2  UNL     1      19.806  31.762  15.600  1.00  0.00    -0.174 N 
ATOM      3  H2  UNL     1      20.000  32.630  16.099  1.00  0.00     0.186 HD
HETATM    4  C7  UNL     1      18.502  31.405  15.570  1.00  0.00     0.682 C 
HETATM    5  N5  UNL     1      17.937  30.314  14.997  1.00  0.00    -0.189 N 
ATOM      6  H5  UNL     1      16.951  30.173  15.212  1.00  0.00     0.184 HD
HETATM    7  C15 UNL     1      18.489  29.384  14.182  1.00  0.00     0.082 A 
HETATM    8  C16 UNL     1      17.865  28.304  13.605  1.00  0.00     0.081 A 
HETATM    9  C17 UNL     1      18.802  27.615  12.847  1.00  0.00     0.108 A 
HETATM   10  N8  UNL     1      19.982  28.244  12.946  1.00  0.00    -0.338 N 
ATOM     11  H8  UNL     1      20.839  27.941  12.483  1.00  0.00     0.167 HD
HETATM   12  C29 UNL     1      19.886  29.324  13.732  1.00  0.00     0.099 A 
HETATM   13  C30 UNL     1      20.903  30.206  14.057  1.00  0.00     0.141 C 
ENDROOT
BRANCH   9  14
HETATM   14  N6  UNL     1      18.542  26.555  12.180  1.00  0.00    -0.342 N 
ATOM     15  H6  UNL     1      17.770  25.956  12.476  1.00  0.00     0.167 HD
BRANCH  14  16
HETATM   16  C18 UNL     1      19.310  26.188  11.025  1.00  0.00     0.040 A 
HETATM   17  C19 UNL     1      20.562  25.693  11.218  1.00  0.00     0.032 A 
HETATM   18  C20 UNL     1      21.297  25.340  10.108  1.00  0.00     0.033 A 
HETATM   19  C21 UNL     1      20.764  25.488   8.836  1.00  0.00     0.043 A 
HETATM   20  N7  UNL     1      21.275  25.217   7.621  1.00  0.00    -0.365 N 
HETATM   21  C26 UNL     1      19.465  26.004   8.668  1.00  0.00     0.006 A 
HETATM   22  C22 UNL     1      20.372  25.532   6.699  1.00  0.00     0.096 A 
ATOM     23  H7  UNL     1      22.202  24.833   7.438  1.00  0.00     0.165 HD
HETATM   24  C23 UNL     1      19.213  26.033   7.317  1.00  0.00    -0.030 A 
HETATM   25  C27 UNL     1      18.716  26.362   9.767  1.00  0.00    -0.022 A 
HETATM   26  C28 UNL     1      17.362  26.898   9.630  1.00  0.00     0.051 C 
BRANCH  24  27
HETATM   27  C24 UNL     1      17.995  26.501   6.640  1.00  0.00     0.036 C 
HETATM   28  C25 UNL     1      18.092  27.848   5.996  1.00  0.00     0.010 C 
ENDBRANCH  24  27
ENDBRANCH  14  16
ENDBRANCH   9  14
BRANCH  13  29
HETATM   29  O2  UNL     1      22.020  30.108  13.273  1.00  0.00    -0.350 OA
HETATM   30  C31 UNL     1      22.789  28.934  13.110  1.00  0.00     0.210 C 
ENDBRANCH  13  29
BRANCH   4  31
HETATM   31  N3  UNL     1      17.622  32.304  16.232  1.00  0.00    -0.214 N 
HETATM   32  C8  UNL     1      18.242  33.391  16.986  1.00  0.00     0.171 C 
HETATM   33  C9  UNL     1      17.156  34.094  17.770  1.00  0.00     0.293 C 
HETATM   34  N4  UNL     1      16.103  34.586  16.901  1.00  0.00     0.093 N 
HETATM   35  C13 UNL     1      15.480  33.529  16.147  1.00  0.00     0.293 C 
HETATM   36  C14 UNL     1      16.195  32.219  16.213  1.00  0.00     0.171 C 
BRANCH  34  37
HETATM   37  C10 UNL     1      15.169  35.302  17.754  1.00  0.00     0.298 C 
BRANCH  37  38
HETATM   38  C11 UNL     1      15.846  36.235  18.696  1.00  0.00     0.197 C 
BRANCH  38  39
HETATM   39  O1  UNL     1      15.585  37.543  18.332  1.00  0.00    -0.394 OA
HETATM   40  C12 UNL     1      16.621  38.104  17.601  1.00  0.00     0.201 C 
ENDBRANCH  38  39
ENDBRANCH  37  38
ENDBRANCH  34  37
ENDBRANCH   4  31
BRANCH   1  41
HETATM   41  N1  UNL     1      22.063  31.436  15.519  1.00  0.00    -0.373 N 
ATOM     42  H1  UNL     1      22.705  30.655  15.653  1.00  0.00     0.161 HD
BRANCH  41  43
HETATM   43  C5  UNL     1      22.554  32.739  15.843  1.00  0.00     0.121 C 
BRANCH  43  44
HETATM   44  C4  UNL     1      22.691  32.924  17.345  1.00  0.00     0.020 C 
BRANCH  44  45
HETATM   45  C3  UNL     1      21.956  34.161  17.750  1.00  0.00     0.001 C 
BRANCH  45  46
HETATM   46  C2  UNL     1      21.640  34.991  16.520  1.00  0.00    -0.004 C 
HETATM   47  C1  UNL     1      21.550  36.458  16.861  1.00  0.00     0.005 C 
ENDBRANCH  45  46
ENDBRANCH  44  45
ENDBRANCH  43  44
ENDBRANCH  41  43
ENDBRANCH   1  41
TORSDOF 13
ENDMDL
MODEL 2
REMARK VINA RESULT: -8.635732319      2.726      4.740
REMARK  13 active torsions:
REMARK  status: ('A' for Active; 'I' for Inactive)
REMARK    1  A    between atoms: C2_2  and  C3_3 
REMARK    2  A    between atoms: C3_3  and  C4_4 
REMARK    3  A    between atoms: C4_4  and  C5_5 
REMARK    4  A    between atoms: C5_5  and  N1_6 
REMARK    5  A    between atoms: N1_6  and  C6_8 
REMARK    6  A    between atoms: C7_11  and  N3_12 
REMARK    7  A    between atoms: N4_15  and  C10_16 
REMARK    8  A    between atoms: C10_16  and  C11_17 
REMARK    9  A    between atoms: C11_17  and  O1_18 
REMARK   10  A    between atoms: C17_26  and  N6_27 
REMARK   11  A    between atoms: N6_27  and  C18_29 
REMARK   12  A    between atoms: C23_36  and  C24_37 
REMARK   13  A    between atoms: C30_45  and  O2_46 
ROOT
HETATM    1  C6  UNL     1      21.370  34.891  18.060  1.00  0.00     0.153 C 
HETATM    2  N2  UNL     1      20.182  35.529  18.057  1.00  0.00    -0.174 N 
ATOM      3  H2  UNL     1      20.226  36.516  18.310  1.00  0.00     0.186 HD
HETATM    4  C7  UNL     1      18.940  35.073  17.773  1.00  0.00     0.682 C 
HETATM    5  N5  UNL     1      18.562  33.821  17.415  1.00  0.00    -0.189 N 
ATOM      6  H5  UNL     1      17.555  33.665  17.379  1.00  0.00     0.184 HD
HETATM    7  C15 UNL     1      19.323  32.747  17.099  1.00  0.00     0.082 A 
HETATM    8  C16 UNL     1      18.889  31.499  16.718  1.00  0.00     0.081 A 
HETATM    9  C17 UNL     1      20.003  30.703  16.490  1.00  0.00     0.108 A 
HETATM   10  N8  UNL     1      21.106  31.429  16.721  1.00  0.00    -0.338 N 
ATOM     11  H8  UNL     1      22.059  31.078  16.626  1.00  0.00     0.167 HD
HETATM   12  C29 UNL     1      20.791  32.676  17.094  1.00  0.00     0.099 A 
HETATM   13  C30 UNL     1      21.672  33.695  17.412  1.00  0.00     0.141 C 
ENDROOT
BRANCH   9  14
HETATM   14  N6  UNL     1      19.944  29.479  16.121  1.00  0.00    -0.342 N 
ATOM     15  H6  UNL     1      19.655  28.769  16.795  1.00  0.00     0.167 HD
BRANCH  14  16
HETATM   16  C18 UNL     1      20.273  29.082  14.783  1.00  0.00     0.040 A 
HETATM   17  C19 UNL     1      21.588  29.004  14.442  1.00  0.00     0.032 A 
HETATM   18  C20 UNL     1      21.902  28.621  13.157  1.00  0.00     0.033 A 
HETATM   19  C21 UNL     1      20.897  28.325  12.246  1.00  0.00     0.043 A 
HETATM   20  N7  UNL     1      20.951  27.933  10.960  1.00  0.00    -0.365 N 
HETATM   21  C26 UNL     1      19.546  28.416  12.628  1.00  0.00     0.006 A 
HETATM   22  C22 UNL     1      19.711  27.773  10.511  1.00  0.00     0.096 A 
ATOM     23  H7  UNL     1      21.803  27.785  10.419  1.00  0.00     0.165 HD
HETATM   24  C23 UNL     1      18.792  28.067  11.533  1.00  0.00    -0.030 A 
HETATM   25  C27 UNL     1      19.214  28.797  13.909  1.00  0.00    -0.022 A 
HETATM   26  C28 UNL     1      17.820  28.899  14.341  1.00  0.00     0.051 C 
BRANCH  24  27
HETATM   27  C24 UNL     1      17.327  28.019  11.430  1.00  0.00     0.036 C 
HETATM   28  C25 UNL     1      16.676  29.259  10.902  1.00  0.00     0.010 C 
ENDBRANCH  24  27
ENDBRANCH  14  16
ENDBRANCH   9  14
BRANCH  13  29
HETATM   29  O2  UNL     1      22.969  33.470  17.035  1.00  0.00    -0.350 OA
HETATM   30  C31 UNL     1      23.450  33.560  15.710  1.00  0.00     0.210 C 
ENDBRANCH  13  29
BRANCH   4  31
HETATM   31  N3  UNL     1      17.910  36.046  17.867  1.00  0.00    -0.214 N 
HETATM   32  C8  UNL     1      16.599  35.572  18.304  1.00  0.00     0.171 C 
HETATM   33  C9  UNL     1      15.612  36.706  18.138  1.00  0.00     0.293 C 
HETATM   34  N4  UNL     1      16.023  37.884  18.879  1.00  0.00     0.093 N 
HETATM   35  C13 UNL     1      17.315  38.367  18.465  1.00  0.00     0.293 C 
HETATM   36  C14 UNL     1      18.063  37.435  17.569  1.00  0.00     0.171 C 
BRANCH  34  37
HETATM   37  C10 UNL     1      14.965  38.867  18.705  1.00  0.00     0.298 C 
BRANCH  37  38
HETATM   38  C11 UNL     1      15.405  40.251  19.031  1.00  0.00     0.197 C 
BRANCH  38  39
HETATM   39  O1  UNL     1      14.589  40.786  20.010  1.00  0.00    -0.394 OA
HETATM   40  C12 UNL     1      15.045  40.504  21.289  1.00  0.00     0.201 C 
ENDBRANCH  38  39
ENDBRANCH  37  38
ENDBRANCH  34  37
ENDBRANCH   4  31
BRANCH   1  41
HETATM   41  N1  UNL     1      22.364  35.381  18.707  1.00  0.00    -0.373 N 
ATOM     42  H1  UNL     1      23.067  34.722  19.042  1.00  0.00     0.161 HD
BRANCH  41  43
HETATM   43  C5  UNL     1      22.579  36.762  19.004  1.00  0.00     0.121 C 
BRANCH  43  44
HETATM   44  C4  UNL     1      22.822  36.980  20.489  1.00  0.00     0.020 C 
BRANCH  44  45
HETATM   45  C3  UNL     1      23.047  35.655  21.142  1.00  0.00     0.001 C 
BRANCH  45  46
HETATM   46  C2  UNL     1      24.443  35.610  21.734  1.00  0.00    -0.004 C 
HETATM   47  C1  UNL     1      24.904  36.984  22.152  1.00  0.00     0.005 C 
ENDBRANCH  45  46
ENDBRANCH  44  45
ENDBRANCH  43  44
ENDBRANCH  41  43
ENDBRANCH   1  41
TORSDOF 13
ENDMDL
MODEL 3
REMARK VINA RESULT: -8.617356875      1.149      2.024
REMARK  13 active torsions:
REMARK  status: ('A' for Active; 'I' for Inactive)
REMARK    1  A    between atoms: C2_2  and  C3_3 
REMARK    2  A    between atoms: C3_3  and  C4_4 
REMARK    3  A    between atoms: C4_4  and  C5_5 
REMARK    4  A    between atoms: C5_5  and  N1_6 
REMARK    5  A    between atoms: N1_6  and  C6_8 
REMARK    6  A    between atoms: C7_11  and  N3_12 
REMARK    7  A    between atoms: N4_15  and  C10_16 
REMARK    8  A    between atoms: C10_16  and  C11_17 
REMARK    9  A    between atoms: C11_17  and  O1_18 
REMARK   10  A    between atoms: C17_26  and  N6_27 
REMARK   11  A    between atoms: N6_27  and  C18_29 
REMARK   12  A    between atoms: C23_36  and  C24_37 
REMARK   13  A    between atoms: C30_45  and  O2_46 
ROOT
HETATM    1  C6  UNL     1      21.191  30.870  14.452  1.00  0.00     0.153 C 
HETATM    2  N2  UNL     1      20.155  31.590  14.928  1.00  0.00    -0.174 N 
ATOM      3  H2  UNL     1      20.417  32.455  15.401  1.00  0.00     0.186 HD
HETATM    4  C7  UNL     1      18.824  31.354  14.880  1.00  0.00     0.682 C 
HETATM    5  N5  UNL     1      18.173  30.298  14.332  1.00  0.00    -0.189 N 
ATOM      6  H5  UNL     1      17.173  30.255  14.528  1.00  0.00     0.184 HD
HETATM    7  C15 UNL     1      18.654  29.293  13.562  1.00  0.00     0.082 A 
HETATM    8  C16 UNL     1      17.945  28.253  13.009  1.00  0.00     0.081 A 
HETATM    9  C17 UNL     1      18.830  27.454  12.298  1.00  0.00     0.108 A 
HETATM   10  N8  UNL     1      20.060  27.977  12.402  1.00  0.00    -0.338 N 
ATOM     11  H8  UNL     1      20.895  27.579  11.971  1.00  0.00     0.167 HD
HETATM   12  C29 UNL     1      20.048  29.089  13.148  1.00  0.00     0.099 A 
HETATM   13  C30 UNL     1      21.134  29.886  13.466  1.00  0.00     0.141 C 
ENDROOT
BRANCH   9  14
HETATM   14  N6  UNL     1      18.487  26.398  11.662  1.00  0.00    -0.342 N 
ATOM     15  H6  UNL     1      18.083  25.615  12.177  1.00  0.00     0.167 HD
BRANCH  14  16
HETATM   16  C18 UNL     1      18.657  26.289  10.242  1.00  0.00     0.040 A 
HETATM   17  C19 UNL     1      17.641  26.706   9.440  1.00  0.00     0.032 A 
HETATM   18  C20 UNL     1      17.807  26.601   8.077  1.00  0.00     0.033 A 
HETATM   19  C21 UNL     1      18.983  26.086   7.549  1.00  0.00     0.043 A 
HETATM   20  N7  UNL     1      19.375  25.891   6.277  1.00  0.00    -0.365 N 
HETATM   21  C26 UNL     1      20.017  25.663   8.404  1.00  0.00     0.006 A 
HETATM   22  C22 UNL     1      20.597  25.369   6.284  1.00  0.00     0.096 A 
ATOM     23  H7  UNL     1      18.826  26.108   5.445  1.00  0.00     0.165 HD
HETATM   24  C23 UNL     1      21.040  25.209   7.607  1.00  0.00    -0.030 A 
HETATM   25  C27 UNL     1      19.867  25.760   9.770  1.00  0.00    -0.022 A 
HETATM   26  C28 UNL     1      20.922  25.333  10.689  1.00  0.00     0.051 C 
BRANCH  24  27
HETATM   27  C24 UNL     1      22.332  24.654   8.034  1.00  0.00     0.036 C 
HETATM   28  C25 UNL     1      23.543  25.347   7.492  1.00  0.00     0.010 C 
ENDBRANCH  24  27
ENDBRANCH  14  16
ENDBRANCH   9  14
BRANCH  13  29
HETATM   29  O2  UNL     1      22.254  29.657  12.713  1.00  0.00    -0.350 OA
HETATM   30  C31 UNL     1      22.962  28.436  12.673  1.00  0.00     0.210 C 
ENDBRANCH  13  29
BRANCH   4  31
HETATM   31  N3  UNL     1      18.017  32.352  15.489  1.00  0.00    -0.214 N 
HETATM   32  C8  UNL     1      18.435  33.739  15.295  1.00  0.00     0.171 C 
HETATM   33  C9  UNL     1      17.577  34.614  16.182  1.00  0.00     0.293 C 
HETATM   34  N4  UNL     1      16.165  34.441  15.897  1.00  0.00     0.093 N 
HETATM   35  C13 UNL     1      15.732  33.080  16.079  1.00  0.00     0.293 C 
HETATM   36  C14 UNL     1      16.844  32.100  16.265  1.00  0.00     0.171 C 
BRANCH  34  37
HETATM   37  C10 UNL     1      15.456  35.382  16.750  1.00  0.00     0.298 C 
BRANCH  37  38
HETATM   38  C11 UNL     1      14.864  34.737  17.954  1.00  0.00     0.197 C 
BRANCH  38  39
HETATM   39  O1  UNL     1      15.538  35.151  19.088  1.00  0.00    -0.394 OA
HETATM   40  C12 UNL     1      15.877  36.495  19.040  1.00  0.00     0.201 C 
ENDBRANCH  38  39
ENDBRANCH  37  38
ENDBRANCH  34  37
ENDBRANCH   4  31
BRANCH   1  41
HETATM   41  N1  UNL     1      22.373  31.058  14.912  1.00  0.00    -0.373 N 
ATOM     42  H1  UNL     1      22.866  30.239  15.268  1.00  0.00     0.161 HD
BRANCH  41  43
HETATM   43  C5  UNL     1      23.066  32.307  14.973  1.00  0.00     0.121 C 
BRANCH  43  44
HETATM   44  C4  UNL     1      22.986  32.919  16.362  1.00  0.00     0.020 C 
BRANCH  44  45
HETATM   45  C3  UNL     1      22.224  34.202  16.282  1.00  0.00     0.001 C 
BRANCH  45  46
HETATM   46  C2  UNL     1      21.421  34.399  17.555  1.00  0.00    -0.004 C 
HETATM   47  C1  UNL     1      21.844  35.652  18.279  1.00  0.00     0.005 C 
ENDBRANCH  45  46
ENDBRANCH  44  45
ENDBRANCH  43  44
ENDBRANCH  41  43
ENDBRANCH   1  41
TORSDOF 13
ENDMDL
MODEL 4
REMARK VINA RESULT: -8.615457369      3.110      6.116
REMARK  13 active torsions:
REMARK  status: ('A' for Active; 'I' for Inactive)
REMARK    1  A    between atoms: C2_2  and  C3_3 
REMARK    2  A    between atoms: C3_3  and  C4_4 
REMARK    3  A    between atoms: C4_4  and  C5_5 
REMARK    4  A    between atoms: C5_5  and  N1_6 
REMARK    5  A    between atoms: N1_6  and  C6_8 
REMARK    6  A    between atoms: C7_11  and  N3_12 
REMARK    7  A    between atoms: N4_15  and  C10_16 
REMARK    8  A    between atoms: C10_16  and  C11_17 
REMARK    9  A    between atoms: C11_17  and  O1_18 
REMARK   10  A    between atoms: C17_26  and  N6_27 
REMARK   11  A    between atoms: N6_27  and  C18_29 
REMARK   12  A    between atoms: C23_36  and  C24_37 
REMARK   13  A    between atoms: C30_45  and  O2_46 
ROOT
HETATM    1  C6  UNL     1      17.892  35.001  16.761  1.00  0.00     0.153 C 
HETATM    2  N2  UNL     1      18.935  35.706  17.245  1.00  0.00    -0.174 N 
ATOM      3  H2  UNL     1      18.719  36.672  17.491  1.00  0.00     0.186 HD
HETATM    4  C7  UNL     1      20.220  35.342  17.456  1.00  0.00     0.682 C 
HETATM    5  N5  UNL     1      20.807  34.143  17.222  1.00  0.00    -0.189 N 
ATOM      6  H5  UNL     1      21.821  34.127  17.328  1.00  0.00     0.184 HD
HETATM    7  C15 UNL     1      20.247  32.961  16.870  1.00  0.00     0.082 A 
HETATM    8  C16 UNL     1      20.886  31.762  16.667  1.00  0.00     0.081 A 
HETATM    9  C17 UNL     1      19.932  30.815  16.318  1.00  0.00     0.108 A 
HETATM   10  N8  UNL     1      18.727  31.404  16.302  1.00  0.00    -0.338 N 
ATOM     11  H8  UNL     1      17.855  30.927  16.075  1.00  0.00     0.167 HD
HETATM   12  C29 UNL     1      18.822  32.700  16.623  1.00  0.00     0.099 A 
HETATM   13  C30 UNL     1      17.784  33.613  16.705  1.00  0.00     0.141 C 
ENDROOT
BRANCH   9  14
HETATM   14  N6  UNL     1      20.201  29.591  16.060  1.00  0.00    -0.342 N 
ATOM     15  H6  UNL     1      20.179  28.905  16.816  1.00  0.00     0.167 HD
BRANCH  14  16
HETATM   16  C18 UNL     1      20.532  29.159  14.733  1.00  0.00     0.040 A 
HETATM   17  C19 UNL     1      21.845  29.126  14.378  1.00  0.00     0.032 A 
HETATM   18  C20 UNL     1      22.161  28.711  13.104  1.00  0.00     0.033 A 
HETATM   19  C21 UNL     1      21.161  28.338  12.217  1.00  0.00     0.043 A 
HETATM   20  N7  UNL     1      21.217  27.902  10.946  1.00  0.00    -0.365 N 
HETATM   21  C26 UNL     1      19.811  28.384  12.613  1.00  0.00     0.006 A 
HETATM   22  C22 UNL     1      19.981  27.671  10.519  1.00  0.00     0.096 A 
ATOM     23  H7  UNL     1      22.069  27.771  10.400  1.00  0.00     0.165 HD
HETATM   24  C23 UNL     1      19.061  27.962  11.541  1.00  0.00    -0.030 A 
HETATM   25  C27 UNL     1      19.477  28.797  13.884  1.00  0.00    -0.022 A 
HETATM   26  C28 UNL     1      18.085  28.854  14.330  1.00  0.00     0.051 C 
BRANCH  24  27
HETATM   27  C24 UNL     1      17.598  27.847  11.459  1.00  0.00     0.036 C 
HETATM   28  C25 UNL     1      16.893  29.010  10.835  1.00  0.00     0.010 C 
ENDBRANCH  24  27
ENDBRANCH  14  16
ENDBRANCH   9  14
BRANCH  13  29
HETATM   29  O2  UNL     1      16.534  33.057  16.731  1.00  0.00    -0.350 OA
HETATM   30  C31 UNL     1      15.803  32.662  15.589  1.00  0.00     0.210 C 
ENDBRANCH  13  29
BRANCH   4  31
HETATM   31  N3  UNL     1      21.051  36.363  17.993  1.00  0.00    -0.214 N 
HETATM   32  C8  UNL     1      20.736  37.735  17.602  1.00  0.00     0.171 C 
HETATM   33  C9  UNL     1      21.846  38.630  18.106  1.00  0.00     0.293 C 
HETATM   34  N4  UNL     1      22.016  38.514  19.542  1.00  0.00     0.093 N 
HETATM   35  C13 UNL     1      22.325  37.167  19.949  1.00  0.00     0.293 C 
HETATM   36  C14 UNL     1      22.155  36.145  18.873  1.00  0.00     0.171 C 
BRANCH  34  37
HETATM   37  C10 UNL     1      23.047  39.470  19.912  1.00  0.00     0.298 C 
BRANCH  37  38
HETATM   38  C11 UNL     1      22.534  40.865  20.007  1.00  0.00     0.197 C 
BRANCH  38  39
HETATM   39  O1  UNL     1      22.264  41.177  21.326  1.00  0.00    -0.394 OA
HETATM   40  C12 UNL     1      21.753  42.458  21.471  1.00  0.00     0.201 C 
ENDBRANCH  38  39
ENDBRANCH  37  38
ENDBRANCH  34  37
ENDBRANCH   4  31
BRANCH   1  41
HETATM   41  N1  UNL     1      16.866  35.608  16.289  1.00  0.00    -0.373 N 
ATOM     42  H1  UNL     1      16.424  35.196  15.466  1.00  0.00     0.161 HD
BRANCH  41  43
HETATM   43  C5  UNL     1      16.282  36.806  16.805  1.00  0.00     0.121 C 
BRANCH  43  44
HETATM   44  C4  UNL     1      15.253  36.504  17.882  1.00  0.00     0.020 C 
BRANCH  44  45
HETATM   45  C3  UNL     1      15.813  36.898  19.211  1.00  0.00     0.001 C 
BRANCH  45  46
HETATM   46  C2  UNL     1      16.707  38.113  19.047  1.00  0.00    -0.004 C 
HETATM   47  C1  UNL     1      16.128  39.316  19.748  1.00  0.00     0.005 C 
ENDBRANCH  45  46
ENDBRANCH  44  45
ENDBRANCH  43  44
ENDBRANCH  41  43
ENDBRANCH   1  41
TORSDOF 13
ENDMDL
MODEL 5
REMARK VINA RESULT: -8.546044729      2.812      5.319
REMARK  13 active torsions:
REMARK  status: ('A' for Active; 'I' for Inactive)
REMARK    1  A    between atoms: C2_2  and  C3_3 
REMARK    2  A    between atoms: C3_3  and  C4_4 
REMARK    3  A    between atoms: C4_4  and  C5_5 
REMARK    4  A    between atoms: C5_5  and  N1_6 
REMARK    5  A    between atoms: N1_6  and  C6_8 
REMARK    6  A    between atoms: C7_11  and  N3_12 
REMARK    7  A    between atoms: N4_15  and  C10_16 
REMARK    8  A    between atoms: C10_16  and  C11_17 
REMARK    9  A    between atoms: C11_17  and  O1_18 
REMARK   10  A    between atoms: C17_26  and  N6_27 
REMARK   11  A    between atoms: N6_27  and  C18_29 
REMARK   12  A    between atoms: C23_36  and  C24_37 
REMARK   13  A    between atoms: C30_45  and  O2_46 
ROOT
HETATM    1  C6  UNL     1      20.892  35.809  16.965  1.00  0.00     0.153 C 
HETATM    2  N2  UNL     1      19.769  36.483  17.287  1.00  0.00    -0.174 N 
ATOM      3  H2  UNL     1      19.904  37.479  17.461  1.00  0.00     0.186 HD
HETATM    4  C7  UNL     1      18.493  36.054  17.417  1.00  0.00     0.682 C 
HETATM    5  N5  UNL     1      18.004  34.800  17.259  1.00  0.00    -0.189 N 
ATOM      6  H5  UNL     1      17.031  34.675  17.538  1.00  0.00     0.184 HD
HETATM    7  C15 UNL     1      18.616  33.688  16.786  1.00  0.00     0.082 A 
HETATM    8  C16 UNL     1      18.066  32.439  16.623  1.00  0.00     0.081 A 
HETATM    9  C17 UNL     1      19.046  31.597  16.112  1.00  0.00     0.108 A 
HETATM   10  N8  UNL     1      20.179  32.298  15.959  1.00  0.00    -0.338 N 
ATOM     11  H8  UNL     1      21.052  31.913  15.600  1.00  0.00     0.167 HD
HETATM   12  C29 UNL     1      20.011  33.571  16.342  1.00  0.00     0.099 A 
HETATM   13  C30 UNL     1      20.964  34.575  16.322  1.00  0.00     0.141 C 
ENDROOT
BRANCH   9  14
HETATM   14  N6  UNL     1      18.858  30.360  15.846  1.00  0.00    -0.342 N 
ATOM     15  H6  UNL     1      18.773  29.692  16.614  1.00  0.00     0.167 HD
BRANCH  14  16
HETATM   16  C18 UNL     1      18.762  29.889  14.495  1.00  0.00     0.040 A 
HETATM   17  C19 UNL     1      17.650  30.210  13.780  1.00  0.00     0.032 A 
HETATM   18  C20 UNL     1      17.562  29.758  12.483  1.00  0.00     0.033 A 
HETATM   19  C21 UNL     1      18.585  29.000  11.931  1.00  0.00     0.043 A 
HETATM   20  N7  UNL     1      18.728  28.457  10.708  1.00  0.00    -0.365 N 
HETATM   21  C26 UNL     1      19.723  28.683  12.695  1.00  0.00     0.006 A 
HETATM   22  C22 UNL     1      19.891  27.817  10.660  1.00  0.00     0.096 A 
ATOM     23  H7  UNL     1      18.055  28.525   9.945  1.00  0.00     0.165 HD
HETATM   24  C23 UNL     1      20.553  27.934  11.894  1.00  0.00    -0.030 A 
HETATM   25  C27 UNL     1      19.828  29.127  13.995  1.00  0.00    -0.022 A 
HETATM   26  C28 UNL     1      20.997  28.819  14.817  1.00  0.00     0.051 C 
BRANCH  24  27
HETATM   27  C24 UNL     1      21.858  27.357  12.245  1.00  0.00     0.036 C 
HETATM   28  C25 UNL     1      23.047  28.043  11.649  1.00  0.00     0.010 C 
ENDBRANCH  24  27
ENDBRANCH  14  16
ENDBRANCH   9  14
BRANCH  13  29
HETATM   29  O2  UNL     1      22.081  34.291  15.584  1.00  0.00    -0.350 OA
HETATM   30  C31 UNL     1      23.149  33.477  16.019  1.00  0.00     0.210 C 
ENDBRANCH  13  29
BRANCH   4  31
HETATM   31  N3  UNL     1      17.555  37.064  17.766  1.00  0.00    -0.214 N 
HETATM   32  C8  UNL     1      16.645  36.758  18.866  1.00  0.00     0.171 C 
HETATM   33  C9  UNL     1      15.611  37.860  18.936  1.00  0.00     0.293 C 
HETATM   34  N4  UNL     1      16.228  39.162  19.105  1.00  0.00     0.093 N 
HETATM   35  C13 UNL     1      17.133  39.482  18.031  1.00  0.00     0.293 C 
HETATM   36  C14 UNL     1      17.442  38.335  17.124  1.00  0.00     0.171 C 
BRANCH  34  37
HETATM   37  C10 UNL     1      15.141  40.118  19.236  1.00  0.00     0.298 C 
BRANCH  37  38
HETATM   38  C11 UNL     1      15.288  41.002  20.425  1.00  0.00     0.197 C 
BRANCH  38  39
HETATM   39  O1  UNL     1      14.223  40.812  21.287  1.00  0.00    -0.394 OA
HETATM   40  C12 UNL     1      14.601  40.183  22.463  1.00  0.00     0.201 C 
ENDBRANCH  38  39
ENDBRANCH  37  38
ENDBRANCH  34  37
ENDBRANCH   4  31
BRANCH   1  41
HETATM   41  N1  UNL     1      22.043  36.297  17.253  1.00  0.00    -0.373 N 
ATOM     42  H1  UNL     1      22.772  36.210  16.545  1.00  0.00     0.161 HD
BRANCH  41  43
HETATM   43  C5  UNL     1      22.401  36.951  18.473  1.00  0.00     0.121 C 
BRANCH  43  44
HETATM   44  C4  UNL     1      22.394  35.982  19.645  1.00  0.00     0.020 C 
BRANCH  44  45
HETATM   45  C3  UNL     1      22.946  36.676  20.849  1.00  0.00     0.001 C 
BRANCH  45  46
HETATM   46  C2  UNL     1      23.973  35.786  21.523  1.00  0.00    -0.004 C 
HETATM   47  C1  UNL     1      25.022  36.604  22.233  1.00  0.00     0.005 C 
ENDBRANCH  45  46
ENDBRANCH  44  45
ENDBRANCH  43  44
ENDBRANCH  41  43
ENDBRANCH   1  41
TORSDOF 13
ENDMDL
