MODEL 1
REMARK VINA RESULT: -8.386329718      0.000      0.000
REMARK  16 active torsions:
REMARK  status: ('A' for Active; 'I' for Inactive)
REMARK    1  A    between atoms: C2_2  and  C3_3 
REMARK    2  A    between atoms: C3_3  and  N1_4 
REMARK    3  A    between atoms: N1_4  and  C4_5 
REMARK       I    between atoms: N1_4  and  C7_8 
REMARK    4  A    between atoms: C4_5  and  C5_6 
REMARK    5  A    between atoms: C7_8  and  C8_10 
REMARK    6  A    between atoms: C8_10  and  C9_11 
REMARK    7  A    between atoms: C9_11  and  N2_12 
REMARK    8  A    between atoms: N2_12  and  C10_13 
REMARK    9  A    between atoms: N2_12  and  C23_35 
REMARK   10  A    between atoms: C10_13  and  C11_14 
REMARK   11  A    between atoms: C11_14  and  C12_15 
REMARK   12  A    between atoms: C12_15  and  N3_16 
REMARK       I    between atoms: N3_16  and  C13_18 
REMARK   13  A    between atoms: C13_18  and  C14_20 
REMARK   14  A    between atoms: C14_20  and  C15_21 
REMARK   15  A    between atoms: C23_35  and  C24_36 
REMARK   16  A    between atoms: C24_36  and  C25_37 
ROOT
HETATM    1  C10 UNL     1      18.932  32.177  16.528  1.00  0.00     0.069 C 
ENDROOT
BRANCH   1   2
HETATM    2  N2  UNL     1      17.865  32.294  15.651  1.00  0.00    -0.354 N 
BRANCH   2   3
HETATM    3  C9  UNL     1      18.081  32.395  14.272  1.00  0.00     0.077 C 
BRANCH   3   4
HETATM    4  C8  UNL     1      18.009  31.244  13.354  1.00  0.00     0.148 C 
BRANCH   4   5
HETATM    5  C7  UNL     1      19.406  31.114  12.753  1.00  0.00     0.225 C 
HETATM    6  N1  UNL     1      20.168  29.927  12.875  1.00  0.00    -0.345 N 
HETATM    7  O1  UNL     1      19.866  32.086  12.153  1.00  0.00    -0.273 OA
BRANCH   6   8
HETATM    8  C3  UNL     1      21.508  29.932  12.339  1.00  0.00     0.152 C 
BRANCH   8   9
HETATM    9  C2  UNL     1      22.416  29.027  13.065  1.00  0.00    -0.017 C 
HETATM   10  C1  UNL     1      23.075  28.089  12.402  1.00  0.00     0.008 C 
ENDBRANCH   8   9
ENDBRANCH   6   8
BRANCH   6  11
HETATM   11  C4  UNL     1      19.627  28.759  13.490  1.00  0.00     0.152 C 
BRANCH  11  12
HETATM   12  C5  UNL     1      18.993  27.814  12.511  1.00  0.00    -0.017 C 
HETATM   13  C6  UNL     1      17.719  27.499  12.671  1.00  0.00     0.008 C 
ENDBRANCH  11  12
ENDBRANCH   6  11
ENDBRANCH   4   5
ENDBRANCH   3   4
ENDBRANCH   2   3
BRANCH   2  14
HETATM   14  C23 UNL     1      16.547  31.957  16.038  1.00  0.00     0.068 C 
BRANCH  14  15
HETATM   15  C24 UNL     1      15.500  32.962  16.192  1.00  0.00     0.049 C 
BRANCH  15  16
HETATM   16  C25 UNL     1      15.807  34.207  16.942  1.00  0.00    -0.010 C 
HETATM   17  C26 UNL     1      14.603  34.613  17.787  1.00  0.00     0.005 C 
HETATM   18  C27 UNL     1      14.530  36.107  17.966  1.00  0.00     0.000 C 
HETATM   19  C28 UNL     1      15.902  36.748  17.990  1.00  0.00     0.000 C 
HETATM   20  C29 UNL     1      16.676  36.515  16.711  1.00  0.00     0.000 C 
HETATM   21  C30 UNL     1      15.976  35.398  15.969  1.00  0.00     0.005 C 
ENDBRANCH  15  16
ENDBRANCH  14  15
ENDBRANCH   2  14
ENDBRANCH   1   2
BRANCH   1  22
HETATM   22  C11 UNL     1      19.920  31.057  16.392  1.00  0.00     0.065 C 
BRANCH  22  23
HETATM   23  C12 UNL     1      21.275  31.494  15.881  1.00  0.00     0.128 C 
BRANCH  23  24
HETATM   24  N3  UNL     1      21.381  32.921  15.778  1.00  0.00    -0.360 N 
HETATM   25  C13 UNL     1      22.043  33.634  16.819  1.00  0.00     0.223 C 
HETATM   26  O2  UNL     1      22.527  33.025  17.812  1.00  0.00    -0.273 OA
ATOM     27  H3  UNL     1      20.990  33.415  14.976  1.00  0.00     0.162 HD
BRANCH  25  28
HETATM   28  C14 UNL     1      22.158  35.103  16.728  1.00  0.00     0.160 C 
BRANCH  28  29
HETATM   29  C15 UNL     1      21.136  35.697  17.636  1.00  0.00     0.033 A 
HETATM   30  N4  UNL     1      20.218  34.928  18.245  1.00  0.00    -0.311 N 
HETATM   31  C16 UNL     1      19.293  35.504  19.037  1.00  0.00     0.324 A 
ATOM     32  H4  UNL     1      20.221  33.917  18.109  1.00  0.00     0.170 HD
HETATM   33  O3  UNL     1      18.428  34.793  19.616  1.00  0.00    -0.247 OA
HETATM   34  N5  UNL     1      19.240  36.826  19.254  1.00  0.00    -0.309 N 
HETATM   35  C17 UNL     1      20.143  37.588  18.654  1.00  0.00     0.053 A 
ATOM     36  H5  UNL     1      18.528  37.233  19.861  1.00  0.00     0.170 HD
HETATM   37  C18 UNL     1      21.101  37.035  17.840  1.00  0.00     0.019 A 
HETATM   38  C21 UNL     1      20.374  39.040  18.668  1.00  0.00     0.168 C 
HETATM   39  C19 UNL     1      21.933  38.156  17.356  1.00  0.00     0.155 C 
HETATM   40  C20 UNL     1      23.147  38.348  18.269  1.00  0.00     0.045 C 
HETATM   41  O4  UNL     1      21.155  39.306  17.532  1.00  0.00    -0.370 OA
HETATM   42  C22 UNL     1      19.101  39.827  18.554  1.00  0.00     0.046 C 
ENDBRANCH  28  29
ENDBRANCH  25  28
ENDBRANCH  23  24
ENDBRANCH  22  23
ENDBRANCH   1  22
TORSDOF 16
ENDMDL
MODEL 2
REMARK VINA RESULT: -8.224938700      2.562      5.739
REMARK  16 active torsions:
REMARK  status: ('A' for Active; 'I' for Inactive)
REMARK    1  A    between atoms: C2_2  and  C3_3 
REMARK    2  A    between atoms: C3_3  and  N1_4 
REMARK    3  A    between atoms: N1_4  and  C4_5 
REMARK       I    between atoms: N1_4  and  C7_8 
REMARK    4  A    between atoms: C4_5  and  C5_6 
REMARK    5  A    between atoms: C7_8  and  C8_10 
REMARK    6  A    between atoms: C8_10  and  C9_11 
REMARK    7  A    between atoms: C9_11  and  N2_12 
REMARK    8  A    between atoms: N2_12  and  C10_13 
REMARK    9  A    between atoms: N2_12  and  C23_35 
REMARK   10  A    between atoms: C10_13  and  C11_14 
REMARK   11  A    between atoms: C11_14  and  C12_15 
REMARK   12  A    between atoms: C12_15  and  N3_16 
REMARK       I    between atoms: N3_16  and  C13_18 
REMARK   13  A    between atoms: C13_18  and  C14_20 
REMARK   14  A    between atoms: C14_20  and  C15_21 
REMARK   15  A    between atoms: C23_35  and  C24_36 
REMARK   16  A    between atoms: C24_36  and  C25_37 
ROOT
HETATM    1  C10 UNL     1      22.190  30.475  14.414  1.00  0.00     0.069 C 
ENDROOT
BRANCH   1   2
HETATM    2  N2  UNL     1      21.446  29.341  14.125  1.00  0.00    -0.354 N 
BRANCH   2   3
HETATM    3  C9  UNL     1      21.977  28.324  13.324  1.00  0.00     0.077 C 
BRANCH   3   4
HETATM    4  C8  UNL     1      22.170  28.456  11.869  1.00  0.00     0.148 C 
BRANCH   4   5
HETATM    5  C7  UNL     1      23.270  27.461  11.511  1.00  0.00     0.225 C 
HETATM    6  N1  UNL     1      22.985  26.214  10.905  1.00  0.00    -0.345 N 
HETATM    7  O1  UNL     1      24.432  27.771  11.772  1.00  0.00    -0.273 OA
BRANCH   6   8
HETATM    8  C3  UNL     1      24.088  25.311  10.678  1.00  0.00     0.152 C 
BRANCH   8   9
HETATM    9  C2  UNL     1      24.129  24.795   9.299  1.00  0.00    -0.017 C 
HETATM   10  C1  UNL     1      24.573  25.570   8.320  1.00  0.00     0.008 C 
ENDBRANCH   8   9
ENDBRANCH   6   8
BRANCH   6  11
HETATM   11  C4  UNL     1      21.659  25.864  10.514  1.00  0.00     0.152 C 
BRANCH  11  12
HETATM   12  C5  UNL     1      21.031  24.833  11.406  1.00  0.00    -0.017 C 
HETATM   13  C6  UNL     1      20.065  24.075  10.915  1.00  0.00     0.008 C 
ENDBRANCH  11  12
ENDBRANCH   6  11
ENDBRANCH   4   5
ENDBRANCH   3   4
ENDBRANCH   2   3
BRANCH   2  14
HETATM   14  C23 UNL     1      20.307  28.987  14.885  1.00  0.00     0.068 C 
BRANCH  14  15
HETATM   15  C24 UNL     1      18.948  29.220  14.406  1.00  0.00     0.049 C 
BRANCH  15  16
HETATM   16  C25 UNL     1      18.664  29.075  12.955  1.00  0.00    -0.010 C 
HETATM   17  C26 UNL     1      17.457  29.927  12.576  1.00  0.00     0.005 C 
HETATM   18  C27 UNL     1      16.691  29.325  11.427  1.00  0.00     0.000 C 
HETATM   19  C28 UNL     1      17.592  28.568  10.474  1.00  0.00     0.000 C 
HETATM   20  C29 UNL     1      18.318  27.422  11.144  1.00  0.00     0.000 C 
HETATM   21  C30 UNL     1      18.197  27.635  12.637  1.00  0.00     0.005 C 
ENDBRANCH  15  16
ENDBRANCH  14  15
ENDBRANCH   2  14
ENDBRANCH   1   2
BRANCH   1  22
HETATM   22  C11 UNL     1      21.954  31.759  13.676  1.00  0.00     0.065 C 
BRANCH  22  23
HETATM   23  C12 UNL     1      21.759  32.957  14.578  1.00  0.00     0.128 C 
BRANCH  23  24
HETATM   24  N3  UNL     1      20.867  32.677  15.666  1.00  0.00    -0.360 N 
HETATM   25  C13 UNL     1      19.463  32.761  15.436  1.00  0.00     0.223 C 
HETATM   26  O2  UNL     1      19.011  33.075  14.301  1.00  0.00    -0.273 OA
ATOM     27  H3  UNL     1      21.230  32.423  16.585  1.00  0.00     0.162 HD
BRANCH  25  28
HETATM   28  C14 UNL     1      18.531  32.478  16.546  1.00  0.00     0.160 C 
BRANCH  28  29
HETATM   29  C15 UNL     1      18.313  33.749  17.293  1.00  0.00     0.033 A 
HETATM   30  N4  UNL     1      19.220  34.200  18.175  1.00  0.00    -0.311 N 
HETATM   31  C16 UNL     1      18.976  35.339  18.852  1.00  0.00     0.324 A 
ATOM     32  H4  UNL     1      20.086  33.684  18.332  1.00  0.00     0.170 HD
HETATM   33  O3  UNL     1      19.821  35.774  19.681  1.00  0.00    -0.247 OA
HETATM   34  N5  UNL     1      17.856  36.059  18.687  1.00  0.00    -0.309 N 
HETATM   35  C17 UNL     1      16.959  35.617  17.819  1.00  0.00     0.053 A 
ATOM     36  H5  UNL     1      17.701  36.919  19.213  1.00  0.00     0.170 HD
HETATM   37  C18 UNL     1      17.175  34.459  17.112  1.00  0.00     0.019 A 
HETATM   38  C21 UNL     1      15.651  36.142  17.398  1.00  0.00     0.168 C 
HETATM   39  C19 UNL     1      15.994  34.277  16.242  1.00  0.00     0.155 C 
HETATM   40  C20 UNL     1      16.248  34.896  14.865  1.00  0.00     0.045 C 
HETATM   41  O4  UNL     1      14.982  35.055  16.814  1.00  0.00    -0.370 OA
HETATM   42  C22 UNL     1      14.829  36.632  18.554  1.00  0.00     0.046 C 
ENDBRANCH  28  29
ENDBRANCH  25  28
ENDBRANCH  23  24
ENDBRANCH  22  23
ENDBRANCH   1  22
TORSDOF 16
ENDMDL
MODEL 3
REMARK VINA RESULT: -8.216497402      2.382      6.974
REMARK  16 active torsions:
REMARK  status: ('A' for Active; 'I' for Inactive)
REMARK    1  A    between atoms: C2_2  and  C3_3 
REMARK    2  A    between atoms: C3_3  and  N1_4 
REMARK    3  A    between atoms: N1_4  and  C4_5 
REMARK       I    between atoms: N1_4  and  C7_8 
REMARK    4  A    between atoms: C4_5  and  C5_6 
REMARK    5  A    between atoms: C7_8  and  C8_10 
REMARK    6  A    between atoms: C8_10  and  C9_11 
REMARK    7  A    between atoms: C9_11  and  N2_12 
REMARK    8  A    between atoms: N2_12  and  C10_13 
REMARK    9  A    between atoms: N2_12  and  C23_35 
REMARK   10  A    between atoms: C10_13  and  C11_14 
REMARK   11  A    between atoms: C11_14  and  C12_15 
REMARK   12  A    between atoms: C12_15  and  N3_16 
REMARK       I    between atoms: N3_16  and  C13_18 
REMARK   13  A    between atoms: C13_18  and  C14_20 
REMARK   14  A    between atoms: C14_20  and  C15_21 
REMARK   15  A    between atoms: C23_35  and  C24_36 
REMARK   16  A    between atoms: C24_36  and  C25_37 
ROOT
HETATM    1  C10 UNL     1      21.509  30.852  13.183  1.00  0.00     0.069 C 
ENDROOT
BRANCH   1   2
HETATM    2  N2  UNL     1      21.011  29.618  13.570  1.00  0.00    -0.354 N 
BRANCH   2   3
HETATM    3  C9  UNL     1      19.698  29.492  14.037  1.00  0.00     0.077 C 
BRANCH   3   4
HETATM    4  C8  UNL     1      18.525  29.436  13.148  1.00  0.00     0.148 C 
BRANCH   4   5
HETATM    5  C7  UNL     1      18.175  27.955  13.026  1.00  0.00     0.225 C 
HETATM    6  N1  UNL     1      18.338  27.244  11.812  1.00  0.00    -0.345 N 
HETATM    7  O1  UNL     1      17.735  27.385  14.023  1.00  0.00    -0.273 OA
BRANCH   6   8
HETATM    8  C3  UNL     1      17.905  25.868  11.779  1.00  0.00     0.152 C 
BRANCH   8   9
HETATM    9  C2  UNL     1      18.970  24.945  11.351  1.00  0.00    -0.017 C 
HETATM   10  C1  UNL     1      18.919  23.671  11.712  1.00  0.00     0.008 C 
ENDBRANCH   8   9
ENDBRANCH   6   8
BRANCH   6  11
HETATM   11  C4  UNL     1      18.924  27.857  10.666  1.00  0.00     0.152 C 
BRANCH  11  12
HETATM   12  C5  UNL     1      17.996  27.918   9.487  1.00  0.00    -0.017 C 
HETATM   13  C6  UNL     1      18.379  27.361   8.351  1.00  0.00     0.008 C 
ENDBRANCH  11  12
ENDBRANCH   6  11
ENDBRANCH   4   5
ENDBRANCH   3   4
ENDBRANCH   2   3
BRANCH   2  14
HETATM   14  C23 UNL     1      21.640  28.410  13.185  1.00  0.00     0.068 C 
BRANCH  14  15
HETATM   15  C24 UNL     1      23.042  28.356  12.785  1.00  0.00     0.049 C 
BRANCH  15  16
HETATM   16  C25 UNL     1      23.410  27.597  11.562  1.00  0.00    -0.010 C 
HETATM   17  C26 UNL     1      22.405  26.474  11.327  1.00  0.00     0.005 C 
HETATM   18  C27 UNL     1      23.041  25.295  10.637  1.00  0.00     0.000 C 
HETATM   19  C28 UNL     1      24.155  25.714   9.701  1.00  0.00     0.000 C 
HETATM   20  C29 UNL     1      25.275  26.438  10.416  1.00  0.00     0.000 C 
HETATM   21  C30 UNL     1      24.743  26.842  11.773  1.00  0.00     0.005 C 
ENDBRANCH  15  16
ENDBRANCH  14  15
ENDBRANCH   2  14
ENDBRANCH   1   2
BRANCH   1  22
HETATM   22  C11 UNL     1      22.466  31.605  14.059  1.00  0.00     0.065 C 
BRANCH  22  23
HETATM   23  C12 UNL     1      21.972  32.974  14.470  1.00  0.00     0.128 C 
BRANCH  23  24
HETATM   24  N3  UNL     1      20.579  32.968  14.809  1.00  0.00    -0.360 N 
HETATM   25  C13 UNL     1      20.198  32.576  16.125  1.00  0.00     0.223 C 
HETATM   26  O2  UNL     1      21.066  32.240  16.977  1.00  0.00    -0.273 OA
ATOM     27  H3  UNL     1      19.875  33.238  14.122  1.00  0.00     0.162 HD
BRANCH  25  28
HETATM   28  C14 UNL     1      18.767  32.563  16.489  1.00  0.00     0.160 C 
BRANCH  28  29
HETATM   29  C15 UNL     1      18.487  33.795  17.279  1.00  0.00     0.033 A 
HETATM   30  N4  UNL     1      19.351  34.235  18.208  1.00  0.00    -0.311 N 
HETATM   31  C16 UNL     1      19.051  35.338  18.921  1.00  0.00     0.324 A 
ATOM     32  H4  UNL     1      20.227  33.738  18.373  1.00  0.00     0.170 HD
HETATM   33  O3  UNL     1      19.856  35.762  19.796  1.00  0.00    -0.247 OA
HETATM   34  N5  UNL     1      17.917  36.032  18.749  1.00  0.00    -0.309 N 
HETATM   35  C17 UNL     1      17.062  35.601  17.833  1.00  0.00     0.053 A 
ATOM     36  H5  UNL     1      17.719  36.865  19.303  1.00  0.00     0.170 HD
HETATM   37  C18 UNL     1      17.335  34.480  17.088  1.00  0.00     0.019 A 
HETATM   38  C21 UNL     1      15.753  36.106  17.391  1.00  0.00     0.168 C 
HETATM   39  C19 UNL     1      16.189  34.300  16.173  1.00  0.00     0.155 C 
HETATM   40  C20 UNL     1      16.468  34.982  14.831  1.00  0.00     0.045 C 
HETATM   41  O4  UNL     1      15.135  35.025  16.742  1.00  0.00    -0.370 OA
HETATM   42  C22 UNL     1      14.880  36.524  18.537  1.00  0.00     0.046 C 
ENDBRANCH  28  29
ENDBRANCH  25  28
ENDBRANCH  23  24
ENDBRANCH  22  23
ENDBRANCH   1  22
TORSDOF 16
ENDMDL
MODEL 4
REMARK VINA RESULT: -8.134076749      2.053      4.184
REMARK  16 active torsions:
REMARK  status: ('A' for Active; 'I' for Inactive)
REMARK    1  A    between atoms: C2_2  and  C3_3 
REMARK    2  A    between atoms: C3_3  and  N1_4 
REMARK    3  A    between atoms: N1_4  and  C4_5 
REMARK       I    between atoms: N1_4  and  C7_8 
REMARK    4  A    between atoms: C4_5  and  C5_6 
REMARK    5  A    between atoms: C7_8  and  C8_10 
REMARK    6  A    between atoms: C8_10  and  C9_11 
REMARK    7  A    between atoms: C9_11  and  N2_12 
REMARK    8  A    between atoms: N2_12  and  C10_13 
REMARK    9  A    between atoms: N2_12  and  C23_35 
REMARK   10  A    between atoms: C10_13  and  C11_14 
REMARK   11  A    between atoms: C11_14  and  C12_15 
REMARK   12  A    between atoms: C12_15  and  N3_16 
REMARK       I    between atoms: N3_16  and  C13_18 
REMARK   13  A    between atoms: C13_18  and  C14_20 
REMARK   14  A    between atoms: C14_20  and  C15_21 
REMARK   15  A    between atoms: C23_35  and  C24_36 
REMARK   16  A    between atoms: C24_36  and  C25_37 
ROOT
HETATM    1  C10 UNL     1      22.456  32.142  15.578  1.00  0.00     0.069 C 
ENDROOT
BRANCH   1   2
HETATM    2  N2  UNL     1      21.547  31.421  14.818  1.00  0.00    -0.354 N 
BRANCH   2   3
HETATM    3  C9  UNL     1      21.951  30.281  14.114  1.00  0.00     0.077 C 
BRANCH   3   4
HETATM    4  C8  UNL     1      21.481  28.922  14.436  1.00  0.00     0.148 C 
BRANCH   4   5
HETATM    5  C7  UNL     1      21.346  28.208  13.093  1.00  0.00     0.225 C 
HETATM    6  N1  UNL     1      20.090  28.014  12.470  1.00  0.00    -0.345 N 
HETATM    7  O1  UNL     1      22.373  27.793  12.558  1.00  0.00    -0.273 OA
BRANCH   6   8
HETATM    8  C3  UNL     1      20.061  27.259  11.241  1.00  0.00     0.152 C 
BRANCH   8   9
HETATM    9  C2  UNL     1      19.154  26.100  11.304  1.00  0.00    -0.017 C 
HETATM   10  C1  UNL     1      18.177  25.981  10.417  1.00  0.00     0.008 C 
ENDBRANCH   8   9
ENDBRANCH   6   8
BRANCH   6  11
HETATM   11  C4  UNL     1      18.894  28.559  13.025  1.00  0.00     0.152 C 
BRANCH  11  12
HETATM   12  C5  UNL     1      18.259  29.604  12.154  1.00  0.00    -0.017 C 
HETATM   13  C6  UNL     1      17.038  29.389  11.696  1.00  0.00     0.008 C 
ENDBRANCH  11  12
ENDBRANCH   6  11
ENDBRANCH   4   5
ENDBRANCH   3   4
ENDBRANCH   2   3
BRANCH   2  14
HETATM   14  C23 UNL     1      20.152  31.564  14.998  1.00  0.00     0.068 C 
BRANCH  14  15
HETATM   15  C24 UNL     1      19.326  32.348  14.085  1.00  0.00     0.049 C 
BRANCH  15  16
HETATM   16  C25 UNL     1      17.914  32.626  14.455  1.00  0.00    -0.010 C 
HETATM   17  C26 UNL     1      17.668  34.132  14.462  1.00  0.00     0.005 C 
HETATM   18  C27 UNL     1      16.608  34.516  15.461  1.00  0.00     0.000 C 
HETATM   19  C28 UNL     1      15.562  33.433  15.631  1.00  0.00     0.000 C 
HETATM   20  C29 UNL     1      16.150  32.128  16.120  1.00  0.00     0.000 C 
HETATM   21  C30 UNL     1      17.647  32.215  15.922  1.00  0.00     0.005 C 
ENDBRANCH  15  16
ENDBRANCH  14  15
ENDBRANCH   2  14
ENDBRANCH   1   2
BRANCH   1  22
HETATM   22  C11 UNL     1      22.235  33.598  15.863  1.00  0.00     0.065 C 
BRANCH  22  23
HETATM   23  C12 UNL     1      21.822  33.886  17.289  1.00  0.00     0.128 C 
BRANCH  23  24
HETATM   24  N3  UNL     1      20.404  34.064  17.418  1.00  0.00    -0.360 N 
HETATM   25  C13 UNL     1      19.919  35.046  18.328  1.00  0.00     0.223 C 
HETATM   26  O2  UNL     1      20.717  35.747  19.009  1.00  0.00    -0.273 OA
ATOM     27  H3  UNL     1      19.757  33.498  16.868  1.00  0.00     0.162 HD
BRANCH  25  28
HETATM   28  C14 UNL     1      18.462  35.240  18.473  1.00  0.00     0.160 C 
BRANCH  28  29
HETATM   29  C15 UNL     1      18.159  36.666  18.162  1.00  0.00     0.033 A 
HETATM   30  N4  UNL     1      19.051  37.441  17.524  1.00  0.00    -0.311 N 
HETATM   31  C16 UNL     1      18.753  38.733  17.284  1.00  0.00     0.324 A 
ATOM     32  H4  UNL     1      19.947  37.056  17.224  1.00  0.00     0.170 HD
HETATM   33  O3  UNL     1      19.581  39.471  16.683  1.00  0.00    -0.247 OA
HETATM   34  N5  UNL     1      17.592  39.294  17.653  1.00  0.00    -0.309 N 
HETATM   35  C17 UNL     1      16.711  38.532  18.284  1.00  0.00     0.053 A 
ATOM     36  H5  UNL     1      17.395  40.275  17.456  1.00  0.00     0.170 HD
HETATM   37  C18 UNL     1      16.982  37.212  18.546  1.00  0.00     0.019 A 
HETATM   38  C21 UNL     1      15.370  38.813  18.820  1.00  0.00     0.168 C 
HETATM   39  C19 UNL     1      15.793  36.673  19.240  1.00  0.00     0.155 C 
HETATM   40  C20 UNL     1      14.831  36.040  18.232  1.00  0.00     0.045 C 
HETATM   41  O4  UNL     1      15.115  37.788  19.745  1.00  0.00    -0.370 OA
HETATM   42  C22 UNL     1      15.303  40.125  19.546  1.00  0.00     0.046 C 
ENDBRANCH  28  29
ENDBRANCH  25  28
ENDBRANCH  23  24
ENDBRANCH  22  23
ENDBRANCH   1  22
TORSDOF 16
ENDMDL
MODEL 5
REMARK VINA RESULT: -8.056603746      2.031      4.324
REMARK  16 active torsions:
REMARK  status: ('A' for Active; 'I' for Inactive)
REMARK    1  A    between atoms: C2_2  and  C3_3 
REMARK    2  A    between atoms: C3_3  and  N1_4 
REMARK    3  A    between atoms: N1_4  and  C4_5 
REMARK       I    between atoms: N1_4  and  C7_8 
REMARK    4  A    between atoms: C4_5  and  C5_6 
REMARK    5  A    between atoms: C7_8  and  C8_10 
REMARK    6  A    between atoms: C8_10  and  C9_11 
REMARK    7  A    between atoms: C9_11  and  N2_12 
REMARK    8  A    between atoms: N2_12  and  C10_13 
REMARK    9  A    between atoms: N2_12  and  C23_35 
REMARK   10  A    between atoms: C10_13  and  C11_14 
REMARK   11  A    between atoms: C11_14  and  C12_15 
REMARK   12  A    between atoms: C12_15  and  N3_16 
REMARK       I    between atoms: N3_16  and  C13_18 
REMARK   13  A    between atoms: C13_18  and  C14_20 
REMARK   14  A    between atoms: C14_20  and  C15_21 
REMARK   15  A    between atoms: C23_35  and  C24_36 
REMARK   16  A    between atoms: C24_36  and  C25_37 
ROOT
HETATM    1  C10 UNL     1      21.620  33.193  15.286  1.00  0.00     0.069 C 
ENDROOT
BRANCH   1   2
HETATM    2  N2  UNL     1      21.035  32.164  14.563  1.00  0.00    -0.354 N 
BRANCH   2   3
HETATM    3  C9  UNL     1      21.276  30.827  14.900  1.00  0.00     0.077 C 
BRANCH   3   4
HETATM    4  C8  UNL     1      22.081  29.915  14.068  1.00  0.00     0.148 C 
BRANCH   4   5
HETATM    5  C7  UNL     1      21.105  28.856  13.563  1.00  0.00     0.225 C 
HETATM    6  N1  UNL     1      21.223  28.281  12.275  1.00  0.00    -0.345 N 
HETATM    7  O1  UNL     1      20.192  28.512  14.313  1.00  0.00    -0.273 OA
BRANCH   6   8
HETATM    8  C3  UNL     1      20.205  27.345  11.862  1.00  0.00     0.152 C 
BRANCH   8   9
HETATM    9  C2  UNL     1      19.297  27.902  10.845  1.00  0.00    -0.017 C 
HETATM   10  C1  UNL     1      18.244  28.612  11.222  1.00  0.00     0.008 C 
ENDBRANCH   8   9
ENDBRANCH   6   8
BRANCH   6  11
HETATM   11  C4  UNL     1      22.319  28.599  11.419  1.00  0.00     0.152 C 
BRANCH  11  12
HETATM   12  C5  UNL     1      23.324  27.489  11.306  1.00  0.00    -0.017 C 
HETATM   13  C6  UNL     1      24.435  27.568  12.018  1.00  0.00     0.008 C 
ENDBRANCH  11  12
ENDBRANCH   6  11
ENDBRANCH   4   5
ENDBRANCH   3   4
ENDBRANCH   2   3
BRANCH   2  14
HETATM   14  C23 UNL     1      19.920  32.389  13.722  1.00  0.00     0.068 C 
BRANCH  14  15
HETATM   15  C24 UNL     1      18.671  31.651  13.872  1.00  0.00     0.049 C 
BRANCH  15  16
HETATM   16  C25 UNL     1      17.469  32.369  14.371  1.00  0.00    -0.010 C 
HETATM   17  C26 UNL     1      17.756  33.865  14.454  1.00  0.00     0.005 C 
HETATM   18  C27 UNL     1      16.963  34.521  15.554  1.00  0.00     0.000 C 
HETATM   19  C28 UNL     1      15.623  33.850  15.772  1.00  0.00     0.000 C 
HETATM   20  C29 UNL     1      15.758  32.394  16.161  1.00  0.00     0.000 C 
HETATM   21  C30 UNL     1      17.177  31.980  15.839  1.00  0.00     0.005 C 
ENDBRANCH  15  16
ENDBRANCH  14  15
ENDBRANCH   2  14
ENDBRANCH   1   2
BRANCH   1  22
HETATM   22  C11 UNL     1      22.054  32.984  16.707  1.00  0.00     0.065 C 
BRANCH  22  23
HETATM   23  C12 UNL     1      21.669  34.114  17.636  1.00  0.00     0.128 C 
BRANCH  23  24
HETATM   24  N3  UNL     1      20.251  34.329  17.671  1.00  0.00    -0.360 N 
HETATM   25  C13 UNL     1      19.733  35.323  18.550  1.00  0.00     0.223 C 
HETATM   26  O2  UNL     1      20.502  36.003  19.283  1.00  0.00    -0.273 OA
ATOM     27  H3  UNL     1      19.627  33.781  17.079  1.00  0.00     0.162 HD
BRANCH  25  28
HETATM   28  C14 UNL     1      18.276  35.555  18.599  1.00  0.00     0.160 C 
BRANCH  28  29
HETATM   29  C15 UNL     1      18.025  36.968  18.196  1.00  0.00     0.033 A 
HETATM   30  N4  UNL     1      18.944  37.668  17.511  1.00  0.00    -0.311 N 
HETATM   31  C16 UNL     1      18.694  38.951  17.188  1.00  0.00     0.324 A 
ATOM     32  H4  UNL     1      19.825  37.231  17.237  1.00  0.00     0.170 HD
HETATM   33  O3  UNL     1      19.548  39.618  16.542  1.00  0.00    -0.247 OA
HETATM   34  N5  UNL     1      17.556  39.578  17.519  1.00  0.00    -0.309 N 
HETATM   35  C17 UNL     1      16.647  38.891  18.196  1.00  0.00     0.053 A 
ATOM     36  H5  UNL     1      17.394  40.550  17.259  1.00  0.00     0.170 HD
HETATM   37  C18 UNL     1      16.869  37.581  18.543  1.00  0.00     0.019 A 
HETATM   38  C21 UNL     1      15.318  39.255  18.712  1.00  0.00     0.168 C 
HETATM   39  C19 UNL     1      15.663  37.133  19.268  1.00  0.00     0.155 C 
HETATM   40  C20 UNL     1      14.676  36.472  18.302  1.00  0.00     0.045 C 
HETATM   41  O4  UNL     1      15.027  38.302  19.700  1.00  0.00    -0.370 OA
HETATM   42  C22 UNL     1      15.301  40.613  19.351  1.00  0.00     0.046 C 
ENDBRANCH  28  29
ENDBRANCH  25  28
ENDBRANCH  23  24
ENDBRANCH  22  23
ENDBRANCH   1  22
TORSDOF 16
ENDMDL
