MODEL 1
REMARK VINA RESULT: -7.571090725      0.000      0.000
REMARK  7 active torsions:
REMARK  status: ('A' for Active; 'I' for Inactive)
REMARK    1  A    between atoms: N1_1  and  N2_4 
REMARK       I    between atoms: N2_4  and  C1_6 
REMARK    2  A    between atoms: C1_6  and  C2_8 
REMARK    3  A    between atoms: C2_8  and  N3_9 
REMARK       I    between atoms: N3_9  and  C3_11 
REMARK    4  A    between atoms: C3_11  and  C4_13 
REMARK    5  A    between atoms: C4_13  and  N4_14 
REMARK    6  A    between atoms: C4_13  and  C6_25 
REMARK       I    between atoms: N5_16  and  C5_18 
REMARK       I    between atoms: C5_18  and  N6_20 
REMARK    7  A    between atoms: N6_20  and  N7_22 
ROOT
HETATM    1  C4  UNL     1      25.171  18.535  63.895  1.00  0.00     0.129 C 
ENDROOT
BRANCH   1   2
HETATM    2  C3  UNL     1      26.224  18.921  63.010  1.00  0.00     0.271 C 
HETATM    3  N3  UNL     1      26.932  17.829  62.323  1.00  0.00    -0.347 N 
ATOM      4  H3  UNL     1      26.658  16.863  62.503  1.00  0.00     0.163 HD
HETATM    5  O2  UNL     1      26.623  20.027  62.731  1.00  0.00    -0.266 OA
BRANCH   3   6
HETATM    6  C2  UNL     1      28.007  18.102  61.397  1.00  0.00     0.227 C 
BRANCH   6   7
HETATM    7  C1  UNL     1      27.584  17.955  59.996  1.00  0.00     0.253 C 
HETATM    8  N2  UNL     1      26.582  17.019  59.673  1.00  0.00    -0.275 N 
ATOM      9  H2  UNL     1      26.160  16.453  60.409  1.00  0.00     0.189 HD
HETATM   10  O1  UNL     1      28.098  18.651  59.059  1.00  0.00    -0.270 OA
BRANCH   8  11
HETATM   11  N1  UNL     1      26.169  16.861  58.363  1.00  0.00    -0.343 N 
ATOM     12  H12 UNL     1      26.318  15.962  57.905  1.00  0.00     0.176 HD
ATOM     13  H11 UNL     1      25.723  17.633  57.867  1.00  0.00     0.176 HD
ENDBRANCH   8  11
ENDBRANCH   6   7
ENDBRANCH   3   6
ENDBRANCH   1   2
BRANCH   1  14
HETATM   14  N4  UNL     1      24.332  17.762  63.348  1.00  0.00    -0.291 N 
HETATM   15  N5  UNL     1      23.603  16.709  63.291  1.00  0.00    -0.250 N 
HETATM   16  C5  UNL     1      24.100  15.517  62.606  1.00  0.00     0.352 C 
ATOM     17  H5  UNL     1      22.679  16.703  63.723  1.00  0.00     0.192 HD
HETATM   18  O3  UNL     1      25.233  15.514  62.071  1.00  0.00    -0.244 OA
HETATM   19  N6  UNL     1      23.275  14.360  62.556  1.00  0.00    -0.257 N 
ATOM     20  H6  UNL     1      22.357  14.386  63.000  1.00  0.00     0.191 HD
ATOM     21  H4  UNL     1      24.120  18.236  62.471  1.00  0.00     0.187 HD
BRANCH  19  22
HETATM   22  N7  UNL     1      23.681  13.208  61.926  1.00  0.00    -0.341 N 
ATOM     23  H72 UNL     1      24.608  12.843  62.144  1.00  0.00     0.177 HD
ATOM     24  H71 UNL     1      23.082  12.721  61.259  1.00  0.00     0.177 HD
ENDBRANCH  19  22
ENDBRANCH   1  14
BRANCH   1  25
HETATM   25  C6  UNL     1      24.943  18.997  65.250  1.00  0.00     0.039 A 
HETATM   26  C7  UNL     1      26.020  18.866  66.167  1.00  0.00     0.018 A 
HETATM   27  C8  UNL     1      25.910  19.158  67.491  1.00  0.00     0.018 A 
HETATM   28  C9  UNL     1      24.696  19.600  67.961  1.00  0.00     0.089 A 
HETATM   29  N8  UNL     1      23.678  19.728  67.110  1.00  0.00    -0.354 N 
HETATM   30  C10 UNL     1      23.780  19.435  65.761  1.00  0.00     0.129 A 
ATOM     31  H8  UNL     1      22.782  20.057  67.470  1.00  0.00     0.166 HD
HETATM   32  N9  UNL     1      22.606  19.745  65.055  1.00  0.00    -0.082 NA
ENDBRANCH   1  25
TORSDOF 7
ENDMDL
MODEL 2
REMARK VINA RESULT: -7.243116910      2.816      4.675
REMARK  7 active torsions:
REMARK  status: ('A' for Active; 'I' for Inactive)
REMARK    1  A    between atoms: N1_1  and  N2_4 
REMARK       I    between atoms: N2_4  and  C1_6 
REMARK    2  A    between atoms: C1_6  and  C2_8 
REMARK    3  A    between atoms: C2_8  and  N3_9 
REMARK       I    between atoms: N3_9  and  C3_11 
REMARK    4  A    between atoms: C3_11  and  C4_13 
REMARK    5  A    between atoms: C4_13  and  N4_14 
REMARK    6  A    between atoms: C4_13  and  C6_25 
REMARK       I    between atoms: N5_16  and  C5_18 
REMARK       I    between atoms: C5_18  and  N6_20 
REMARK    7  A    between atoms: N6_20  and  N7_22 
ROOT
HETATM    1  C4  UNL     1      27.584  19.128  62.629  1.00  0.00     0.129 C 
ENDROOT
BRANCH   1   2
HETATM    2  C3  UNL     1      26.272  18.674  62.968  1.00  0.00     0.271 C 
HETATM    3  N3  UNL     1      26.036  17.225  62.861  1.00  0.00    -0.347 N 
ATOM      4  H3  UNL     1      26.792  16.616  62.550  1.00  0.00     0.163 HD
HETATM    5  O2  UNL     1      25.315  19.308  63.343  1.00  0.00    -0.266 OA
BRANCH   3   6
HETATM    6  C2  UNL     1      24.751  16.652  63.189  1.00  0.00     0.227 C 
BRANCH   6   7
HETATM    7  C1  UNL     1      24.052  16.140  61.999  1.00  0.00     0.253 C 
HETATM    8  N2  UNL     1      24.112  14.764  61.703  1.00  0.00    -0.275 N 
ATOM      9  H2  UNL     1      24.635  14.136  62.312  1.00  0.00     0.189 HD
HETATM   10  O1  UNL     1      23.391  16.907  61.223  1.00  0.00    -0.270 OA
BRANCH   8  11
HETATM   11  N1  UNL     1      23.465  14.260  60.590  1.00  0.00    -0.343 N 
ATOM     12  H12 UNL     1      22.448  14.187  60.603  1.00  0.00     0.176 HD
ATOM     13  H11 UNL     1      23.999  13.967  59.772  1.00  0.00     0.176 HD
ENDBRANCH   8  11
ENDBRANCH   6   7
ENDBRANCH   3   6
ENDBRANCH   1   2
BRANCH   1  14
HETATM   14  N4  UNL     1      27.857  18.960  61.404  1.00  0.00    -0.291 N 
HETATM   15  N5  UNL     1      27.571  18.933  60.154  1.00  0.00    -0.250 N 
HETATM   16  C5  UNL     1      27.188  17.671  59.524  1.00  0.00     0.352 C 
ATOM     17  H5  UNL     1      27.612  19.789  59.602  1.00  0.00     0.192 HD
HETATM   18  O3  UNL     1      27.136  16.613  60.194  1.00  0.00    -0.244 OA
HETATM   19  N6  UNL     1      26.875  17.664  58.137  1.00  0.00    -0.257 N 
ATOM     20  H6  UNL     1      26.923  18.538  57.613  1.00  0.00     0.191 HD
ATOM     21  H4  UNL     1      28.844  18.706  61.421  1.00  0.00     0.187 HD
BRANCH  19  22
HETATM   22  N7  UNL     1      26.510  16.511  57.483  1.00  0.00    -0.341 N 
ATOM     23  H72 UNL     1      25.622  16.077  57.736  1.00  0.00     0.177 HD
ATOM     24  H71 UNL     1      27.099  16.092  56.763  1.00  0.00     0.177 HD
ENDBRANCH  19  22
ENDBRANCH   1  14
BRANCH   1  25
HETATM   25  C6  UNL     1      28.598  19.645  63.524  1.00  0.00     0.039 A 
HETATM   26  C7  UNL     1      29.648  18.760  63.891  1.00  0.00     0.018 A 
HETATM   27  C8  UNL     1      30.604  19.077  64.805  1.00  0.00     0.018 A 
HETATM   28  C9  UNL     1      30.548  20.315  65.402  1.00  0.00     0.089 A 
HETATM   29  N8  UNL     1      29.569  21.154  65.066  1.00  0.00    -0.354 N 
HETATM   30  C10 UNL     1      28.593  20.842  64.136  1.00  0.00     0.129 A 
ATOM     31  H8  UNL     1      29.537  22.069  65.515  1.00  0.00     0.166 HD
HETATM   32  N9  UNL     1      27.733  21.922  63.878  1.00  0.00    -0.082 NA
ENDBRANCH   1  25
TORSDOF 7
ENDMDL
MODEL 3
REMARK VINA RESULT: -7.168824986      2.187      2.268
REMARK  7 active torsions:
REMARK  status: ('A' for Active; 'I' for Inactive)
REMARK    1  A    between atoms: N1_1  and  N2_4 
REMARK       I    between atoms: N2_4  and  C1_6 
REMARK    2  A    between atoms: C1_6  and  C2_8 
REMARK    3  A    between atoms: C2_8  and  N3_9 
REMARK       I    between atoms: N3_9  and  C3_11 
REMARK    4  A    between atoms: C3_11  and  C4_13 
REMARK    5  A    between atoms: C4_13  and  N4_14 
REMARK    6  A    between atoms: C4_13  and  C6_25 
REMARK       I    between atoms: N5_16  and  C5_18 
REMARK       I    between atoms: C5_18  and  N6_20 
REMARK    7  A    between atoms: N6_20  and  N7_22 
ROOT
HETATM    1  C4  UNL     1      26.392  19.074  63.284  1.00  0.00     0.129 C 
ENDROOT
BRANCH   1   2
HETATM    2  C3  UNL     1      27.256  18.560  62.268  1.00  0.00     0.271 C 
HETATM    3  N3  UNL     1      26.871  18.849  60.877  1.00  0.00    -0.347 N 
ATOM      4  H3  UNL     1      26.023  19.384  60.693  1.00  0.00     0.163 HD
HETATM    5  O2  UNL     1      28.274  17.921  62.381  1.00  0.00    -0.266 OA
BRANCH   3   6
HETATM    6  C2  UNL     1      27.676  18.388  59.768  1.00  0.00     0.227 C 
BRANCH   6   7
HETATM    7  C1  UNL     1      27.098  17.202  59.120  1.00  0.00     0.253 C 
HETATM    8  N2  UNL     1      26.985  16.002  59.850  1.00  0.00    -0.275 N 
ATOM      9  H2  UNL     1      27.302  15.967  60.819  1.00  0.00     0.189 HD
HETATM   10  O1  UNL     1      26.694  17.223  57.910  1.00  0.00    -0.270 OA
BRANCH   8  11
HETATM   11  N1  UNL     1      26.447  14.873  59.262  1.00  0.00    -0.343 N 
ATOM     12  H12 UNL     1      26.062  14.945  58.320  1.00  0.00     0.176 HD
ATOM     13  H11 UNL     1      26.436  13.985  59.764  1.00  0.00     0.176 HD
ENDBRANCH   8  11
ENDBRANCH   6   7
ENDBRANCH   3   6
ENDBRANCH   1   2
BRANCH   1  14
HETATM   14  N4  UNL     1      25.297  18.443  63.358  1.00  0.00    -0.291 N 
HETATM   15  N5  UNL     1      24.566  17.439  63.677  1.00  0.00    -0.250 N 
HETATM   16  C5  UNL     1      24.298  16.394  62.691  1.00  0.00     0.352 C 
ATOM     17  H5  UNL     1      24.173  17.369  64.615  1.00  0.00     0.192 HD
HETATM   18  O3  UNL     1      24.776  16.469  61.534  1.00  0.00    -0.244 OA
HETATM   19  N6  UNL     1      23.487  15.288  63.066  1.00  0.00    -0.257 N 
ATOM     20  H6  UNL     1      23.111  15.248  64.013  1.00  0.00     0.191 HD
ATOM     21  H4  UNL     1      24.632  19.085  62.928  1.00  0.00     0.187 HD
BRANCH  19  22
HETATM   22  N7  UNL     1      23.194  14.272  62.187  1.00  0.00    -0.341 N 
ATOM     23  H72 UNL     1      22.421  13.647  62.415  1.00  0.00     0.177 HD
ATOM     24  H71 UNL     1      23.727  14.136  61.327  1.00  0.00     0.177 HD
ENDBRANCH  19  22
ENDBRANCH   1  14
BRANCH   1  25
HETATM   25  C6  UNL     1      26.606  20.238  64.119  1.00  0.00     0.039 A 
HETATM   26  C7  UNL     1      27.756  20.232  64.953  1.00  0.00     0.018 A 
HETATM   27  C8  UNL     1      28.021  21.207  65.863  1.00  0.00     0.018 A 
HETATM   28  C9  UNL     1      27.130  22.248  65.979  1.00  0.00     0.089 A 
HETATM   29  N8  UNL     1      26.048  22.266  65.202  1.00  0.00    -0.354 N 
HETATM   30  C10 UNL     1      25.770  21.279  64.271  1.00  0.00     0.129 A 
ATOM     31  H8  UNL     1      25.394  23.043  65.296  1.00  0.00     0.166 HD
HETATM   32  N9  UNL     1      24.629  21.571  63.505  1.00  0.00    -0.082 NA
ENDBRANCH   1  25
TORSDOF 7
ENDMDL
MODEL 4
REMARK VINA RESULT: -7.144821718      2.804      5.575
REMARK  7 active torsions:
REMARK  status: ('A' for Active; 'I' for Inactive)
REMARK    1  A    between atoms: N1_1  and  N2_4 
REMARK       I    between atoms: N2_4  and  C1_6 
REMARK    2  A    between atoms: C1_6  and  C2_8 
REMARK    3  A    between atoms: C2_8  and  N3_9 
REMARK       I    between atoms: N3_9  and  C3_11 
REMARK    4  A    between atoms: C3_11  and  C4_13 
REMARK    5  A    between atoms: C4_13  and  N4_14 
REMARK    6  A    between atoms: C4_13  and  C6_25 
REMARK       I    between atoms: N5_16  and  C5_18 
REMARK       I    between atoms: C5_18  and  N6_20 
REMARK    7  A    between atoms: N6_20  and  N7_22 
ROOT
HETATM    1  C4  UNL     1      26.587  18.732  62.774  1.00  0.00     0.129 C 
ENDROOT
BRANCH   1   2
HETATM    2  C3  UNL     1      26.258  19.919  63.498  1.00  0.00     0.271 C 
HETATM    3  N3  UNL     1      26.899  20.079  64.813  1.00  0.00    -0.347 N 
ATOM      4  H3  UNL     1      27.530  19.354  65.154  1.00  0.00     0.163 HD
HETATM    5  O2  UNL     1      25.528  20.829  63.186  1.00  0.00    -0.266 OA
BRANCH   3   6
HETATM    6  C2  UNL     1      26.648  21.244  65.630  1.00  0.00     0.227 C 
BRANCH   6   7
HETATM    7  C1  UNL     1      27.881  21.993  65.920  1.00  0.00     0.253 C 
HETATM    8  N2  UNL     1      28.073  22.533  67.207  1.00  0.00    -0.275 N 
ATOM      9  H2  UNL     1      27.360  22.400  67.925  1.00  0.00     0.189 HD
HETATM   10  O1  UNL     1      28.786  22.172  65.039  1.00  0.00    -0.270 OA
BRANCH   8  11
HETATM   11  N1  UNL     1      29.222  23.242  67.504  1.00  0.00    -0.343 N 
ATOM     12  H12 UNL     1      29.419  23.473  68.477  1.00  0.00     0.176 HD
ATOM     13  H11 UNL     1      29.858  23.528  66.760  1.00  0.00     0.176 HD
ENDBRANCH   8  11
ENDBRANCH   6   7
ENDBRANCH   3   6
ENDBRANCH   1   2
BRANCH   1  14
HETATM   14  N4  UNL     1      25.589  18.234  62.175  1.00  0.00    -0.291 N 
HETATM   15  N5  UNL     1      24.647  17.377  62.024  1.00  0.00    -0.250 N 
HETATM   16  C5  UNL     1      24.859  16.208  61.172  1.00  0.00     0.352 C 
ATOM     17  H5  UNL     1      23.753  17.510  62.496  1.00  0.00     0.192 HD
HETATM   18  O3  UNL     1      25.954  16.036  60.586  1.00  0.00    -0.244 OA
HETATM   19  N6  UNL     1      23.802  15.270  61.018  1.00  0.00    -0.257 N 
ATOM     20  H6  UNL     1      22.921  15.431  61.506  1.00  0.00     0.191 HD
ATOM     21  H4  UNL     1      25.467  18.854  61.376  1.00  0.00     0.187 HD
BRANCH  19  22
HETATM   22  N7  UNL     1      23.935  14.151  60.230  1.00  0.00    -0.341 N 
ATOM     23  H72 UNL     1      23.925  14.273  59.217  1.00  0.00     0.177 HD
ATOM     24  H71 UNL     1      24.042  13.220  60.633  1.00  0.00     0.177 HD
ENDBRANCH  19  22
ENDBRANCH   1  14
BRANCH   1  25
HETATM   25  C6  UNL     1      27.860  18.040  62.743  1.00  0.00     0.039 A 
HETATM   26  C7  UNL     1      28.961  18.739  62.180  1.00  0.00     0.018 A 
HETATM   27  C8  UNL     1      30.183  18.173  61.990  1.00  0.00     0.018 A 
HETATM   28  C9  UNL     1      30.357  16.861  62.362  1.00  0.00     0.089 A 
HETATM   29  N8  UNL     1      29.332  16.195  62.892  1.00  0.00    -0.354 N 
HETATM   30  C10 UNL     1      28.085  16.762  63.091  1.00  0.00     0.129 A 
ATOM     31  H8  UNL     1      29.472  15.222  63.164  1.00  0.00     0.166 HD
HETATM   32  N9  UNL     1      27.202  15.895  63.755  1.00  0.00    -0.082 NA
ENDBRANCH   1  25
TORSDOF 7
ENDMDL
MODEL 5
REMARK VINA RESULT: -7.138875984      3.115      7.081
REMARK  7 active torsions:
REMARK  status: ('A' for Active; 'I' for Inactive)
REMARK    1  A    between atoms: N1_1  and  N2_4 
REMARK       I    between atoms: N2_4  and  C1_6 
REMARK    2  A    between atoms: C1_6  and  C2_8 
REMARK    3  A    between atoms: C2_8  and  N3_9 
REMARK       I    between atoms: N3_9  and  C3_11 
REMARK    4  A    between atoms: C3_11  and  C4_13 
REMARK    5  A    between atoms: C4_13  and  N4_14 
REMARK    6  A    between atoms: C4_13  and  C6_25 
REMARK       I    between atoms: N5_16  and  C5_18 
REMARK       I    between atoms: C5_18  and  N6_20 
REMARK    7  A    between atoms: N6_20  and  N7_22 
ROOT
HETATM    1  C4  UNL     1      25.027  17.826  63.709  1.00  0.00     0.129 C 
ENDROOT
BRANCH   1   2
HETATM    2  C3  UNL     1      23.969  18.141  64.615  1.00  0.00     0.271 C 
HETATM    3  N3  UNL     1      24.359  18.402  66.009  1.00  0.00    -0.347 N 
ATOM      4  H3  UNL     1      25.343  18.343  66.273  1.00  0.00     0.163 HD
HETATM    5  O2  UNL     1      22.782  18.234  64.404  1.00  0.00    -0.266 OA
BRANCH   3   6
HETATM    6  C2  UNL     1      23.374  18.740  67.011  1.00  0.00     0.227 C 
BRANCH   6   7
HETATM    7  C1  UNL     1      23.189  17.661  67.993  1.00  0.00     0.253 C 
HETATM    8  N2  UNL     1      24.319  17.078  68.600  1.00  0.00    -0.275 N 
ATOM      9  H2  UNL     1      25.253  17.409  68.355  1.00  0.00     0.189 HD
HETATM   10  O1  UNL     1      22.031  17.231  68.314  1.00  0.00    -0.270 OA
BRANCH   8  11
HETATM   11  N1  UNL     1      24.171  16.061  69.524  1.00  0.00    -0.343 N 
ATOM     12  H12 UNL     1      23.355  15.453  69.459  1.00  0.00     0.176 HD
ATOM     13  H11 UNL     1      24.867  15.924  70.257  1.00  0.00     0.176 HD
ENDBRANCH   8  11
ENDBRANCH   6   7
ENDBRANCH   3   6
ENDBRANCH   1   2
BRANCH   1  14
HETATM   14  N4  UNL     1      25.742  18.831  63.426  1.00  0.00    -0.291 N 
HETATM   15  N5  UNL     1      26.660  19.695  63.663  1.00  0.00    -0.250 N 
HETATM   16  C5  UNL     1      26.307  20.986  64.250  1.00  0.00     0.352 C 
ATOM     17  H5  UNL     1      27.633  19.481  63.444  1.00  0.00     0.192 HD
HETATM   18  O3  UNL     1      25.114  21.259  64.522  1.00  0.00    -0.244 OA
HETATM   19  N6  UNL     1      27.340  21.929  64.506  1.00  0.00    -0.257 N 
ATOM     20  H6  UNL     1      28.303  21.684  64.277  1.00  0.00     0.191 HD
ATOM     21  H4  UNL     1      25.403  19.103  62.504  1.00  0.00     0.187 HD
BRANCH  19  22
HETATM   22  N7  UNL     1      27.076  23.162  65.054  1.00  0.00    -0.341 N 
ATOM     23  H72 UNL     1      26.311  23.710  64.658  1.00  0.00     0.177 HD
ATOM     24  H71 UNL     1      27.620  23.531  65.833  1.00  0.00     0.177 HD
ENDBRANCH  19  22
ENDBRANCH   1  14
BRANCH   1  25
HETATM   25  C6  UNL     1      25.281  16.559  63.054  1.00  0.00     0.039 A 
HETATM   26  C7  UNL     1      24.154  15.860  62.541  1.00  0.00     0.018 A 
HETATM   27  C8  UNL     1      24.234  14.614  62.001  1.00  0.00     0.018 A 
HETATM   28  C9  UNL     1      25.466  14.005  61.949  1.00  0.00     0.089 A 
HETATM   29  N8  UNL     1      26.530  14.651  62.426  1.00  0.00    -0.354 N 
HETATM   30  C10 UNL     1      26.460  15.919  62.976  1.00  0.00     0.129 A 
ATOM     31  H8  UNL     1      27.438  14.189  62.383  1.00  0.00     0.166 HD
HETATM   32  N9  UNL     1      27.725  16.427  63.314  1.00  0.00    -0.082 NA
ENDBRANCH   1  25
TORSDOF 7
ENDMDL
