MODEL 1
REMARK VINA RESULT: -7.681235294      0.000      0.000
REMARK  7 active torsions:
REMARK  status: ('A' for Active; 'I' for Inactive)
REMARK    1  A    between atoms: N1_1  and  C1_4 
REMARK    2  A    between atoms: C2_7  and  N3_8 
REMARK    3  A    between atoms: N5_18  and  C6_19 
REMARK    4  A    between atoms: C6_19  and  O3_20 
REMARK    5  A    between atoms: O3_20  and  C7_21 
REMARK    6  A    between atoms: C7_21  and  C8_22 
REMARK    7  A    between atoms: C8_22  and  N6_23 
ROOT
HETATM    1  C1  UNL     1      23.945  16.793  63.011  1.00  0.00     0.679 A 
HETATM    2  N2  UNL     1      23.780  15.769  62.160  1.00  0.00    -0.176 N 
ATOM      3  H2  UNL     1      22.917  15.227  62.202  1.00  0.00     0.186 HD
HETATM    4  C2  UNL     1      24.710  15.435  61.258  1.00  0.00     0.134 A 
HETATM    5  C3  UNL     1      25.858  16.186  61.231  1.00  0.00     0.121 A 
HETATM    6  C4  UNL     1      26.843  15.852  60.336  1.00  0.00     0.267 A 
HETATM    7  O1  UNL     1      26.663  14.876  59.541  1.00  0.00    -0.267 OA
HETATM    8  N4  UNL     1      27.960  16.587  60.351  1.00  0.00    -0.274 N 
ATOM      9  H4  UNL     1      28.708  16.359  59.697  1.00  0.00     0.173 HD
HETATM   10  C5  UNL     1      28.128  17.615  61.198  1.00  0.00     0.332 A 
HETATM   11  O2  UNL     1      29.216  18.244  61.133  1.00  0.00    -0.246 OA
HETATM   12  N5  UNL     1      27.177  17.990  62.109  1.00  0.00    -0.262 N 
HETATM   13  C10 UNL     1      26.052  17.261  62.109  1.00  0.00     0.148 A 
HETATM   14  N9  UNL     1      25.073  17.517  62.970  1.00  0.00    -0.175 N 
ATOM     15  H9  UNL     1      25.184  18.292  63.624  1.00  0.00     0.186 HD
ENDROOT
BRANCH  12  16
HETATM   16  C6  UNL     1      27.494  19.077  62.965  1.00  0.00     0.305 C 
BRANCH  16  17
HETATM   17  O3  UNL     1      26.469  19.983  63.044  1.00  0.00    -0.370 OA
BRANCH  17  18
HETATM   18  C7  UNL     1      26.449  20.745  64.172  1.00  0.00     0.189 C 
BRANCH  18  19
HETATM   19  C8  UNL     1      25.036  20.898  64.731  1.00  0.00     0.148 C 
BRANCH  19  20
HETATM   20  N6  UNL     1      24.766  19.921  65.735  1.00  0.00    -0.365 N 
HETATM   21  C9  UNL     1      23.601  19.421  65.854  1.00  0.00     0.197 C 
HETATM   22  N7  UNL     1      22.562  19.825  64.995  1.00  0.00    -0.067 NA
HETATM   23  N8  UNL     1      23.347  18.457  66.848  1.00  0.00    -0.067 NA
ATOM     24  H6  UNL     1      25.512  19.621  66.362  1.00  0.00     0.161 HD
ENDBRANCH  19  20
ENDBRANCH  18  19
ENDBRANCH  17  18
ENDBRANCH  16  17
ENDBRANCH  12  16
BRANCH   4  25
HETATM   25  N3  UNL     1      24.569  14.458  60.437  1.00  0.00    -0.384 N 
ATOM     26  H32 UNL     1      24.641  14.626  59.434  1.00  0.00     0.157 HD
ATOM     27  H31 UNL     1      24.387  13.501  60.738  1.00  0.00     0.157 HD
ENDBRANCH   4  25
BRANCH   1  28
HETATM   28  N1  UNL     1      23.025  17.098  63.880  1.00  0.00    -0.234 N 
ATOM     29  H12 UNL     1      22.108  17.402  63.551  1.00  0.00     0.174 HD
ATOM     30  H11 UNL     1      23.207  17.038  64.882  1.00  0.00     0.174 HD
ENDBRANCH   1  28
TORSDOF 7
ENDMDL
MODEL 2
REMARK VINA RESULT: -7.587738074      1.358      1.598
REMARK  7 active torsions:
REMARK  status: ('A' for Active; 'I' for Inactive)
REMARK    1  A    between atoms: N1_1  and  C1_4 
REMARK    2  A    between atoms: C2_7  and  N3_8 
REMARK    3  A    between atoms: N5_18  and  C6_19 
REMARK    4  A    between atoms: C6_19  and  O3_20 
REMARK    5  A    between atoms: O3_20  and  C7_21 
REMARK    6  A    between atoms: C7_21  and  C8_22 
REMARK    7  A    between atoms: C8_22  and  N6_23 
ROOT
HETATM    1  C1  UNL     1      24.048  16.679  63.122  1.00  0.00     0.679 A 
HETATM    2  N2  UNL     1      23.673  15.814  62.167  1.00  0.00    -0.176 N 
ATOM      3  H2  UNL     1      22.679  15.629  62.032  1.00  0.00     0.186 HD
HETATM    4  C2  UNL     1      24.559  15.186  61.385  1.00  0.00     0.134 A 
HETATM    5  C3  UNL     1      25.887  15.460  61.596  1.00  0.00     0.121 A 
HETATM    6  C4  UNL     1      26.823  14.812  60.830  1.00  0.00     0.267 A 
HETATM    7  O1  UNL     1      26.442  13.995  59.932  1.00  0.00    -0.267 OA
HETATM    8  N4  UNL     1      28.109  15.081  61.076  1.00  0.00    -0.274 N 
ATOM      9  H4  UNL     1      28.826  14.612  60.521  1.00  0.00     0.173 HD
HETATM   10  C5  UNL     1      28.489  15.948  62.028  1.00  0.00     0.332 A 
HETATM   11  O2  UNL     1      29.725  16.131  62.181  1.00  0.00    -0.246 OA
HETATM   12  N5  UNL     1      27.596  16.621  62.818  1.00  0.00    -0.262 N 
HETATM   13  C10 UNL     1      26.303  16.360  62.586  1.00  0.00     0.148 A 
HETATM   14  N9  UNL     1      25.350  16.935  63.313  1.00  0.00    -0.175 N 
ATOM     15  H9  UNL     1      25.619  17.594  64.044  1.00  0.00     0.186 HD
ENDROOT
BRANCH  12  16
HETATM   16  C6  UNL     1      28.133  17.488  63.806  1.00  0.00     0.305 C 
BRANCH  16  17
HETATM   17  O3  UNL     1      27.664  18.768  63.673  1.00  0.00    -0.370 OA
BRANCH  17  18
HETATM   18  C7  UNL     1      28.089  19.647  64.622  1.00  0.00     0.189 C 
BRANCH  18  19
HETATM   19  C8  UNL     1      27.065  20.754  64.874  1.00  0.00     0.148 C 
BRANCH  19  20
HETATM   20  N6  UNL     1      25.798  20.214  65.244  1.00  0.00    -0.365 N 
HETATM   21  C9  UNL     1      24.735  20.596  64.656  1.00  0.00     0.197 C 
HETATM   22  N7  UNL     1      24.796  21.557  63.630  1.00  0.00    -0.067 NA
HETATM   23  N8  UNL     1      23.490  20.056  65.031  1.00  0.00    -0.067 NA
ATOM     24  H6  UNL     1      25.743  19.516  65.987  1.00  0.00     0.161 HD
ENDBRANCH  19  20
ENDBRANCH  18  19
ENDBRANCH  17  18
ENDBRANCH  16  17
ENDBRANCH  12  16
BRANCH   4  25
HETATM   25  N3  UNL     1      24.218  14.356  60.468  1.00  0.00    -0.384 N 
ATOM     26  H32 UNL     1      23.403  13.758  60.604  1.00  0.00     0.157 HD
ATOM     27  H31 UNL     1      24.728  14.257  59.590  1.00  0.00     0.157 HD
ENDBRANCH   4  25
BRANCH   1  28
HETATM   28  N1  UNL     1      23.166  17.277  63.870  1.00  0.00    -0.234 N 
ATOM     29  H12 UNL     1      22.247  17.494  63.481  1.00  0.00     0.174 HD
ATOM     30  H11 UNL     1      23.379  17.530  64.834  1.00  0.00     0.174 HD
ENDBRANCH   1  28
TORSDOF 7
ENDMDL
MODEL 3
REMARK VINA RESULT: -7.408194423      1.612      1.878
REMARK  7 active torsions:
REMARK  status: ('A' for Active; 'I' for Inactive)
REMARK    1  A    between atoms: N1_1  and  C1_4 
REMARK    2  A    between atoms: C2_7  and  N3_8 
REMARK    3  A    between atoms: N5_18  and  C6_19 
REMARK    4  A    between atoms: C6_19  and  O3_20 
REMARK    5  A    between atoms: O3_20  and  C7_21 
REMARK    6  A    between atoms: C7_21  and  C8_22 
REMARK    7  A    between atoms: C8_22  and  N6_23 
ROOT
HETATM    1  C1  UNL     1      24.043  16.691  63.079  1.00  0.00     0.679 A 
HETATM    2  N2  UNL     1      23.679  15.803  62.142  1.00  0.00    -0.176 N 
ATOM      3  H2  UNL     1      22.688  15.596  62.018  1.00  0.00     0.186 HD
HETATM    4  C2  UNL     1      24.572  15.180  61.364  1.00  0.00     0.134 A 
HETATM    5  C3  UNL     1      25.896  15.484  61.559  1.00  0.00     0.121 A 
HETATM    6  C4  UNL     1      26.839  14.843  60.796  1.00  0.00     0.267 A 
HETATM    7  O1  UNL     1      26.468  14.004  59.916  1.00  0.00    -0.267 OA
HETATM    8  N4  UNL     1      28.121  15.142  61.028  1.00  0.00    -0.274 N 
ATOM      9  H4  UNL     1      28.843  14.678  60.476  1.00  0.00     0.173 HD
HETATM   10  C5  UNL     1      28.491  16.032  61.962  1.00  0.00     0.332 A 
HETATM   11  O2  UNL     1      29.723  16.243  62.103  1.00  0.00    -0.246 OA
HETATM   12  N5  UNL     1      27.590  16.700  62.748  1.00  0.00    -0.262 N 
HETATM   13  C10 UNL     1      26.300  16.410  62.531  1.00  0.00     0.148 A 
HETATM   14  N9  UNL     1      25.341  16.977  63.256  1.00  0.00    -0.175 N 
ATOM     15  H9  UNL     1      25.602  17.653  63.973  1.00  0.00     0.186 HD
ENDROOT
BRANCH  12  16
HETATM   16  C6  UNL     1      28.117  17.594  63.718  1.00  0.00     0.305 C 
BRANCH  16  17
HETATM   17  O3  UNL     1      27.532  17.421  64.945  1.00  0.00    -0.370 OA
BRANCH  17  18
HETATM   18  C7  UNL     1      27.519  18.522  65.746  1.00  0.00     0.189 C 
BRANCH  18  19
HETATM   19  C8  UNL     1      26.133  19.162  65.812  1.00  0.00     0.148 C 
BRANCH  19  20
HETATM   20  N6  UNL     1      25.997  20.204  64.848  1.00  0.00    -0.365 N 
HETATM   21  C9  UNL     1      24.844  20.628  64.512  1.00  0.00     0.197 C 
HETATM   22  N7  UNL     1      23.686  20.074  65.090  1.00  0.00    -0.067 NA
HETATM   23  N8  UNL     1      24.722  21.657  63.559  1.00  0.00    -0.067 NA
ATOM     24  H6  UNL     1      26.829  20.613  64.423  1.00  0.00     0.161 HD
ENDBRANCH  19  20
ENDBRANCH  18  19
ENDBRANCH  17  18
ENDBRANCH  16  17
ENDBRANCH  12  16
BRANCH   4  25
HETATM   25  N3  UNL     1      24.241  14.328  60.463  1.00  0.00    -0.384 N 
ATOM     26  H32 UNL     1      23.806  14.648  59.599  1.00  0.00     0.157 HD
ATOM     27  H31 UNL     1      24.394  13.324  60.564  1.00  0.00     0.157 HD
ENDBRANCH   4  25
BRANCH   1  28
HETATM   28  N1  UNL     1      23.155  17.284  63.824  1.00  0.00    -0.234 N 
ATOM     29  H12 UNL     1      22.412  17.824  63.380  1.00  0.00     0.174 HD
ATOM     30  H11 UNL     1      23.191  17.215  64.841  1.00  0.00     0.174 HD
ENDBRANCH   1  28
TORSDOF 7
ENDMDL
MODEL 4
REMARK VINA RESULT: -7.304444297      1.938      5.149
REMARK  7 active torsions:
REMARK  status: ('A' for Active; 'I' for Inactive)
REMARK    1  A    between atoms: N1_1  and  C1_4 
REMARK    2  A    between atoms: C2_7  and  N3_8 
REMARK    3  A    between atoms: N5_18  and  C6_19 
REMARK    4  A    between atoms: C6_19  and  O3_20 
REMARK    5  A    between atoms: O3_20  and  C7_21 
REMARK    6  A    between atoms: C7_21  and  C8_22 
REMARK    7  A    between atoms: C8_22  and  N6_23 
ROOT
HETATM    1  C1  UNL     1      25.251  17.739  63.686  1.00  0.00     0.679 A 
HETATM    2  N2  UNL     1      25.164  19.031  64.040  1.00  0.00    -0.176 N 
ATOM      3  H2  UNL     1      24.295  19.372  64.452  1.00  0.00     0.186 HD
HETATM    4  C2  UNL     1      26.178  19.887  63.870  1.00  0.00     0.134 A 
HETATM    5  C3  UNL     1      27.330  19.393  63.312  1.00  0.00     0.121 A 
HETATM    6  C4  UNL     1      28.380  20.251  63.099  1.00  0.00     0.267 A 
HETATM    7  O1  UNL     1      28.271  21.471  63.441  1.00  0.00    -0.267 OA
HETATM    8  N4  UNL     1      29.479  19.746  62.531  1.00  0.00    -0.274 N 
ATOM      9  H4  UNL     1      30.274  20.362  62.360  1.00  0.00     0.173 HD
HETATM   10  C5  UNL     1      29.573  18.453  62.178  1.00  0.00     0.332 A 
HETATM   11  O2  UNL     1      30.651  18.076  61.650  1.00  0.00    -0.246 OA
HETATM   12  N5  UNL     1      28.556  17.556  62.370  1.00  0.00    -0.262 N 
HETATM   13  C10 UNL     1      27.445  18.048  62.936  1.00  0.00     0.148 A 
HETATM   14  N9  UNL     1      26.385  17.274  63.143  1.00  0.00    -0.175 N 
ATOM     15  H9  UNL     1      26.435  16.290  62.879  1.00  0.00     0.186 HD
ENDROOT
BRANCH  12  16
HETATM   16  C6  UNL     1      28.776  16.226  61.926  1.00  0.00     0.305 C 
BRANCH  16  17
HETATM   17  O3  UNL     1      27.921  15.877  60.914  1.00  0.00    -0.370 OA
BRANCH  17  18
HETATM   18  C7  UNL     1      27.704  14.540  60.768  1.00  0.00     0.189 C 
BRANCH  18  19
HETATM   19  C8  UNL     1      26.358  14.251  60.105  1.00  0.00     0.148 C 
BRANCH  19  20
HETATM   20  N6  UNL     1      25.417  13.733  61.044  1.00  0.00    -0.365 N 
HETATM   21  C9  UNL     1      24.446  14.450  61.448  1.00  0.00     0.197 C 
HETATM   22  N7  UNL     1      24.285  15.765  60.973  1.00  0.00    -0.067 NA
HETATM   23  N8  UNL     1      23.524  13.928  62.376  1.00  0.00    -0.067 NA
ATOM     24  H6  UNL     1      25.524  12.781  61.395  1.00  0.00     0.161 HD
ENDBRANCH  19  20
ENDBRANCH  18  19
ENDBRANCH  17  18
ENDBRANCH  16  17
ENDBRANCH  12  16
BRANCH   4  25
HETATM   25  N3  UNL     1      26.111  21.125  64.201  1.00  0.00    -0.384 N 
ATOM     26  H32 UNL     1      25.239  21.638  64.071  1.00  0.00     0.157 HD
ATOM     27  H31 UNL     1      26.899  21.638  64.597  1.00  0.00     0.157 HD
ENDBRANCH   4  25
BRANCH   1  28
HETATM   28  N1  UNL     1      24.250  16.927  63.862  1.00  0.00    -0.234 N 
ATOM     29  H12 UNL     1      23.503  17.187  64.507  1.00  0.00     0.174 HD
ATOM     30  H11 UNL     1      24.201  16.037  63.366  1.00  0.00     0.174 HD
ENDBRANCH   1  28
TORSDOF 7
ENDMDL
MODEL 5
REMARK VINA RESULT: -7.280862052      2.481      3.290
REMARK  7 active torsions:
REMARK  status: ('A' for Active; 'I' for Inactive)
REMARK    1  A    between atoms: N1_1  and  C1_4 
REMARK    2  A    between atoms: C2_7  and  N3_8 
REMARK    3  A    between atoms: N5_18  and  C6_19 
REMARK    4  A    between atoms: C6_19  and  O3_20 
REMARK    5  A    between atoms: O3_20  and  C7_21 
REMARK    6  A    between atoms: C7_21  and  C8_22 
REMARK    7  A    between atoms: C8_22  and  N6_23 
ROOT
HETATM    1  C1  UNL     1      26.387  14.525  61.236  1.00  0.00     0.679 A 
HETATM    2  N2  UNL     1      26.011  15.127  60.097  1.00  0.00    -0.176 N 
ATOM      3  H2  UNL     1      25.327  14.665  59.498  1.00  0.00     0.186 HD
HETATM    4  C2  UNL     1      26.503  16.312  59.720  1.00  0.00     0.134 A 
HETATM    5  C3  UNL     1      27.422  16.904  60.550  1.00  0.00     0.121 A 
HETATM    6  C4  UNL     1      27.966  18.107  60.179  1.00  0.00     0.267 A 
HETATM    7  O1  UNL     1      27.594  18.656  59.094  1.00  0.00    -0.267 OA
HETATM    8  N4  UNL     1      28.877  18.646  60.996  1.00  0.00    -0.274 N 
ATOM      9  H4  UNL     1      29.299  19.540  60.744  1.00  0.00     0.173 HD
HETATM   10  C5  UNL     1      29.255  18.050  62.139  1.00  0.00     0.332 A 
HETATM   11  O2  UNL     1      30.120  18.639  62.838  1.00  0.00    -0.246 OA
HETATM   12  N5  UNL     1      28.742  16.851  62.555  1.00  0.00    -0.262 N 
HETATM   13  C10 UNL     1      27.829  16.296  61.745  1.00  0.00     0.148 A 
HETATM   14  N9  UNL     1      27.286  15.118  62.035  1.00  0.00    -0.175 N 
ATOM     15  H9  UNL     1      27.562  14.648  62.897  1.00  0.00     0.186 HD
ENDROOT
BRANCH  12  16
HETATM   16  C6  UNL     1      29.249  16.317  63.769  1.00  0.00     0.305 C 
BRANCH  16  17
HETATM   17  O3  UNL     1      28.280  16.231  64.734  1.00  0.00    -0.370 OA
BRANCH  17  18
HETATM   18  C7  UNL     1      28.236  17.272  65.612  1.00  0.00     0.189 C 
BRANCH  18  19
HETATM   19  C8  UNL     1      27.130  18.266  65.262  1.00  0.00     0.148 C 
BRANCH  19  20
HETATM   20  N6  UNL     1      26.013  17.610  64.663  1.00  0.00    -0.365 N 
HETATM   21  C9  UNL     1      25.490  18.068  63.596  1.00  0.00     0.197 C 
HETATM   22  N7  UNL     1      26.007  19.228  62.991  1.00  0.00    -0.067 NA
HETATM   23  N8  UNL     1      24.388  17.412  63.014  1.00  0.00    -0.067 NA
ATOM     24  H6  UNL     1      25.631  16.767  65.093  1.00  0.00     0.161 HD
ENDBRANCH  19  20
ENDBRANCH  18  19
ENDBRANCH  17  18
ENDBRANCH  16  17
ENDBRANCH  12  16
BRANCH   4  25
HETATM   25  N3  UNL     1      26.155  16.901  58.634  1.00  0.00    -0.384 N 
ATOM     26  H32 UNL     1      25.205  16.791  58.281  1.00  0.00     0.157 HD
ATOM     27  H31 UNL     1      26.789  17.488  58.092  1.00  0.00     0.157 HD
ENDBRANCH   4  25
BRANCH   1  28
HETATM   28  N1  UNL     1      25.894  13.371  61.580  1.00  0.00    -0.234 N 
ATOM     29  H12 UNL     1      25.043  13.340  62.142  1.00  0.00     0.174 HD
ATOM     30  H11 UNL     1      26.344  12.501  61.297  1.00  0.00     0.174 HD
ENDBRANCH   1  28
TORSDOF 7
ENDMDL
