MODEL 1
REMARK VINA RESULT: -7.376686754      0.000      0.000
REMARK  9 active torsions:
REMARK  status: ('A' for Active; 'I' for Inactive)
REMARK    1  A    between atoms: C5_5  and  C6_6 
REMARK    2  A    between atoms: C6_6  and  C7_7 
REMARK    3  A    between atoms: C7_7  and  C8_8 
REMARK    4  A    between atoms: C8_8  and  C9_9 
REMARK    5  A    between atoms: N4_18  and  C11_19 
REMARK    6  A    between atoms: C11_19  and  O1_20 
REMARK    7  A    between atoms: O1_20  and  C12_21 
REMARK    8  A    between atoms: C12_21  and  O2_22 
REMARK    9  A    between atoms: C14_26  and  C15_27 
ROOT
HETATM    1  C9  UNL     1      25.926  14.539  60.986  1.00  0.00     0.117 A 
HETATM    2  N1  UNL     1      26.029  13.278  61.415  1.00  0.00    -0.274 N 
ATOM      3  H1  UNL     1      26.800  12.641  61.211  1.00  0.00     0.189 HD
HETATM    4  N2  UNL     1      24.965  12.992  62.147  1.00  0.00    -0.131 N 
ATOM      5  H2  UNL     1      24.780  12.097  62.601  1.00  0.00     0.205 HD
HETATM    6  C10 UNL     1      24.161  14.081  62.196  1.00  0.00     0.695 A 
HETATM    7  N3  UNL     1      23.028  14.170  62.840  1.00  0.00    -0.233 N 
ATOM      8  H31 UNL     1      22.423  14.989  62.877  1.00  0.00     0.174 HD
ATOM      9  H32 UNL     1      22.580  13.435  63.388  1.00  0.00     0.174 HD
HETATM   10  N4  UNL     1      24.739  15.029  61.489  1.00  0.00    -0.148 N 
ENDROOT
BRANCH   1  11
HETATM   11  C8  UNL     1      26.846  15.333  60.117  1.00  0.00     0.082 C 
BRANCH  11  12
HETATM   12  C7  UNL     1      28.020  15.880  60.837  1.00  0.00     0.037 C 
BRANCH  12  13
HETATM   13  C6  UNL     1      27.883  17.368  61.037  1.00  0.00     0.003 C 
BRANCH  13  14
HETATM   14  C5  UNL     1      27.901  17.878  62.282  1.00  0.00     0.030 A 
HETATM   15  C4  UNL     1      27.420  17.065  63.300  1.00  0.00     0.030 A 
HETATM   16  C3  UNL     1      27.373  17.530  64.585  1.00  0.00     0.015 A 
HETATM   17  C2  UNL     1      27.816  18.841  64.861  1.00  0.00    -0.013 A 
HETATM   18  C1  UNL     1      27.728  19.256  66.097  1.00  0.00     0.026 C 
HETATM   19  C14 UNL     1      28.278  19.591  63.823  1.00  0.00     0.109 A 
HETATM   20  N5  UNL     1      28.320  19.105  62.538  1.00  0.00    -0.347 N 
HETATM   21  C13 UNL     1      28.902  19.927  61.512  1.00  0.00     0.156 C 
BRANCH  19  22
HETATM   22  C15 UNL     1      28.776  20.928  64.028  1.00  0.00     0.282 C 
HETATM   23  N6  UNL     1      30.077  21.355  64.326  1.00  0.00    -0.056 NA
HETATM   24  O3  UNL     1      27.927  21.890  63.923  1.00  0.00    -0.269 OA
ENDBRANCH  19  22
ENDBRANCH  13  14
ENDBRANCH  12  13
ENDBRANCH  11  12
ENDBRANCH   1  11
BRANCH  10  25
HETATM   25  C11 UNL     1      24.313  16.411  61.230  1.00  0.00     0.321 C 
BRANCH  25  26
HETATM   26  O1  UNL     1      23.382  16.891  62.066  1.00  0.00    -0.347 OA
BRANCH  26  27
HETATM   27  C12 UNL     1      23.679  17.387  63.278  1.00  0.00     0.336 C 
BRANCH  27  28
HETATM   28  O2  UNL     1      22.798  17.151  64.309  1.00  0.00    -0.377 OA
ATOM     29  H2  UNL     1      21.939  17.555  64.266  1.00  0.00     0.212 HD
ENDBRANCH  27  28
ENDBRANCH  26  27
ENDBRANCH  25  26
ENDBRANCH  10  25
TORSDOF 9
ENDMDL
MODEL 2
REMARK VINA RESULT: -7.211909314      1.589      1.746
REMARK  9 active torsions:
REMARK  status: ('A' for Active; 'I' for Inactive)
REMARK    1  A    between atoms: C5_5  and  C6_6 
REMARK    2  A    between atoms: C6_6  and  C7_7 
REMARK    3  A    between atoms: C7_7  and  C8_8 
REMARK    4  A    between atoms: C8_8  and  C9_9 
REMARK    5  A    between atoms: N4_18  and  C11_19 
REMARK    6  A    between atoms: C11_19  and  O1_20 
REMARK    7  A    between atoms: O1_20  and  C12_21 
REMARK    8  A    between atoms: C12_21  and  O2_22 
REMARK    9  A    between atoms: C14_26  and  C15_27 
ROOT
HETATM    1  C9  UNL     1      25.750  14.629  61.006  1.00  0.00     0.117 A 
HETATM    2  N1  UNL     1      25.911  13.355  61.372  1.00  0.00    -0.274 N 
ATOM      3  H1  UNL     1      26.685  12.750  61.097  1.00  0.00     0.189 HD
HETATM    4  N2  UNL     1      24.900  13.008  62.151  1.00  0.00    -0.131 N 
ATOM      5  H2  UNL     1      24.765  12.089  62.575  1.00  0.00     0.205 HD
HETATM    6  C10 UNL     1      24.073  14.070  62.295  1.00  0.00     0.695 A 
HETATM    7  N3  UNL     1      22.977  14.099  63.005  1.00  0.00    -0.233 N 
ATOM      8  H31 UNL     1      22.354  14.899  63.113  1.00  0.00     0.174 HD
ATOM      9  H32 UNL     1      22.582  13.330  63.545  1.00  0.00     0.174 HD
HETATM   10  N4  UNL     1      24.583  15.064  61.598  1.00  0.00    -0.148 N 
ENDROOT
BRANCH   1  11
HETATM   11  C8  UNL     1      26.597  15.486  60.122  1.00  0.00     0.082 C 
BRANCH  11  12
HETATM   12  C7  UNL     1      27.934  15.786  60.686  1.00  0.00     0.037 C 
BRANCH  12  13
HETATM   13  C6  UNL     1      27.982  17.189  61.236  1.00  0.00     0.003 C 
BRANCH  13  14
HETATM   14  C5  UNL     1      28.918  17.516  62.145  1.00  0.00     0.030 A 
HETATM   15  C4  UNL     1      30.001  16.656  62.269  1.00  0.00     0.030 A 
HETATM   16  C3  UNL     1      30.973  16.904  63.199  1.00  0.00     0.015 A 
HETATM   17  C2  UNL     1      30.859  18.040  64.028  1.00  0.00    -0.013 A 
HETATM   18  C1  UNL     1      31.793  18.226  64.923  1.00  0.00     0.026 C 
HETATM   19  C14 UNL     1      29.775  18.849  63.861  1.00  0.00     0.109 A 
HETATM   20  N5  UNL     1      28.811  18.584  62.919  1.00  0.00    -0.347 N 
HETATM   21  C13 UNL     1      27.743  19.530  62.743  1.00  0.00     0.156 C 
BRANCH  19  22
HETATM   22  C15 UNL     1      29.603  20.043  64.648  1.00  0.00     0.282 C 
HETATM   23  N6  UNL     1      30.049  21.347  64.393  1.00  0.00    -0.056 NA
HETATM   24  O3  UNL     1      28.943  19.929  65.747  1.00  0.00    -0.269 OA
ENDBRANCH  19  22
ENDBRANCH  13  14
ENDBRANCH  12  13
ENDBRANCH  11  12
ENDBRANCH   1  11
BRANCH  10  25
HETATM   25  C11 UNL     1      24.106  16.443  61.425  1.00  0.00     0.321 C 
BRANCH  25  26
HETATM   26  O1  UNL     1      24.602  17.335  62.293  1.00  0.00    -0.347 OA
BRANCH  26  27
HETATM   27  C12 UNL     1      24.166  17.438  63.558  1.00  0.00     0.336 C 
BRANCH  27  28
HETATM   28  O2  UNL     1      22.849  17.133  63.818  1.00  0.00    -0.377 OA
ATOM     29  H2  UNL     1      22.618  16.862  64.699  1.00  0.00     0.212 HD
ENDBRANCH  27  28
ENDBRANCH  26  27
ENDBRANCH  25  26
ENDBRANCH  10  25
TORSDOF 9
ENDMDL
MODEL 3
REMARK VINA RESULT: -7.154376890      2.156      6.050
REMARK  9 active torsions:
REMARK  status: ('A' for Active; 'I' for Inactive)
REMARK    1  A    between atoms: C5_5  and  C6_6 
REMARK    2  A    between atoms: C6_6  and  C7_7 
REMARK    3  A    between atoms: C7_7  and  C8_8 
REMARK    4  A    between atoms: C8_8  and  C9_9 
REMARK    5  A    between atoms: N4_18  and  C11_19 
REMARK    6  A    between atoms: C11_19  and  O1_20 
REMARK    7  A    between atoms: O1_20  and  C12_21 
REMARK    8  A    between atoms: C12_21  and  O2_22 
REMARK    9  A    between atoms: C14_26  and  C15_27 
ROOT
HETATM    1  C9  UNL     1      30.226  18.507  62.237  1.00  0.00     0.117 A 
HETATM    2  N1  UNL     1      29.988  19.379  61.253  1.00  0.00    -0.274 N 
ATOM      3  H1  UNL     1      30.125  19.205  60.258  1.00  0.00     0.189 HD
HETATM    4  N2  UNL     1      29.545  20.506  61.785  1.00  0.00    -0.131 N 
ATOM      5  H2  UNL     1      29.285  21.345  61.267  1.00  0.00     0.205 HD
HETATM    6  C10 UNL     1      29.492  20.365  63.131  1.00  0.00     0.695 A 
HETATM    7  N3  UNL     1      29.091  21.270  63.983  1.00  0.00    -0.233 N 
ATOM      8  H31 UNL     1      29.051  21.164  64.996  1.00  0.00     0.174 HD
ATOM      9  H32 UNL     1      28.769  22.213  63.762  1.00  0.00     0.174 HD
HETATM   10  N4  UNL     1      29.908  19.148  63.416  1.00  0.00    -0.148 N 
ENDROOT
BRANCH   1  11
HETATM   11  C8  UNL     1      30.751  17.110  62.173  1.00  0.00     0.082 C 
BRANCH  11  12
HETATM   12  C7  UNL     1      29.720  16.074  62.418  1.00  0.00     0.037 C 
BRANCH  12  13
HETATM   13  C6  UNL     1      28.637  16.137  61.372  1.00  0.00     0.003 C 
BRANCH  13  14
HETATM   14  C5  UNL     1      27.415  15.644  61.646  1.00  0.00     0.030 A 
HETATM   15  C4  UNL     1      27.291  14.261  61.685  1.00  0.00     0.030 A 
HETATM   16  C3  UNL     1      26.072  13.688  61.921  1.00  0.00     0.015 A 
HETATM   17  C2  UNL     1      24.947  14.517  62.121  1.00  0.00    -0.013 A 
HETATM   18  C1  UNL     1      23.796  13.929  62.315  1.00  0.00     0.026 C 
HETATM   19  C14 UNL     1      25.130  15.865  62.072  1.00  0.00     0.109 A 
HETATM   20  N5  UNL     1      26.364  16.423  61.836  1.00  0.00    -0.347 N 
HETATM   21  C13 UNL     1      26.492  17.854  61.886  1.00  0.00     0.156 C 
BRANCH  19  22
HETATM   22  C15 UNL     1      24.037  16.778  62.295  1.00  0.00     0.282 C 
HETATM   23  N6  UNL     1      23.635  17.409  63.480  1.00  0.00    -0.056 NA
HETATM   24  O3  UNL     1      23.311  17.081  61.276  1.00  0.00    -0.269 OA
ENDBRANCH  19  22
ENDBRANCH  13  14
ENDBRANCH  12  13
ENDBRANCH  11  12
ENDBRANCH   1  11
BRANCH  10  25
HETATM   25  C11 UNL     1      30.029  18.468  64.713  1.00  0.00     0.321 C 
BRANCH  25  26
HETATM   26  O1  UNL     1      28.918  18.454  65.461  1.00  0.00    -0.347 OA
BRANCH  26  27
HETATM   27  C12 UNL     1      27.877  17.646  65.201  1.00  0.00     0.336 C 
BRANCH  27  28
HETATM   28  O2  UNL     1      28.052  16.290  65.362  1.00  0.00    -0.377 OA
ATOM     29  H2  UNL     1      27.662  15.709  64.719  1.00  0.00     0.212 HD
ENDBRANCH  27  28
ENDBRANCH  26  27
ENDBRANCH  25  26
ENDBRANCH  10  25
TORSDOF 9
ENDMDL
MODEL 4
REMARK VINA RESULT: -7.115992704      2.435      2.914
REMARK  9 active torsions:
REMARK  status: ('A' for Active; 'I' for Inactive)
REMARK    1  A    between atoms: C5_5  and  C6_6 
REMARK    2  A    between atoms: C6_6  and  C7_7 
REMARK    3  A    between atoms: C7_7  and  C8_8 
REMARK    4  A    between atoms: C8_8  and  C9_9 
REMARK    5  A    between atoms: N4_18  and  C11_19 
REMARK    6  A    between atoms: C11_19  and  O1_20 
REMARK    7  A    between atoms: O1_20  and  C12_21 
REMARK    8  A    between atoms: C12_21  and  O2_22 
REMARK    9  A    between atoms: C14_26  and  C15_27 
ROOT
HETATM    1  C9  UNL     1      25.893  14.492  60.975  1.00  0.00     0.117 A 
HETATM    2  N1  UNL     1      25.965  13.226  61.395  1.00  0.00    -0.274 N 
ATOM      3  H1  UNL     1      26.709  12.565  61.169  1.00  0.00     0.189 HD
HETATM    4  N2  UNL     1      24.912  12.973  62.154  1.00  0.00    -0.131 N 
ATOM      5  H2  UNL     1      24.708  12.082  62.609  1.00  0.00     0.205 HD
HETATM    6  C10 UNL     1      24.147  14.087  62.229  1.00  0.00     0.695 A 
HETATM    7  N3  UNL     1      23.034  14.211  62.902  1.00  0.00    -0.233 N 
ATOM      8  H31 UNL     1      22.458  15.050  62.958  1.00  0.00     0.174 HD
ATOM      9  H32 UNL     1      22.576  13.489  63.459  1.00  0.00     0.174 HD
HETATM   10  N4  UNL     1      24.738  15.020  61.511  1.00  0.00    -0.148 N 
ENDROOT
BRANCH   1  11
HETATM   11  C8  UNL     1      26.816  15.260  60.085  1.00  0.00     0.082 C 
BRANCH  11  12
HETATM   12  C7  UNL     1      28.182  15.421  60.640  1.00  0.00     0.037 C 
BRANCH  12  13
HETATM   13  C6  UNL     1      28.300  16.712  61.407  1.00  0.00     0.003 C 
BRANCH  13  14
HETATM   14  C5  UNL     1      29.198  16.816  62.404  1.00  0.00     0.030 A 
HETATM   15  C4  UNL     1      30.519  17.040  62.038  1.00  0.00     0.030 A 
HETATM   16  C3  UNL     1      31.492  17.118  62.995  1.00  0.00     0.015 A 
HETATM   17  C2  UNL     1      31.139  16.966  64.353  1.00  0.00    -0.013 A 
HETATM   18  C1  UNL     1      32.103  17.020  65.233  1.00  0.00     0.026 C 
HETATM   19  C14 UNL     1      29.828  16.750  64.652  1.00  0.00     0.109 A 
HETATM   20  N5  UNL     1      28.863  16.677  63.676  1.00  0.00    -0.347 N 
HETATM   21  C13 UNL     1      27.490  16.533  64.077  1.00  0.00     0.156 C 
BRANCH  19  22
HETATM   22  C15 UNL     1      29.383  16.615  66.015  1.00  0.00     0.282 C 
HETATM   23  N6  UNL     1      29.278  15.463  66.806  1.00  0.00    -0.056 NA
HETATM   24  O3  UNL     1      29.030  17.693  66.624  1.00  0.00    -0.269 OA
ENDBRANCH  19  22
ENDBRANCH  13  14
ENDBRANCH  12  13
ENDBRANCH  11  12
ENDBRANCH   1  11
BRANCH  10  25
HETATM   25  C11 UNL     1      24.351  16.416  61.269  1.00  0.00     0.321 C 
BRANCH  25  26
HETATM   26  O1  UNL     1      23.408  16.902  62.087  1.00  0.00    -0.347 OA
BRANCH  26  27
HETATM   27  C12 UNL     1      23.686  17.401  63.302  1.00  0.00     0.336 C 
BRANCH  27  28
HETATM   28  O2  UNL     1      22.786  17.174  64.318  1.00  0.00    -0.377 OA
ATOM     29  H2  UNL     1      21.957  17.639  64.295  1.00  0.00     0.212 HD
ENDBRANCH  27  28
ENDBRANCH  26  27
ENDBRANCH  25  26
ENDBRANCH  10  25
TORSDOF 9
ENDMDL
MODEL 5
REMARK VINA RESULT: -7.114747044      1.806      2.168
REMARK  9 active torsions:
REMARK  status: ('A' for Active; 'I' for Inactive)
REMARK    1  A    between atoms: C5_5  and  C6_6 
REMARK    2  A    between atoms: C6_6  and  C7_7 
REMARK    3  A    between atoms: C7_7  and  C8_8 
REMARK    4  A    between atoms: C8_8  and  C9_9 
REMARK    5  A    between atoms: N4_18  and  C11_19 
REMARK    6  A    between atoms: C11_19  and  O1_20 
REMARK    7  A    between atoms: O1_20  and  C12_21 
REMARK    8  A    between atoms: C12_21  and  O2_22 
REMARK    9  A    between atoms: C14_26  and  C15_27 
ROOT
HETATM    1  C9  UNL     1      25.633  14.828  61.674  1.00  0.00     0.117 A 
HETATM    2  N1  UNL     1      24.790  14.452  60.708  1.00  0.00    -0.274 N 
ATOM      3  H1  UNL     1      24.934  13.676  60.062  1.00  0.00     0.189 HD
HETATM    4  N2  UNL     1      23.739  15.254  60.730  1.00  0.00    -0.131 N 
ATOM      5  H2  UNL     1      22.937  15.199  60.101  1.00  0.00     0.205 HD
HETATM    6  C10 UNL     1      23.899  16.161  61.723  1.00  0.00     0.695 A 
HETATM    7  N3  UNL     1      23.053  17.102  62.047  1.00  0.00    -0.233 N 
ATOM      8  H31 UNL     1      23.174  17.785  62.794  1.00  0.00     0.174 HD
ATOM      9  H32 UNL     1      22.159  17.297  61.597  1.00  0.00     0.174 HD
HETATM   10  N4  UNL     1      25.054  15.909  62.304  1.00  0.00    -0.148 N 
ENDROOT
BRANCH   1  11
HETATM   11  C8  UNL     1      26.965  14.267  62.055  1.00  0.00     0.082 C 
BRANCH  11  12
HETATM   12  C7  UNL     1      28.017  14.484  61.033  1.00  0.00     0.037 C 
BRANCH  12  13
HETATM   13  C6  UNL     1      28.194  15.953  60.749  1.00  0.00     0.003 C 
BRANCH  13  14
HETATM   14  C5  UNL     1      28.813  16.737  61.651  1.00  0.00     0.030 A 
HETATM   15  C4  UNL     1      29.755  16.128  62.469  1.00  0.00     0.030 A 
HETATM   16  C3  UNL     1      30.397  16.854  63.434  1.00  0.00     0.015 A 
HETATM   17  C2  UNL     1      30.088  18.222  63.589  1.00  0.00    -0.013 A 
HETATM   18  C1  UNL     1      30.702  18.872  64.541  1.00  0.00     0.026 C 
HETATM   19  C14 UNL     1      29.155  18.765  62.757  1.00  0.00     0.109 A 
HETATM   20  N5  UNL     1      28.524  18.020  61.791  1.00  0.00    -0.347 N 
HETATM   21  C13 UNL     1      27.615  18.684  60.896  1.00  0.00     0.156 C 
BRANCH  19  22
HETATM   22  C15 UNL     1      28.807  20.161  62.832  1.00  0.00     0.282 C 
HETATM   23  N6  UNL     1      29.437  21.266  62.245  1.00  0.00    -0.056 NA
HETATM   24  O3  UNL     1      27.767  20.468  63.526  1.00  0.00    -0.269 OA
ENDBRANCH  19  22
ENDBRANCH  13  14
ENDBRANCH  12  13
ENDBRANCH  11  12
ENDBRANCH   1  11
BRANCH  10  25
HETATM   25  C11 UNL     1      25.705  16.570  63.443  1.00  0.00     0.321 C 
BRANCH  25  26
HETATM   26  O1  UNL     1      25.347  17.844  63.650  1.00  0.00    -0.347 OA
BRANCH  26  27
HETATM   27  C12 UNL     1      24.739  18.255  64.774  1.00  0.00     0.336 C 
BRANCH  27  28
HETATM   28  O2  UNL     1      23.433  17.875  64.982  1.00  0.00    -0.377 OA
ATOM     29  H2  UNL     1      22.962  18.267  65.709  1.00  0.00     0.212 HD
ENDBRANCH  27  28
ENDBRANCH  26  27
ENDBRANCH  25  26
ENDBRANCH  10  25
TORSDOF 9
ENDMDL
