MODEL 1
REMARK VINA RESULT: -9.321602052      0.000      0.000
REMARK  5 active torsions:
REMARK  status: ('A' for Active; 'I' for Inactive)
REMARK    1  A    between atoms: C2_2  and  C3_3 
REMARK    2  A    between atoms: C3_3  and  C4_4 
REMARK    3  A    between atoms: C4_4  and  C5_5 
REMARK    4  A    between atoms: C11_13  and  C12_14 
REMARK       I    between atoms: C12_14  and  N1_16 
REMARK    5  A    between atoms: C14_23  and  C15_24 
ROOT
HETATM    1  C12 UNL     1      97.025  65.974  19.961  1.00  0.00     0.261 C 
HETATM    2  O2  UNL     1      98.090  66.567  19.615  1.00  0.00    -0.267 OA
HETATM    3  N1  UNL     1      95.803  66.217  19.310  1.00  0.00    -0.302 N 
ATOM      4  H1  UNL     1      94.963  66.263  19.888  1.00  0.00     0.171 HD
HETATM    5  C13 UNL     1      95.663  66.386  18.043  1.00  0.00     0.168 A 
HETATM    6  N2  UNL     1      96.556  66.377  17.061  1.00  0.00    -0.279 N 
ATOM      7  H2  UNL     1      97.538  66.193  17.264  1.00  0.00     0.189 HD
HETATM    8  N3  UNL     1      96.184  66.598  15.869  1.00  0.00    -0.295 N 
ATOM      9  H3  UNL     1      96.870  66.592  15.114  1.00  0.00     0.187 HD
HETATM   10  C14 UNL     1      94.908  66.838  15.597  1.00  0.00     0.077 A 
HETATM   11  S2  UNL     1      94.209  66.735  17.158  1.00  0.00    -0.037 SA
ENDROOT
BRANCH   1  12
HETATM   12  C11 UNL     1      97.075  65.035  21.046  1.00  0.00     0.082 A 
HETATM   13  C5  UNL     1      97.456  65.112  22.357  1.00  0.00     0.071 A 
HETATM   14  O1  UNL     1      97.337  63.929  22.941  1.00  0.00    -0.312 OA
HETATM   15  C6  UNL     1      96.879  63.017  22.068  1.00  0.00     0.100 A 
HETATM   16  C7  UNL     1      96.566  61.690  22.068  1.00  0.00    -0.020 A 
HETATM   17  C10 UNL     1      96.714  63.688  20.896  1.00  0.00     0.057 A 
HETATM   18  C8  UNL     1      96.700  60.784  23.290  1.00  0.00     0.052 C 
HETATM   19  C9  UNL     1      96.113  61.160  20.889  1.00  0.00     0.060 A 
HETATM   20  S1  UNL     1      96.134  62.497  19.828  1.00  0.00    -0.098 SA
BRANCH  13  21
HETATM   21  C4  UNL     1      97.928  66.367  23.005  1.00  0.00     0.066 C 
BRANCH  21  22
HETATM   22  C3  UNL     1      99.438  66.417  23.027  1.00  0.00     0.006 C 
BRANCH  22  23
HETATM   23  C2  UNL     1     100.013  65.855  24.285  1.00  0.00    -0.004 C 
HETATM   24  C1  UNL     1      99.277  66.335  25.504  1.00  0.00     0.005 C 
ENDBRANCH  22  23
ENDBRANCH  21  22
ENDBRANCH  13  21
ENDBRANCH   1  12
BRANCH  10  25
HETATM   25  C15 UNL     1      94.258  67.128  14.274  1.00  0.00    -0.001 C 
HETATM   26  C16 UNL     1      93.676  68.521  14.311  1.00  0.00     0.021 C 
HETATM   27  C17 UNL     1      95.198  66.928  13.120  1.00  0.00     0.021 C 
HETATM   28  C18 UNL     1      93.082  66.173  14.182  1.00  0.00     0.021 C 
ENDBRANCH  10  25
TORSDOF 5
ENDMDL
MODEL 2
REMARK VINA RESULT: -9.082628027      0.954      1.061
REMARK  5 active torsions:
REMARK  status: ('A' for Active; 'I' for Inactive)
REMARK    1  A    between atoms: C2_2  and  C3_3 
REMARK    2  A    between atoms: C3_3  and  C4_4 
REMARK    3  A    between atoms: C4_4  and  C5_5 
REMARK    4  A    between atoms: C11_13  and  C12_14 
REMARK       I    between atoms: C12_14  and  N1_16 
REMARK    5  A    between atoms: C14_23  and  C15_24 
ROOT
HETATM    1  C12 UNL     1      96.667  66.168  19.076  1.00  0.00     0.261 C 
HETATM    2  O2  UNL     1      97.706  66.616  18.506  1.00  0.00    -0.267 OA
HETATM    3  N1  UNL     1      95.378  66.479  18.607  1.00  0.00    -0.302 N 
ATOM      4  H1  UNL     1      94.655  66.662  19.303  1.00  0.00     0.171 HD
HETATM    5  C13 UNL     1      95.042  66.550  17.368  1.00  0.00     0.168 A 
HETATM    6  N2  UNL     1      95.753  66.363  16.262  1.00  0.00    -0.279 N 
ATOM      7  H2  UNL     1      96.735  66.097  16.324  1.00  0.00     0.189 HD
HETATM    8  N3  UNL     1      95.206  66.517  15.128  1.00  0.00    -0.295 N 
ATOM      9  H3  UNL     1      95.751  66.374  14.279  1.00  0.00     0.187 HD
HETATM   10  C14 UNL     1      93.929  66.863  15.039  1.00  0.00     0.077 A 
HETATM   11  S2  UNL     1      93.496  66.970  16.695  1.00  0.00    -0.037 SA
ENDROOT
BRANCH   1  12
HETATM   12  C11 UNL     1      96.816  65.328  20.230  1.00  0.00     0.082 A 
HETATM   13  C5  UNL     1      97.257  65.533  21.508  1.00  0.00     0.071 A 
HETATM   14  O1  UNL     1      97.226  64.399  22.193  1.00  0.00    -0.312 OA
HETATM   15  C6  UNL     1      96.771  63.396  21.423  1.00  0.00     0.100 A 
HETATM   16  C7  UNL     1      96.523  62.062  21.549  1.00  0.00    -0.020 A 
HETATM   17  C10 UNL     1      96.515  63.958  20.211  1.00  0.00     0.057 A 
HETATM   18  C8  UNL     1      96.762  61.269  22.832  1.00  0.00     0.052 C 
HETATM   19  C9  UNL     1      96.039  61.414  20.444  1.00  0.00     0.060 A 
HETATM   20  S1  UNL     1      95.942  62.656  19.277  1.00  0.00    -0.098 SA
BRANCH  13  21
HETATM   21  C4  UNL     1      97.698  66.857  22.025  1.00  0.00     0.066 C 
BRANCH  21  22
HETATM   22  C3  UNL     1      98.821  66.691  23.023  1.00  0.00     0.006 C 
BRANCH  22  23
HETATM   23  C2  UNL     1      98.418  67.067  24.410  1.00  0.00    -0.004 C 
HETATM   24  C1  UNL     1      99.193  66.305  25.447  1.00  0.00     0.005 C 
ENDBRANCH  22  23
ENDBRANCH  21  22
ENDBRANCH  13  21
ENDBRANCH   1  12
BRANCH  10  25
HETATM   25  C15 UNL     1      93.092  67.102  13.814  1.00  0.00    -0.001 C 
HETATM   26  C16 UNL     1      93.120  68.576  13.484  1.00  0.00     0.021 C 
HETATM   27  C17 UNL     1      93.519  66.245  12.657  1.00  0.00     0.021 C 
HETATM   28  C18 UNL     1      91.668  66.780  14.226  1.00  0.00     0.021 C 
ENDBRANCH  10  25
TORSDOF 5
ENDMDL
MODEL 3
REMARK VINA RESULT: -8.913042409      1.084      1.581
REMARK  5 active torsions:
REMARK  status: ('A' for Active; 'I' for Inactive)
REMARK    1  A    between atoms: C2_2  and  C3_3 
REMARK    2  A    between atoms: C3_3  and  C4_4 
REMARK    3  A    between atoms: C4_4  and  C5_5 
REMARK    4  A    between atoms: C11_13  and  C12_14 
REMARK       I    between atoms: C12_14  and  N1_16 
REMARK    5  A    between atoms: C14_23  and  C15_24 
ROOT
HETATM    1  C12 UNL     1      96.660  66.066  19.259  1.00  0.00     0.261 C 
HETATM    2  O2  UNL     1      97.698  66.562  18.729  1.00  0.00    -0.267 OA
HETATM    3  N1  UNL     1      95.375  66.342  18.760  1.00  0.00    -0.302 N 
ATOM      4  H1  UNL     1      94.626  66.483  19.438  1.00  0.00     0.171 HD
HETATM    5  C13 UNL     1      95.072  66.429  17.513  1.00  0.00     0.168 A 
HETATM    6  N2  UNL     1      95.820  66.291  16.424  1.00  0.00    -0.279 N 
ATOM      7  H2  UNL     1      96.809  66.058  16.510  1.00  0.00     0.189 HD
HETATM    8  N3  UNL     1      95.300  66.452  15.279  1.00  0.00    -0.295 N 
ATOM      9  H3  UNL     1      95.875  66.346  14.443  1.00  0.00     0.187 HD
HETATM   10  C14 UNL     1      94.015  66.755  15.160  1.00  0.00     0.077 A 
HETATM   11  S2  UNL     1      93.532  66.809  16.804  1.00  0.00    -0.037 SA
ENDROOT
BRANCH   1  12
HETATM   12  C11 UNL     1      96.806  65.206  20.399  1.00  0.00     0.082 A 
HETATM   13  C5  UNL     1      97.231  65.391  21.685  1.00  0.00     0.071 A 
HETATM   14  O1  UNL     1      97.205  64.244  22.349  1.00  0.00    -0.312 OA
HETATM   15  C6  UNL     1      96.769  63.251  21.555  1.00  0.00     0.100 A 
HETATM   16  C7  UNL     1      96.535  61.912  21.654  1.00  0.00    -0.020 A 
HETATM   17  C10 UNL     1      96.520  63.833  20.351  1.00  0.00     0.057 A 
HETATM   18  C8  UNL     1      96.769  61.098  22.924  1.00  0.00     0.052 C 
HETATM   19  C9  UNL     1      96.071  61.280  20.531  1.00  0.00     0.060 A 
HETATM   20  S1  UNL     1      95.973  62.543  19.387  1.00  0.00    -0.098 SA
BRANCH  13  21
HETATM   21  C4  UNL     1      97.651  66.710  22.232  1.00  0.00     0.066 C 
BRANCH  21  22
HETATM   22  C3  UNL     1      99.145  66.738  22.461  1.00  0.00     0.006 C 
BRANCH  22  23
HETATM   23  C2  UNL     1      99.900  67.231  21.272  1.00  0.00    -0.004 C 
HETATM   24  C1  UNL     1     101.335  66.788  21.293  1.00  0.00     0.005 C 
ENDBRANCH  22  23
ENDBRANCH  21  22
ENDBRANCH  13  21
ENDBRANCH   1  12
BRANCH  10  25
HETATM   25  C15 UNL     1      93.206  66.991  13.916  1.00  0.00    -0.001 C 
HETATM   26  C16 UNL     1      91.839  66.374  14.099  1.00  0.00     0.021 C 
HETATM   27  C17 UNL     1      93.136  68.446  13.549  1.00  0.00     0.021 C 
HETATM   28  C18 UNL     1      93.896  66.194  12.826  1.00  0.00     0.021 C 
ENDBRANCH  10  25
TORSDOF 5
ENDMDL
MODEL 4
REMARK VINA RESULT: -8.088034466      1.819      4.102
REMARK  5 active torsions:
REMARK  status: ('A' for Active; 'I' for Inactive)
REMARK    1  A    between atoms: C2_2  and  C3_3 
REMARK    2  A    between atoms: C3_3  and  C4_4 
REMARK    3  A    between atoms: C4_4  and  C5_5 
REMARK    4  A    between atoms: C11_13  and  C12_14 
REMARK       I    between atoms: C12_14  and  N1_16 
REMARK    5  A    between atoms: C14_23  and  C15_24 
ROOT
HETATM    1  C12 UNL     1      96.435  64.044  19.897  1.00  0.00     0.261 C 
HETATM    2  O2  UNL     1      95.591  63.172  19.534  1.00  0.00    -0.267 OA
HETATM    3  N1  UNL     1      97.001  64.946  18.979  1.00  0.00    -0.302 N 
ATOM      4  H1  UNL     1      97.992  65.166  19.085  1.00  0.00     0.171 HD
HETATM    5  C13 UNL     1      96.365  65.516  18.018  1.00  0.00     0.168 A 
HETATM    6  N2  UNL     1      95.094  65.428  17.644  1.00  0.00    -0.279 N 
ATOM      7  H2  UNL     1      94.445  64.845  18.171  1.00  0.00     0.189 HD
HETATM    8  N3  UNL     1      94.690  66.073  16.629  1.00  0.00    -0.295 N 
ATOM      9  H3  UNL     1      93.714  66.006  16.342  1.00  0.00     0.187 HD
HETATM   10  C14 UNL     1      95.529  66.834  15.939  1.00  0.00     0.077 A 
HETATM   11  S2  UNL     1      96.985  66.603  16.813  1.00  0.00    -0.037 SA
ENDROOT
BRANCH   1  12
HETATM   12  C11 UNL     1      96.822  64.103  21.278  1.00  0.00     0.082 A 
HETATM   13  C5  UNL     1      96.606  63.301  22.364  1.00  0.00     0.071 A 
HETATM   14  O1  UNL     1      97.165  63.828  23.444  1.00  0.00    -0.312 OA
HETATM   15  C6  UNL     1      97.773  64.987  23.141  1.00  0.00     0.100 A 
HETATM   16  C7  UNL     1      98.487  65.949  23.790  1.00  0.00    -0.020 A 
HETATM   17  C10 UNL     1      97.569  65.165  21.808  1.00  0.00     0.057 A 
HETATM   18  C8  UNL     1      98.802  65.914  25.284  1.00  0.00     0.052 C 
HETATM   19  C9  UNL     1      98.931  67.005  23.039  1.00  0.00     0.060 A 
HETATM   20  S1  UNL     1      98.355  66.637  21.475  1.00  0.00    -0.098 SA
BRANCH  13  21
HETATM   21  C4  UNL     1      95.848  62.021  22.305  1.00  0.00     0.066 C 
BRANCH  21  22
HETATM   22  C3  UNL     1      96.787  60.858  22.083  1.00  0.00     0.006 C 
BRANCH  22  23
HETATM   23  C2  UNL     1      96.669  60.278  20.713  1.00  0.00    -0.004 C 
HETATM   24  C1  UNL     1      97.090  58.836  20.674  1.00  0.00     0.005 C 
ENDBRANCH  22  23
ENDBRANCH  21  22
ENDBRANCH  13  21
ENDBRANCH   1  12
BRANCH  10  25
HETATM   25  C15 UNL     1      95.267  67.668  14.717  1.00  0.00    -0.001 C 
HETATM   26  C16 UNL     1      95.099  66.752  13.528  1.00  0.00     0.021 C 
HETATM   27  C17 UNL     1      94.099  68.595  14.898  1.00  0.00     0.021 C 
HETATM   28  C18 UNL     1      96.545  68.451  14.480  1.00  0.00     0.021 C 
ENDBRANCH  10  25
TORSDOF 5
ENDMDL
MODEL 5
REMARK VINA RESULT: -8.001538579      1.936      4.098
REMARK  5 active torsions:
REMARK  status: ('A' for Active; 'I' for Inactive)
REMARK    1  A    between atoms: C2_2  and  C3_3 
REMARK    2  A    between atoms: C3_3  and  C4_4 
REMARK    3  A    between atoms: C4_4  and  C5_5 
REMARK    4  A    between atoms: C11_13  and  C12_14 
REMARK       I    between atoms: C12_14  and  N1_16 
REMARK    5  A    between atoms: C14_23  and  C15_24 
ROOT
HETATM    1  C12 UNL     1      96.343  64.024  19.767  1.00  0.00     0.261 C 
HETATM    2  O2  UNL     1      96.251  62.894  19.202  1.00  0.00    -0.267 OA
HETATM    3  N1  UNL     1      96.066  65.217  19.076  1.00  0.00    -0.302 N 
ATOM      4  H1  UNL     1      96.668  66.020  19.260  1.00  0.00     0.171 HD
HETATM    5  C13 UNL     1      95.110  65.373  18.229  1.00  0.00     0.168 A 
HETATM    6  N2  UNL     1      94.182  64.526  17.799  1.00  0.00    -0.279 N 
ATOM      7  H2  UNL     1      94.144  63.577  18.171  1.00  0.00     0.189 HD
HETATM    8  N3  UNL     1      93.345  64.901  16.924  1.00  0.00    -0.295 N 
ATOM      9  H3  UNL     1      92.632  64.251  16.593  1.00  0.00     0.187 HD
HETATM   10  C14 UNL     1      93.388  66.133  16.436  1.00  0.00     0.077 A 
HETATM   11  S2  UNL     1      94.720  66.786  17.296  1.00  0.00    -0.037 SA
ENDROOT
BRANCH   1  12
HETATM   12  C11 UNL     1      96.744  64.082  21.143  1.00  0.00     0.082 A 
HETATM   13  C5  UNL     1      96.539  63.279  22.231  1.00  0.00     0.071 A 
HETATM   14  O1  UNL     1      97.110  63.804  23.306  1.00  0.00    -0.312 OA
HETATM   15  C6  UNL     1      97.716  64.963  22.998  1.00  0.00     0.100 A 
HETATM   16  C7  UNL     1      98.437  65.925  23.640  1.00  0.00    -0.020 A 
HETATM   17  C10 UNL     1      97.497  65.144  21.667  1.00  0.00     0.057 A 
HETATM   18  C8  UNL     1      98.768  65.888  25.130  1.00  0.00     0.052 C 
HETATM   19  C9  UNL     1      98.874  66.981  22.885  1.00  0.00     0.060 A 
HETATM   20  S1  UNL     1      98.280  66.615  21.327  1.00  0.00    -0.098 SA
BRANCH  13  21
HETATM   21  C4  UNL     1      95.780  61.999  22.179  1.00  0.00     0.066 C 
BRANCH  21  22
HETATM   22  C3  UNL     1      96.727  60.823  22.117  1.00  0.00     0.006 C 
BRANCH  22  23
HETATM   23  C2  UNL     1      96.693  60.126  20.798  1.00  0.00    -0.004 C 
HETATM   24  C1  UNL     1      97.119  58.690  20.908  1.00  0.00     0.005 C 
ENDBRANCH  22  23
ENDBRANCH  21  22
ENDBRANCH  13  21
ENDBRANCH   1  12
BRANCH  10  25
HETATM   25  C15 UNL     1      92.508  66.777  15.403  1.00  0.00    -0.001 C 
HETATM   26  C16 UNL     1      93.183  68.031  14.899  1.00  0.00     0.021 C 
HETATM   27  C17 UNL     1      92.147  65.832  14.292  1.00  0.00     0.021 C 
HETATM   28  C18 UNL     1      91.267  67.228  16.151  1.00  0.00     0.021 C 
ENDBRANCH  10  25
TORSDOF 5
ENDMDL
