MODEL 1
REMARK VINA RESULT: -6.852718693      0.000      0.000
REMARK  4 active torsions:
REMARK  status: ('A' for Active; 'I' for Inactive)
REMARK    1  A    between atoms: C2_2  and  S1_3 
REMARK    2  A    between atoms: S1_3  and  C3_4 
REMARK    3  A    between atoms: C3_4  and  O1_5 
REMARK    4  A    between atoms: O1_5  and  C4_6 
ROOT
HETATM    1  S1  UNL     1      15.719  -5.721  22.273  1.00  0.00    -0.107 SA
ENDROOT
BRANCH   1   2
HETATM    2  C2  UNL     1      16.636  -4.272  22.781  1.00  0.00     0.002 C 
HETATM    3  C1  UNL     1      17.539  -3.733  21.947  1.00  0.00    -0.009 C 
HETATM    4  C11 UNL     1      18.315  -2.528  22.344  1.00  0.00     0.055 C 
HETATM    5  C10 UNL     1      18.454  -2.606  23.869  1.00  0.00     0.236 C 
HETATM    6  N1  UNL     1      17.084  -2.489  24.379  1.00  0.00    -0.071 N 
HETATM    7  C9  UNL     1      16.365  -3.709  24.121  1.00  0.00     0.277 C 
ATOM      8  H12 UNL     1      16.602  -1.673  24.002  1.00  0.00     0.277 HD
ATOM      9  H11 UNL     1      17.062  -2.231  25.365  1.00  0.00     0.277 HD
ENDBRANCH   1   2
BRANCH   1  10
HETATM   10  C3  UNL     1      16.543  -6.597  20.973  1.00  0.00     0.249 C 
BRANCH  10  11
HETATM   11  O1  UNL     1      16.427  -7.955  20.976  1.00  0.00    -0.351 OA
BRANCH  11  12
HETATM   12  C4  UNL     1      16.637  -8.572  19.757  1.00  0.00     0.260 C 
HETATM   13  C5  UNL     1      18.018  -8.236  19.299  1.00  0.00     0.061 C 
HETATM   14  C6  UNL     1      19.023  -9.322  19.613  1.00  0.00     0.007 C 
HETATM   15  C7  UNL     1      18.590  -9.942  20.923  1.00  0.00     0.026 C 
HETATM   16  C8  UNL     1      17.273 -10.632  20.669  1.00  0.00     0.171 C 
HETATM   17  O2  UNL     1      16.404  -9.910  19.928  1.00  0.00    -0.361 OA
ENDBRANCH  11  12
ENDBRANCH  10  11
ENDBRANCH   1  10
TORSDOF 4
ENDMDL
MODEL 2
REMARK VINA RESULT: -6.772976868      1.001      1.562
REMARK  4 active torsions:
REMARK  status: ('A' for Active; 'I' for Inactive)
REMARK    1  A    between atoms: C2_2  and  S1_3 
REMARK    2  A    between atoms: S1_3  and  C3_4 
REMARK    3  A    between atoms: C3_4  and  O1_5 
REMARK    4  A    between atoms: O1_5  and  C4_6 
ROOT
HETATM    1  S1  UNL     1      14.793  -6.244  22.033  1.00  0.00    -0.107 SA
ENDROOT
BRANCH   1   2
HETATM    2  C2  UNL     1      15.749  -4.999  22.891  1.00  0.00     0.002 C 
HETATM    3  C1  UNL     1      15.374  -4.603  24.117  1.00  0.00    -0.009 C 
HETATM    4  C11 UNL     1      16.150  -3.570  24.853  1.00  0.00     0.055 C 
HETATM    5  C10 UNL     1      16.759  -2.662  23.777  1.00  0.00     0.236 C 
HETATM    6  N1  UNL     1      17.683  -3.526  23.034  1.00  0.00    -0.071 N 
HETATM    7  C9  UNL     1      16.937  -4.440  22.211  1.00  0.00     0.277 C 
ATOM      8  H12 UNL     1      18.336  -4.010  23.650  1.00  0.00     0.277 HD
ATOM      9  H11 UNL     1      18.361  -2.988  22.495  1.00  0.00     0.277 HD
ENDBRANCH   1   2
BRANCH   1  10
HETATM   10  C3  UNL     1      15.656  -6.875  20.621  1.00  0.00     0.249 C 
BRANCH  10  11
HETATM   11  O1  UNL     1      16.277  -8.080  20.769  1.00  0.00    -0.351 OA
BRANCH  11  12
HETATM   12  C4  UNL     1      16.646  -8.705  19.593  1.00  0.00     0.260 C 
HETATM   13  C5  UNL     1      18.063  -8.338  19.296  1.00  0.00     0.061 C 
HETATM   14  C6  UNL     1      19.050  -9.393  19.743  1.00  0.00     0.007 C 
HETATM   15  C7  UNL     1      18.481 -10.009  21.002  1.00  0.00     0.026 C 
HETATM   16  C8  UNL     1      17.221 -10.737  20.605  1.00  0.00     0.171 C 
HETATM   17  O2  UNL     1      16.428 -10.047  19.755  1.00  0.00    -0.361 OA
ENDBRANCH  11  12
ENDBRANCH  10  11
ENDBRANCH   1  10
TORSDOF 4
ENDMDL
MODEL 3
REMARK VINA RESULT: -6.697974221      2.722      3.241
REMARK  4 active torsions:
REMARK  status: ('A' for Active; 'I' for Inactive)
REMARK    1  A    between atoms: C2_2  and  S1_3 
REMARK    2  A    between atoms: S1_3  and  C3_4 
REMARK    3  A    between atoms: C3_4  and  O1_5 
REMARK    4  A    between atoms: O1_5  and  C4_6 
ROOT
HETATM    1  S1  UNL     1      15.359  -5.606  20.392  1.00  0.00    -0.107 SA
ENDROOT
BRANCH   1   2
HETATM    2  C2  UNL     1      14.292  -5.468  21.821  1.00  0.00     0.002 C 
HETATM    3  C1  UNL     1      14.668  -6.017  22.986  1.00  0.00    -0.009 C 
HETATM    4  C11 UNL     1      13.799  -5.917  24.188  1.00  0.00     0.055 C 
HETATM    5  C10 UNL     1      12.361  -5.860  23.660  1.00  0.00     0.236 C 
HETATM    6  N1  UNL     1      12.287  -4.606  22.903  1.00  0.00    -0.071 N 
HETATM    7  C9  UNL     1      13.012  -4.742  21.667  1.00  0.00     0.277 C 
ATOM      8  H12 UNL     1      12.607  -3.807  23.449  1.00  0.00     0.277 HD
ATOM      9  H11 UNL     1      11.325  -4.305  22.752  1.00  0.00     0.277 HD
ENDBRANCH   1   2
BRANCH   1  10
HETATM   10  C3  UNL     1      16.706  -6.719  20.686  1.00  0.00     0.249 C 
BRANCH  10  11
HETATM   11  O1  UNL     1      16.410  -8.050  20.702  1.00  0.00    -0.351 OA
BRANCH  11  12
HETATM   12  C4  UNL     1      16.741  -8.746  19.555  1.00  0.00     0.260 C 
HETATM   13  C5  UNL     1      18.161  -8.431  19.214  1.00  0.00     0.061 C 
HETATM   14  C6  UNL     1      19.130  -9.487  19.699  1.00  0.00     0.007 C 
HETATM   15  C7  UNL     1      18.570 -10.020  20.999  1.00  0.00     0.026 C 
HETATM   16  C8  UNL     1      17.285 -10.736  20.662  1.00  0.00     0.171 C 
HETATM   17  O2  UNL     1      16.493 -10.071  19.791  1.00  0.00    -0.361 OA
ENDBRANCH  11  12
ENDBRANCH  10  11
ENDBRANCH   1  10
TORSDOF 4
ENDMDL
MODEL 4
REMARK VINA RESULT: -6.590243946      4.965      6.278
REMARK  4 active torsions:
REMARK  status: ('A' for Active; 'I' for Inactive)
REMARK    1  A    between atoms: C2_2  and  S1_3 
REMARK    2  A    between atoms: S1_3  and  C3_4 
REMARK    3  A    between atoms: C3_4  and  O1_5 
REMARK    4  A    between atoms: O1_5  and  C4_6 
ROOT
HETATM    1  S1  UNL     1      16.502  -3.466  24.846  1.00  0.00    -0.107 SA
ENDROOT
BRANCH   1   2
HETATM    2  C2  UNL     1      14.974  -4.084  24.152  1.00  0.00     0.002 C 
HETATM    3  C1  UNL     1      14.745  -5.406  24.125  1.00  0.00    -0.009 C 
HETATM    4  C11 UNL     1      13.483  -5.946  23.554  1.00  0.00     0.055 C 
HETATM    5  C10 UNL     1      13.059  -4.952  22.465  1.00  0.00     0.236 C 
HETATM    6  N1  UNL     1      12.771  -3.706  23.185  1.00  0.00    -0.071 N 
HETATM    7  C9  UNL     1      14.002  -3.104  23.622  1.00  0.00     0.277 C 
ATOM      8  H12 UNL     1      12.119  -3.850  23.955  1.00  0.00     0.277 HD
ATOM      9  H11 UNL     1      12.205  -3.065  22.630  1.00  0.00     0.277 HD
ENDBRANCH   1   2
BRANCH   1  10
HETATM   10  C3  UNL     1      17.651  -2.991  23.585  1.00  0.00     0.249 C 
BRANCH  10  11
HETATM   11  O1  UNL     1      17.378  -1.840  22.907  1.00  0.00    -0.351 OA
BRANCH  11  12
HETATM   12  C4  UNL     1      17.988  -1.720  21.672  1.00  0.00     0.260 C 
HETATM   13  C5  UNL     1      17.746  -2.981  20.910  1.00  0.00     0.061 C 
HETATM   14  C6  UNL     1      16.587  -2.871  19.944  1.00  0.00     0.007 C 
HETATM   15  C7  UNL     1      15.574  -1.952  20.591  1.00  0.00     0.026 C 
HETATM   16  C8  UNL     1      16.206  -0.584  20.665  1.00  0.00     0.171 C 
HETATM   17  O2  UNL     1      17.493  -0.591  21.077  1.00  0.00    -0.361 OA
ENDBRANCH  11  12
ENDBRANCH  10  11
ENDBRANCH   1  10
TORSDOF 4
ENDMDL
MODEL 5
REMARK VINA RESULT: -6.520215068      4.961      6.606
REMARK  4 active torsions:
REMARK  status: ('A' for Active; 'I' for Inactive)
REMARK    1  A    between atoms: C2_2  and  S1_3 
REMARK    2  A    between atoms: S1_3  and  C3_4 
REMARK    3  A    between atoms: C3_4  and  O1_5 
REMARK    4  A    between atoms: O1_5  and  C4_6 
ROOT
HETATM    1  S1  UNL     1      13.437  -1.422  21.741  1.00  0.00    -0.107 SA
ENDROOT
BRANCH   1   2
HETATM    2  C2  UNL     1      11.688  -1.379  22.115  1.00  0.00     0.002 C 
HETATM    3  C1  UNL     1      11.285  -1.310  23.393  1.00  0.00    -0.009 C 
HETATM    4  C11 UNL     1       9.838  -1.273  23.732  1.00  0.00     0.055 C 
HETATM    5  C10 UNL     1       9.130  -2.059  22.623  1.00  0.00     0.236 C 
HETATM    6  N1  UNL     1       9.362  -1.279  21.402  1.00  0.00    -0.071 N 
HETATM    7  C9  UNL     1      10.732  -1.423  20.988  1.00  0.00     0.277 C 
ATOM      8  H12 UNL     1       9.095  -0.302  21.514  1.00  0.00     0.277 HD
ATOM      9  H11 UNL     1       8.708  -1.526  20.659  1.00  0.00     0.277 HD
ENDBRANCH   1   2
BRANCH   1  10
HETATM   10  C3  UNL     1      14.312  -2.520  22.820  1.00  0.00     0.249 C 
BRANCH  10  11
HETATM   11  O1  UNL     1      15.000  -3.540  22.233  1.00  0.00    -0.351 OA
BRANCH  11  12
HETATM   12  C4  UNL     1      15.993  -4.109  23.008  1.00  0.00     0.260 C 
HETATM   13  C5  UNL     1      15.441  -4.335  24.377  1.00  0.00     0.061 C 
HETATM   14  C6  UNL     1      14.963  -5.754  24.592  1.00  0.00     0.007 C 
HETATM   15  C7  UNL     1      14.412  -6.228  23.265  1.00  0.00     0.026 C 
HETATM   16  C8  UNL     1      15.576  -6.304  22.308  1.00  0.00     0.171 C 
HETATM   17  O2  UNL     1      16.413  -5.245  22.369  1.00  0.00    -0.361 OA
ENDBRANCH  11  12
ENDBRANCH  10  11
ENDBRANCH   1  10
TORSDOF 4
ENDMDL
