MODEL 1
REMARK VINA RESULT: -7.849247000      0.000      0.000
REMARK  11 active torsions:
REMARK  status: ('A' for Active; 'I' for Inactive)
REMARK    1  A    between atoms: C2_2  and  C3_3 
REMARK    2  A    between atoms: C8_8  and  C9_9 
REMARK    3  A    between atoms: N1_10  and  N2_12 
REMARK       I    between atoms: N2_12  and  C10_14 
REMARK       I    between atoms: C10_14  and  N3_16 
REMARK    4  A    between atoms: N3_16  and  O2_18 
REMARK    5  A    between atoms: C13_22  and  O4_23 
REMARK    6  A    between atoms: O4_23  and  C14_24 
REMARK    7  A    between atoms: C16_26  and  O5_27 
REMARK    8  A    between atoms: C17_29  and  O6_30 
REMARK    9  A    between atoms: C18_32  and  C19_33 
REMARK   10  A    between atoms: C19_33  and  O7_34 
REMARK   11  A    between atoms: C20_37  and  O9_38 
ROOT
HETATM    1  C3  UNL     1      10.212  49.204  23.996  1.00  0.00     0.044 A 
HETATM    2  C4  UNL     1      10.322  48.191  22.898  1.00  0.00     0.025 A 
HETATM    3  C5  UNL     1      10.785  47.162  23.913  1.00  0.00     0.025 A 
HETATM    4  C6  UNL     1      12.124  46.573  23.656  1.00  0.00     0.008 C 
HETATM    5  C7  UNL     1      13.269  47.340  24.250  1.00  0.00     0.013 C 
HETATM    6  C8  UNL     1      12.987  47.792  25.659  1.00  0.00     0.058 C 
HETATM    7  C12 UNL     1      11.833  48.732  25.615  1.00  0.00     0.169 C 
HETATM    8  O3  UNL     1      12.238  49.868  24.931  1.00  0.00    -0.351 OA
HETATM    9  C13 UNL     1      11.263  50.249  24.054  1.00  0.00     0.275 C 
HETATM   10  C20 UNL     1      10.654  48.143  24.981  1.00  0.00     0.100 A 
ENDROOT
BRANCH   9  11
HETATM   11  O4  UNL     1      11.844  50.366  22.787  1.00  0.00    -0.331 OA
BRANCH  11  12
HETATM   12  C14 UNL     1      11.842  51.672  22.318  1.00  0.00     0.266 C 
HETATM   13  C15 UNL     1      12.875  52.464  23.114  1.00  0.00     0.095 C 
HETATM   14  C16 UNL     1      14.214  51.914  22.723  1.00  0.00     0.154 C 
HETATM   15  C17 UNL     1      14.400  52.034  21.246  1.00  0.00     0.178 C 
HETATM   16  C18 UNL     1      13.205  51.772  20.413  1.00  0.00     0.179 C 
HETATM   17  O8  UNL     1      11.983  51.839  20.987  1.00  0.00    -0.351 OA
BRANCH  14  18
HETATM   18  O5  UNL     1      14.368  50.638  23.222  1.00  0.00    -0.393 OA
ATOM     19  H5  UNL     1      15.275  50.367  23.156  1.00  0.00     0.210 HD
ENDBRANCH  14  18
BRANCH  15  20
HETATM   20  O6  UNL     1      14.928  53.322  21.002  1.00  0.00    -0.390 OA
ATOM     21  H6  UNL     1      14.618  53.590  20.145  1.00  0.00     0.210 HD
ENDBRANCH  15  20
BRANCH  16  22
HETATM   22  C19 UNL     1      13.436  50.473  19.641  1.00  0.00     0.198 C 
BRANCH  22  23
HETATM   23  O7  UNL     1      13.670  49.409  20.510  1.00  0.00    -0.398 OA
ATOM     24  H7  UNL     1      12.925  48.820  20.537  1.00  0.00     0.209 HD
ENDBRANCH  22  23
ENDBRANCH  16  22
ENDBRANCH  11  12
ENDBRANCH   9  11
BRANCH   1  25
HETATM   25  C2  UNL     1       8.793  49.677  24.162  1.00  0.00     0.013 C 
HETATM   26  C1  UNL     1       8.640  51.163  24.107  1.00  0.00     0.006 C 
ENDBRANCH   1  25
BRANCH  10  27
HETATM   27  O9  UNL     1       9.577  47.869  25.857  1.00  0.00    -0.386 OA
ATOM     28  H9  UNL     1       9.924  47.756  26.734  1.00  0.00     0.210 HD
ENDBRANCH  10  27
BRANCH   6  29
HETATM   29  C9  UNL     1      12.749  46.624  26.539  1.00  0.00     0.087 C 
HETATM   30  N1  UNL     1      12.120  46.732  27.640  1.00  0.00    -0.311 N 
ATOM     31  H1  UNL     1      11.774  47.651  27.917  1.00  0.00     0.185 HD
BRANCH  30  32
HETATM   32  N2  UNL     1      11.885  45.650  28.479  1.00  0.00    -0.251 N 
HETATM   33  C10 UNL     1      10.572  45.185  28.730  1.00  0.00     0.358 C 
HETATM   34  O1  UNL     1       9.558  45.726  28.206  1.00  0.00    -0.243 OA
HETATM   35  N3  UNL     1      10.378  44.083  29.587  1.00  0.00    -0.216 N 
ATOM     36  H3  UNL     1      11.180  43.627  30.024  1.00  0.00     0.199 HD
ATOM     37  H2  UNL     1      12.675  45.181  28.924  1.00  0.00     0.191 HD
BRANCH  35  38
HETATM   38  O2  UNL     1       9.135  43.635  29.829  1.00  0.00    -0.281 OA
HETATM   39  C11 UNL     1       9.077  42.942  31.037  1.00  0.00     0.237 C 
ENDBRANCH  35  38
ENDBRANCH  30  32
ENDBRANCH   6  29
TORSDOF 11
ENDMDL
MODEL 2
REMARK VINA RESULT: -7.406511267      1.639      2.682
REMARK  11 active torsions:
REMARK  status: ('A' for Active; 'I' for Inactive)
REMARK    1  A    between atoms: C2_2  and  C3_3 
REMARK    2  A    between atoms: C8_8  and  C9_9 
REMARK    3  A    between atoms: N1_10  and  N2_12 
REMARK       I    between atoms: N2_12  and  C10_14 
REMARK       I    between atoms: C10_14  and  N3_16 
REMARK    4  A    between atoms: N3_16  and  O2_18 
REMARK    5  A    between atoms: C13_22  and  O4_23 
REMARK    6  A    between atoms: O4_23  and  C14_24 
REMARK    7  A    between atoms: C16_26  and  O5_27 
REMARK    8  A    between atoms: C17_29  and  O6_30 
REMARK    9  A    between atoms: C18_32  and  C19_33 
REMARK   10  A    between atoms: C19_33  and  O7_34 
REMARK   11  A    between atoms: C20_37  and  O9_38 
ROOT
HETATM    1  C3  UNL     1      11.277  50.195  23.075  1.00  0.00     0.044 A 
HETATM    2  C4  UNL     1      10.267  49.520  22.198  1.00  0.00     0.025 A 
HETATM    3  C5  UNL     1      10.496  48.225  22.957  1.00  0.00     0.025 A 
HETATM    4  C6  UNL     1      10.961  47.080  22.134  1.00  0.00     0.008 C 
HETATM    5  C7  UNL     1      12.450  46.986  21.978  1.00  0.00     0.013 C 
HETATM    6  C8  UNL     1      13.180  47.229  23.274  1.00  0.00     0.058 C 
HETATM    7  C12 UNL     1      12.892  48.626  23.704  1.00  0.00     0.169 C 
HETATM    8  O3  UNL     1      13.473  49.481  22.780  1.00  0.00    -0.351 OA
HETATM    9  C13 UNL     1      12.601  50.486  22.473  1.00  0.00     0.275 C 
HETATM   10  C20 UNL     1      11.459  48.892  23.822  1.00  0.00     0.100 A 
ENDROOT
BRANCH   9  11
HETATM   11  O4  UNL     1      12.459  50.525  21.082  1.00  0.00    -0.331 OA
BRANCH  11  12
HETATM   12  C14 UNL     1      13.598  50.090  20.418  1.00  0.00     0.266 C 
HETATM   13  C15 UNL     1      13.210  49.751  18.982  1.00  0.00     0.095 C 
HETATM   14  C16 UNL     1      12.852  51.052  18.328  1.00  0.00     0.154 C 
HETATM   15  C17 UNL     1      14.006  51.996  18.412  1.00  0.00     0.178 C 
HETATM   16  C18 UNL     1      14.779  51.974  19.674  1.00  0.00     0.179 C 
HETATM   17  O8  UNL     1      14.680  50.893  20.480  1.00  0.00    -0.351 OA
BRANCH  14  18
HETATM   18  O5  UNL     1      11.671  51.537  18.849  1.00  0.00    -0.393 OA
ATOM     19  H5  UNL     1      11.687  52.486  18.868  1.00  0.00     0.210 HD
ENDBRANCH  14  18
BRANCH  15  20
HETATM   20  O6  UNL     1      14.832  51.734  17.295  1.00  0.00    -0.390 OA
ATOM     21  H6  UNL     1      15.681  51.473  17.634  1.00  0.00     0.210 HD
ENDBRANCH  15  20
BRANCH  16  22
HETATM   22  C19 UNL     1      14.536  53.294  20.406  1.00  0.00     0.198 C 
BRANCH  22  23
HETATM   23  O7  UNL     1      13.174  53.572  20.499  1.00  0.00    -0.398 OA
ATOM     24  H7  UNL     1      13.009  54.268  21.124  1.00  0.00     0.209 HD
ENDBRANCH  22  23
ENDBRANCH  16  22
ENDBRANCH  11  12
ENDBRANCH   9  11
BRANCH   1  25
HETATM   25  C2  UNL     1      10.649  51.307  23.873  1.00  0.00     0.013 C 
HETATM   26  C1  UNL     1       9.229  51.591  23.505  1.00  0.00     0.006 C 
ENDBRANCH   1  25
BRANCH  10  27
HETATM   27  O9  UNL     1      10.989  49.065  25.145  1.00  0.00    -0.386 OA
ATOM     28  H9  UNL     1      11.667  48.776  25.745  1.00  0.00     0.210 HD
ENDBRANCH  10  27
BRANCH   6  29
HETATM   29  C9  UNL     1      12.788  46.219  24.285  1.00  0.00     0.087 C 
HETATM   30  N1  UNL     1      12.801  46.480  25.530  1.00  0.00    -0.311 N 
ATOM     31  H1  UNL     1      13.089  47.410  25.833  1.00  0.00     0.185 HD
BRANCH  30  32
HETATM   32  N2  UNL     1      12.437  45.548  26.495  1.00  0.00    -0.251 N 
HETATM   33  C10 UNL     1      11.243  45.690  27.241  1.00  0.00     0.358 C 
HETATM   34  O1  UNL     1      10.455  46.662  27.068  1.00  0.00    -0.243 OA
HETATM   35  N3  UNL     1      10.911  44.721  28.210  1.00  0.00    -0.216 N 
ATOM     36  H3  UNL     1      11.529  43.926  28.371  1.00  0.00     0.199 HD
ATOM     37  H2  UNL     1      13.043  44.745  26.669  1.00  0.00     0.191 HD
BRANCH  35  38
HETATM   38  O2  UNL     1       9.778  44.848  28.921  1.00  0.00    -0.281 OA
HETATM   39  C11 UNL     1       9.851  44.129  30.113  1.00  0.00     0.237 C 
ENDBRANCH  35  38
ENDBRANCH  30  32
ENDBRANCH   6  29
TORSDOF 11
ENDMDL
MODEL 3
REMARK VINA RESULT: -7.350902405      1.392      2.070
REMARK  11 active torsions:
REMARK  status: ('A' for Active; 'I' for Inactive)
REMARK    1  A    between atoms: C2_2  and  C3_3 
REMARK    2  A    between atoms: C8_8  and  C9_9 
REMARK    3  A    between atoms: N1_10  and  N2_12 
REMARK       I    between atoms: N2_12  and  C10_14 
REMARK       I    between atoms: C10_14  and  N3_16 
REMARK    4  A    between atoms: N3_16  and  O2_18 
REMARK    5  A    between atoms: C13_22  and  O4_23 
REMARK    6  A    between atoms: O4_23  and  C14_24 
REMARK    7  A    between atoms: C16_26  and  O5_27 
REMARK    8  A    between atoms: C17_29  and  O6_30 
REMARK    9  A    between atoms: C18_32  and  C19_33 
REMARK   10  A    between atoms: C19_33  and  O7_34 
REMARK   11  A    between atoms: C20_37  and  O9_38 
ROOT
HETATM    1  C3  UNL     1      10.511  49.419  23.237  1.00  0.00     0.044 A 
HETATM    2  C4  UNL     1      10.331  48.307  22.249  1.00  0.00     0.025 A 
HETATM    3  C5  UNL     1      10.817  47.320  23.295  1.00  0.00     0.025 A 
HETATM    4  C6  UNL     1      12.022  46.537  22.918  1.00  0.00     0.008 C 
HETATM    5  C7  UNL     1      13.326  47.195  23.261  1.00  0.00     0.013 C 
HETATM    6  C8  UNL     1      13.318  47.804  24.639  1.00  0.00     0.058 C 
HETATM    7  C12 UNL     1      12.291  48.882  24.655  1.00  0.00     0.169 C 
HETATM    8  O3  UNL     1      12.720  49.887  23.803  1.00  0.00    -0.351 OA
HETATM    9  C13 UNL     1      11.675  50.316  23.035  1.00  0.00     0.275 C 
HETATM   10  C20 UNL     1      10.967  48.401  24.259  1.00  0.00     0.100 A 
ENDROOT
BRANCH   9  11
HETATM   11  O4  UNL     1      12.067  50.242  21.694  1.00  0.00    -0.331 OA
BRANCH  11  12
HETATM   12  C14 UNL     1      12.780  51.359  21.284  1.00  0.00     0.266 C 
HETATM   13  C15 UNL     1      13.778  50.920  20.216  1.00  0.00     0.095 C 
HETATM   14  C16 UNL     1      12.962  50.522  19.023  1.00  0.00     0.154 C 
HETATM   15  C17 UNL     1      12.108  51.668  18.587  1.00  0.00     0.178 C 
HETATM   16  C18 UNL     1      11.514  52.488  19.666  1.00  0.00     0.179 C 
HETATM   17  O8  UNL     1      12.059  52.433  20.902  1.00  0.00    -0.351 OA
BRANCH  14  18
HETATM   18  O5  UNL     1      12.274  49.356  19.285  1.00  0.00    -0.393 OA
ATOM     19  H5  UNL     1      11.426  49.555  19.664  1.00  0.00     0.210 HD
ENDBRANCH  14  18
BRANCH  15  20
HETATM   20  O6  UNL     1      12.891  52.453  17.711  1.00  0.00    -0.390 OA
ATOM     21  H6  UNL     1      13.621  52.788  18.218  1.00  0.00     0.210 HD
ENDBRANCH  15  20
BRANCH  16  22
HETATM   22  C19 UNL     1      10.003  52.257  19.665  1.00  0.00     0.198 C 
BRANCH  22  23
HETATM   23  O7  UNL     1       9.699  50.926  19.942  1.00  0.00    -0.398 OA
ATOM     24  H7  UNL     1      10.166  50.622  20.711  1.00  0.00     0.209 HD
ENDBRANCH  22  23
ENDBRANCH  16  22
ENDBRANCH  11  12
ENDBRANCH   9  11
BRANCH   1  25
HETATM   25  C2  UNL     1       9.199  50.091  23.547  1.00  0.00     0.013 C 
HETATM   26  C1  UNL     1       9.271  51.584  23.558  1.00  0.00     0.006 C 
ENDBRANCH   1  25
BRANCH  10  27
HETATM   27  O9  UNL     1      10.011  48.351  25.300  1.00  0.00    -0.386 OA
ATOM     28  H9  UNL     1       9.445  47.602  25.153  1.00  0.00     0.210 HD
ENDBRANCH  10  27
BRANCH   6  29
HETATM   29  C9  UNL     1      13.079  46.760  25.664  1.00  0.00     0.087 C 
HETATM   30  N1  UNL     1      12.350  46.979  26.684  1.00  0.00    -0.311 N 
ATOM     31  H1  UNL     1      11.923  47.899  26.792  1.00  0.00     0.185 HD
BRANCH  30  32
HETATM   32  N2  UNL     1      12.113  46.015  27.656  1.00  0.00    -0.251 N 
HETATM   33  C10 UNL     1      10.799  45.718  28.091  1.00  0.00     0.358 C 
HETATM   34  O1  UNL     1       9.787  46.309  27.621  1.00  0.00    -0.243 OA
HETATM   35  N3  UNL     1      10.602  44.732  29.080  1.00  0.00    -0.216 N 
ATOM     36  H3  UNL     1      11.402  44.239  29.478  1.00  0.00     0.199 HD
ATOM     37  H2  UNL     1      12.901  45.511  28.064  1.00  0.00     0.191 HD
BRANCH  35  38
HETATM   38  O2  UNL     1       9.359  44.443  29.497  1.00  0.00    -0.281 OA
HETATM   39  C11 UNL     1       9.383  43.558  30.574  1.00  0.00     0.237 C 
ENDBRANCH  35  38
ENDBRANCH  30  32
ENDBRANCH   6  29
TORSDOF 11
ENDMDL
MODEL 4
REMARK VINA RESULT: -7.255695963      1.705      3.159
REMARK  11 active torsions:
REMARK  status: ('A' for Active; 'I' for Inactive)
REMARK    1  A    between atoms: C2_2  and  C3_3 
REMARK    2  A    between atoms: C8_8  and  C9_9 
REMARK    3  A    between atoms: N1_10  and  N2_12 
REMARK       I    between atoms: N2_12  and  C10_14 
REMARK       I    between atoms: C10_14  and  N3_16 
REMARK    4  A    between atoms: N3_16  and  O2_18 
REMARK    5  A    between atoms: C13_22  and  O4_23 
REMARK    6  A    between atoms: O4_23  and  C14_24 
REMARK    7  A    between atoms: C16_26  and  O5_27 
REMARK    8  A    between atoms: C17_29  and  O6_30 
REMARK    9  A    between atoms: C18_32  and  C19_33 
REMARK   10  A    between atoms: C19_33  and  O7_34 
REMARK   11  A    between atoms: C20_37  and  O9_38 
ROOT
HETATM    1  C3  UNL     1      12.962  50.395  23.296  1.00  0.00     0.044 A 
HETATM    2  C4  UNL     1      11.567  50.762  23.700  1.00  0.00     0.025 A 
HETATM    3  C5  UNL     1      11.621  49.707  24.790  1.00  0.00     0.025 A 
HETATM    4  C6  UNL     1      10.582  48.649  24.702  1.00  0.00     0.008 C 
HETATM    5  C7  UNL     1      10.961  47.469  23.856  1.00  0.00     0.013 C 
HETATM    6  C8  UNL     1      12.375  47.011  24.110  1.00  0.00     0.058 C 
HETATM    7  C12 UNL     1      13.290  48.118  23.717  1.00  0.00     0.169 C 
HETATM    8  O3  UNL     1      13.190  48.282  22.345  1.00  0.00    -0.351 OA
HETATM    9  C13 UNL     1      13.116  49.613  22.045  1.00  0.00     0.275 C 
HETATM   10  C20 UNL     1      12.985  49.370  24.409  1.00  0.00     0.100 A 
ENDROOT
BRANCH   9  11
HETATM   11  O4  UNL     1      11.981  49.814  21.251  1.00  0.00    -0.331 OA
BRANCH  11  12
HETATM   12  C14 UNL     1      12.186  49.454  19.927  1.00  0.00     0.266 C 
HETATM   13  C15 UNL     1      10.925  49.797  19.141  1.00  0.00     0.095 C 
HETATM   14  C16 UNL     1      10.837  51.294  19.126  1.00  0.00     0.154 C 
HETATM   15  C17 UNL     1      12.076  51.869  18.520  1.00  0.00     0.178 C 
HETATM   16  C18 UNL     1      13.346  51.191  18.863  1.00  0.00     0.179 C 
HETATM   17  O8  UNL     1      13.303  49.925  19.336  1.00  0.00    -0.351 OA
BRANCH  14  18
HETATM   18  O5  UNL     1      10.540  51.765  20.388  1.00  0.00    -0.393 OA
ATOM     19  H5  UNL     1      10.113  52.611  20.329  1.00  0.00     0.210 HD
ENDBRANCH  14  18
BRANCH  15  20
HETATM   20  O6  UNL     1      11.870  51.906  17.123  1.00  0.00    -0.390 OA
ATOM     21  H6  UNL     1      12.728  51.882  16.716  1.00  0.00     0.210 HD
ENDBRANCH  15  20
BRANCH  16  22
HETATM   22  C19 UNL     1      14.168  52.133  19.743  1.00  0.00     0.198 C 
BRANCH  22  23
HETATM   23  O7  UNL     1      15.345  51.521  20.169  1.00  0.00    -0.398 OA
ATOM     24  H7  UNL     1      15.737  52.000  20.890  1.00  0.00     0.209 HD
ENDBRANCH  22  23
ENDBRANCH  16  22
ENDBRANCH  11  12
ENDBRANCH   9  11
BRANCH   1  25
HETATM   25  C2  UNL     1      13.905  51.555  23.476  1.00  0.00     0.013 C 
HETATM   26  C1  UNL     1      13.258  52.893  23.313  1.00  0.00     0.006 C 
ENDBRANCH   1  25
BRANCH  10  27
HETATM   27  O9  UNL     1      13.944  49.773  25.369  1.00  0.00    -0.386 OA
ATOM     28  H9  UNL     1      13.500  50.273  26.045  1.00  0.00     0.210 HD
ENDBRANCH  10  27
BRANCH   6  29
HETATM   29  C9  UNL     1      12.538  46.599  25.524  1.00  0.00     0.087 C 
HETATM   30  N1  UNL     1      12.138  45.465  25.941  1.00  0.00    -0.311 N 
ATOM     31  H1  UNL     1      11.694  44.829  25.278  1.00  0.00     0.185 HD
BRANCH  30  32
HETATM   32  N2  UNL     1      12.281  45.058  27.262  1.00  0.00    -0.251 N 
HETATM   33  C10 UNL     1      11.205  45.137  28.176  1.00  0.00     0.358 C 
HETATM   34  O1  UNL     1      10.069  45.577  27.839  1.00  0.00    -0.243 OA
HETATM   35  N3  UNL     1      11.392  44.713  29.508  1.00  0.00    -0.216 N 
ATOM     36  H3  UNL     1      12.299  44.354  29.807  1.00  0.00     0.199 HD
ATOM     37  H2  UNL     1      13.181  44.695  27.578  1.00  0.00     0.191 HD
BRANCH  35  38
HETATM   38  O2  UNL     1      10.375  44.783  30.382  1.00  0.00    -0.281 OA
HETATM   39  C11 UNL     1      10.667  44.082  31.550  1.00  0.00     0.237 C 
ENDBRANCH  35  38
ENDBRANCH  30  32
ENDBRANCH   6  29
TORSDOF 11
ENDMDL
MODEL 5
REMARK VINA RESULT: -7.248210751      0.924      1.951
REMARK  11 active torsions:
REMARK  status: ('A' for Active; 'I' for Inactive)
REMARK    1  A    between atoms: C2_2  and  C3_3 
REMARK    2  A    between atoms: C8_8  and  C9_9 
REMARK    3  A    between atoms: N1_10  and  N2_12 
REMARK       I    between atoms: N2_12  and  C10_14 
REMARK       I    between atoms: C10_14  and  N3_16 
REMARK    4  A    between atoms: N3_16  and  O2_18 
REMARK    5  A    between atoms: C13_22  and  O4_23 
REMARK    6  A    between atoms: O4_23  and  C14_24 
REMARK    7  A    between atoms: C16_26  and  O5_27 
REMARK    8  A    between atoms: C17_29  and  O6_30 
REMARK    9  A    between atoms: C18_32  and  C19_33 
REMARK   10  A    between atoms: C19_33  and  O7_34 
REMARK   11  A    between atoms: C20_37  and  O9_38 
ROOT
HETATM    1  C3  UNL     1      10.322  49.435  23.707  1.00  0.00     0.044 A 
HETATM    2  C4  UNL     1      10.059  48.453  22.607  1.00  0.00     0.025 A 
HETATM    3  C5  UNL     1      10.545  47.334  23.510  1.00  0.00     0.025 A 
HETATM    4  C6  UNL     1      11.703  46.558  22.994  1.00  0.00     0.008 C 
HETATM    5  C7  UNL     1      13.044  47.125  23.354  1.00  0.00     0.013 C 
HETATM    6  C8  UNL     1      13.114  47.569  24.792  1.00  0.00     0.058 C 
HETATM    7  C12 UNL     1      12.132  48.673  24.976  1.00  0.00     0.169 C 
HETATM    8  O3  UNL     1      12.568  49.756  24.228  1.00  0.00    -0.351 OA
HETATM    9  C13 UNL     1      11.512  50.307  23.559  1.00  0.00     0.275 C 
HETATM   10  C20 UNL     1      10.776  48.289  24.584  1.00  0.00     0.100 A 
ENDROOT
BRANCH   9  11
HETATM   11  O4  UNL     1      11.849  50.376  22.203  1.00  0.00    -0.331 OA
BRANCH  11  12
HETATM   12  C14 UNL     1      13.217  50.283  21.988  1.00  0.00     0.266 C 
HETATM   13  C15 UNL     1      13.478  50.489  20.499  1.00  0.00     0.095 C 
HETATM   14  C16 UNL     1      13.137  51.920  20.210  1.00  0.00     0.154 C 
HETATM   15  C17 UNL     1      13.955  52.821  21.076  1.00  0.00     0.178 C 
HETATM   16  C18 UNL     1      14.180  52.366  22.466  1.00  0.00     0.179 C 
HETATM   17  O8  UNL     1      14.006  51.058  22.759  1.00  0.00    -0.351 OA
BRANCH  14  18
HETATM   18  O5  UNL     1      11.774  52.112  20.303  1.00  0.00    -0.393 OA
ATOM     19  H5  UNL     1      11.565  53.031  20.191  1.00  0.00     0.210 HD
ENDBRANCH  14  18
BRANCH  15  20
HETATM   20  O6  UNL     1      15.177  53.042  20.400  1.00  0.00    -0.390 OA
ATOM     21  H6  UNL     1      15.478  53.908  20.648  1.00  0.00     0.210 HD
ENDBRANCH  15  20
BRANCH  16  22
HETATM   22  C19 UNL     1      13.415  53.299  23.404  1.00  0.00     0.198 C 
BRANCH  22  23
HETATM   23  O7  UNL     1      14.255  54.273  23.938  1.00  0.00    -0.398 OA
ATOM     24  H7  UNL     1      14.756  53.930  24.668  1.00  0.00     0.209 HD
ENDBRANCH  22  23
ENDBRANCH  16  22
ENDBRANCH  11  12
ENDBRANCH   9  11
BRANCH   1  25
HETATM   25  C2  UNL     1       9.051  50.112  24.148  1.00  0.00     0.013 C 
HETATM   26  C1  UNL     1       8.963  51.551  23.753  1.00  0.00     0.006 C 
ENDBRANCH   1  25
BRANCH  10  27
HETATM   27  O9  UNL     1       9.859  48.153  25.653  1.00  0.00    -0.386 OA
ATOM     28  H9  UNL     1      10.194  48.635  26.400  1.00  0.00     0.210 HD
ENDBRANCH  10  27
BRANCH   6  29
HETATM   29  C9  UNL     1      12.872  46.422  25.700  1.00  0.00     0.087 C 
HETATM   30  N1  UNL     1      12.352  46.578  26.850  1.00  0.00    -0.311 N 
ATOM     31  H1  UNL     1      12.098  47.519  27.149  1.00  0.00     0.185 HD
BRANCH  30  32
HETATM   32  N2  UNL     1      12.117  45.517  27.717  1.00  0.00    -0.251 N 
HETATM   33  C10 UNL     1      10.828  45.272  28.246  1.00  0.00     0.358 C 
HETATM   34  O1  UNL     1       9.836  46.000  27.959  1.00  0.00    -0.243 OA
HETATM   35  N3  UNL     1      10.632  44.184  29.121  1.00  0.00    -0.216 N 
ATOM     36  H3  UNL     1      11.416  43.580  29.370  1.00  0.00     0.199 HD
ATOM     37  H2  UNL     1      12.889  44.902  27.976  1.00  0.00     0.191 HD
BRANCH  35  38
HETATM   38  O2  UNL     1       9.411  43.944  29.627  1.00  0.00    -0.281 OA
HETATM   39  C11 UNL     1       9.496  43.367  30.893  1.00  0.00     0.237 C 
ENDBRANCH  35  38
ENDBRANCH  30  32
ENDBRANCH   6  29
TORSDOF 11
ENDMDL
