MODEL 1
REMARK VINA RESULT: -7.279428315      0.000      0.000
REMARK  12 active torsions:
REMARK  status: ('A' for Active; 'I' for Inactive)
REMARK       I    between atoms: C1_4  and  N3_6 
REMARK    1  A    between atoms: N3_6  and  C2_8 
REMARK    2  A    between atoms: C2_8  and  C3_9 
REMARK    3  A    between atoms: C2_8  and  C8_15 
REMARK    4  A    between atoms: C3_9  and  C4_10 
REMARK    5  A    between atoms: C4_10  and  C5_11 
REMARK    6  A    between atoms: C5_11  and  C6_12 
REMARK    7  A    between atoms: C6_12  and  C7_13 
REMARK    8  A    between atoms: C8_15  and  N4_16 
REMARK    9  A    between atoms: C8_15  and  N5_19 
REMARK   10  A    between atoms: N5_19  and  C9_21 
REMARK   11  A    between atoms: C9_21  and  C10_23 
REMARK       I    between atoms: C10_23  and  N6_25 
REMARK   12  A    between atoms: C14_30  and  C15_31 
ROOT
HETATM    1  C8  UNL     1      15.873 -12.924  21.707  1.00  0.00     0.124 C 
ENDROOT
BRANCH   1   2
HETATM    2  C2  UNL     1      14.503 -12.800  21.347  1.00  0.00     0.074 C 
BRANCH   2   3
HETATM    3  N3  UNL     1      13.564 -13.665  22.094  1.00  0.00    -0.328 N 
HETATM    4  C1  UNL     1      12.913 -14.794  21.607  1.00  0.00     0.186 C 
HETATM    5  N1  UNL     1      12.994 -15.862  22.393  1.00  0.00    -0.373 N 
HETATM    6  N2  UNL     1      12.191 -14.980  20.424  1.00  0.00    -0.064 NA
ATOM      7  H12 UNL     1      12.517 -16.691  22.036  1.00  0.00     0.158 HD
ATOM      8  H11 UNL     1      13.521 -15.727  23.256  1.00  0.00     0.158 HD
ATOM      9  H3  UNL     1      13.375 -13.408  23.063  1.00  0.00     0.168 HD
ENDBRANCH   2   3
BRANCH   2  10
HETATM   10  C3  UNL     1      13.803 -11.532  21.139  1.00  0.00     0.007 C 
BRANCH  10  11
HETATM   11  C4  UNL     1      13.336 -10.673  22.220  1.00  0.00     0.029 C 
BRANCH  11  12
HETATM   12  C5  UNL     1      11.869 -10.624  22.509  1.00  0.00     0.006 C 
BRANCH  12  13
HETATM   13  C6  UNL     1      11.584 -10.479  23.999  1.00  0.00     0.032 C 
BRANCH  13  14
HETATM   14  C7  UNL     1      12.108  -9.188  24.566  1.00  0.00     0.222 C 
HETATM   15  F1  UNL     1      11.033  -8.508  25.147  1.00  0.00    -0.255 F 
ENDBRANCH  13  14
ENDBRANCH  12  13
ENDBRANCH  11  12
ENDBRANCH  10  11
ENDBRANCH   2  10
ENDBRANCH   1   2
BRANCH   1  16
HETATM   16  N4  UNL     1      16.827 -12.194  21.311  1.00  0.00    -0.384 N 
ATOM     17  H42 UNL     1      17.432 -12.669  20.642  1.00  0.00     0.157 HD
ATOM     18  H41 UNL     1      17.024 -11.237  21.606  1.00  0.00     0.157 HD
ENDBRANCH   1  16
BRANCH   1  19
HETATM   19  N5  UNL     1      16.309 -13.958  22.637  1.00  0.00    -0.337 N 
ATOM     20  H5  UNL     1      16.020 -13.877  23.612  1.00  0.00     0.164 HD
BRANCH  19  21
HETATM   21  C9  UNL     1      17.113 -15.072  22.270  1.00  0.00     0.364 C 
HETATM   22  F2  UNL     1      16.927 -15.271  20.896  1.00  0.00    -0.216 F 
BRANCH  21  23
HETATM   23  C10 UNL     1      18.543 -14.842  22.560  1.00  0.00     0.274 C 
HETATM   24  O1  UNL     1      19.220 -14.298  21.622  1.00  0.00    -0.268 OA
HETATM   25  N6  UNL     1      19.198 -15.169  23.768  1.00  0.00    -0.340 N 
HETATM   26  C11 UNL     1      20.622 -14.887  23.982  1.00  0.00     0.163 C 
HETATM   27  C14 UNL     1      18.661 -15.769  24.958  1.00  0.00     0.100 C 
HETATM   28  C12 UNL     1      20.767 -14.723  25.456  1.00  0.00     0.190 C 
HETATM   29  F3  UNL     1      21.078 -13.420  25.801  1.00  0.00    -0.248 F 
HETATM   30  C13 UNL     1      19.424 -15.056  26.075  1.00  0.00     0.065 C 
BRANCH  27  31
HETATM   31  C15 UNL     1      18.810 -17.249  25.068  1.00  0.00     0.110 C 
HETATM   32 BR1  UNL     1      18.548 -17.947  26.844  1.00  0.00    -0.094 Br
ENDBRANCH  27  31
ENDBRANCH  21  23
ENDBRANCH  19  21
ENDBRANCH   1  19
TORSDOF 12
ENDMDL
MODEL 2
REMARK VINA RESULT: -7.175447195      1.246      1.885
REMARK  12 active torsions:
REMARK  status: ('A' for Active; 'I' for Inactive)
REMARK       I    between atoms: C1_4  and  N3_6 
REMARK    1  A    between atoms: N3_6  and  C2_8 
REMARK    2  A    between atoms: C2_8  and  C3_9 
REMARK    3  A    between atoms: C2_8  and  C8_15 
REMARK    4  A    between atoms: C3_9  and  C4_10 
REMARK    5  A    between atoms: C4_10  and  C5_11 
REMARK    6  A    between atoms: C5_11  and  C6_12 
REMARK    7  A    between atoms: C6_12  and  C7_13 
REMARK    8  A    between atoms: C8_15  and  N4_16 
REMARK    9  A    between atoms: C8_15  and  N5_19 
REMARK   10  A    between atoms: N5_19  and  C9_21 
REMARK   11  A    between atoms: C9_21  and  C10_23 
REMARK       I    between atoms: C10_23  and  N6_25 
REMARK   12  A    between atoms: C14_30  and  C15_31 
ROOT
HETATM    1  C8  UNL     1      14.922 -13.561  21.998  1.00  0.00     0.124 C 
ENDROOT
BRANCH   1   2
HETATM    2  C2  UNL     1      14.800 -12.296  21.358  1.00  0.00     0.074 C 
BRANCH   2   3
HETATM    3  N3  UNL     1      15.418 -12.195  20.018  1.00  0.00    -0.328 N 
HETATM    4  C1  UNL     1      14.965 -12.801  18.850  1.00  0.00     0.186 C 
HETATM    5  N1  UNL     1      14.881 -11.989  17.802  1.00  0.00    -0.373 N 
HETATM    6  N2  UNL     1      14.584 -14.124  18.609  1.00  0.00    -0.064 NA
ATOM      7  H12 UNL     1      14.548 -12.433  16.946  1.00  0.00     0.158 HD
ATOM      8  H11 UNL     1      15.158 -11.023  17.978  1.00  0.00     0.158 HD
ATOM      9  H3  UNL     1      16.260 -11.625  19.942  1.00  0.00     0.168 HD
ENDBRANCH   2   3
BRANCH   2  10
HETATM   10  C3  UNL     1      13.572 -11.504  21.296  1.00  0.00     0.007 C 
BRANCH  10  11
HETATM   11  C4  UNL     1      13.017 -10.772  22.428  1.00  0.00     0.029 C 
BRANCH  11  12
HETATM   12  C5  UNL     1      11.840 -11.353  23.145  1.00  0.00     0.006 C 
BRANCH  12  13
HETATM   13  C6  UNL     1      11.433 -10.514  24.350  1.00  0.00     0.032 C 
BRANCH  13  14
HETATM   14  C7  UNL     1      12.202  -9.225  24.446  1.00  0.00     0.222 C 
HETATM   15  F1  UNL     1      11.441  -8.326  25.200  1.00  0.00    -0.255 F 
ENDBRANCH  13  14
ENDBRANCH  12  13
ENDBRANCH  11  12
ENDBRANCH  10  11
ENDBRANCH   2  10
ENDBRANCH   1   2
BRANCH   1  16
HETATM   16  N4  UNL     1      14.029 -14.452  22.085  1.00  0.00    -0.384 N 
ATOM     17  H42 UNL     1      13.121 -14.071  22.353  1.00  0.00     0.157 HD
ATOM     18  H41 UNL     1      14.150 -15.453  21.931  1.00  0.00     0.157 HD
ENDBRANCH   1  16
BRANCH   1  19
HETATM   19  N5  UNL     1      16.174 -13.962  22.626  1.00  0.00    -0.337 N 
ATOM     20  H5  UNL     1      16.465 -13.470  23.471  1.00  0.00     0.164 HD
BRANCH  19  21
HETATM   21  C9  UNL     1      17.017 -14.996  22.134  1.00  0.00     0.364 C 
HETATM   22  F2  UNL     1      16.844 -15.034  20.746  1.00  0.00    -0.216 F 
BRANCH  21  23
HETATM   23  C10 UNL     1      18.437 -14.756  22.463  1.00  0.00     0.274 C 
HETATM   24  O1  UNL     1      19.128 -14.180  21.554  1.00  0.00    -0.268 OA
HETATM   25  N6  UNL     1      19.070 -15.103  23.677  1.00  0.00    -0.340 N 
HETATM   26  C11 UNL     1      20.485 -14.809  23.929  1.00  0.00     0.163 C 
HETATM   27  C14 UNL     1      18.514 -15.739  24.840  1.00  0.00     0.100 C 
HETATM   28  C12 UNL     1      20.594 -14.679  25.410  1.00  0.00     0.190 C 
HETATM   29  F3  UNL     1      20.880 -13.381  25.793  1.00  0.00    -0.248 F 
HETATM   30  C13 UNL     1      19.242 -15.043  25.990  1.00  0.00     0.065 C 
BRANCH  27  31
HETATM   31  C15 UNL     1      18.680 -17.219  24.918  1.00  0.00     0.110 C 
HETATM   32 BR1  UNL     1      18.486 -17.951  26.688  1.00  0.00    -0.094 Br
ENDBRANCH  27  31
ENDBRANCH  21  23
ENDBRANCH  19  21
ENDBRANCH   1  19
TORSDOF 12
ENDMDL
MODEL 3
REMARK VINA RESULT: -7.158095922      2.763      3.234
REMARK  12 active torsions:
REMARK  status: ('A' for Active; 'I' for Inactive)
REMARK       I    between atoms: C1_4  and  N3_6 
REMARK    1  A    between atoms: N3_6  and  C2_8 
REMARK    2  A    between atoms: C2_8  and  C3_9 
REMARK    3  A    between atoms: C2_8  and  C8_15 
REMARK    4  A    between atoms: C3_9  and  C4_10 
REMARK    5  A    between atoms: C4_10  and  C5_11 
REMARK    6  A    between atoms: C5_11  and  C6_12 
REMARK    7  A    between atoms: C6_12  and  C7_13 
REMARK    8  A    between atoms: C8_15  and  N4_16 
REMARK    9  A    between atoms: C8_15  and  N5_19 
REMARK   10  A    between atoms: N5_19  and  C9_21 
REMARK   11  A    between atoms: C9_21  and  C10_23 
REMARK       I    between atoms: C10_23  and  N6_25 
REMARK   12  A    between atoms: C14_30  and  C15_31 
ROOT
HETATM    1  C8  UNL     1      14.192 -12.598  19.717  1.00  0.00     0.124 C 
ENDROOT
BRANCH   1   2
HETATM    2  C2  UNL     1      13.249 -12.152  20.685  1.00  0.00     0.074 C 
BRANCH   2   3
HETATM    3  N3  UNL     1      12.712 -13.198  21.584  1.00  0.00    -0.328 N 
HETATM    4  C1  UNL     1      12.628 -14.560  21.312  1.00  0.00     0.186 C 
HETATM    5  N1  UNL     1      13.097 -15.347  22.273  1.00  0.00    -0.373 N 
HETATM    6  N2  UNL     1      12.130 -15.226  20.188  1.00  0.00    -0.064 NA
ATOM      7  H12 UNL     1      13.036 -16.345  22.074  1.00  0.00     0.158 HD
ATOM      8  H11 UNL     1      13.461 -14.860  23.093  1.00  0.00     0.158 HD
ATOM      9  H3  UNL     1      12.370 -12.889  22.493  1.00  0.00     0.168 HD
ENDBRANCH   2   3
BRANCH   2  10
HETATM   10  C3  UNL     1      13.396 -10.951  21.507  1.00  0.00     0.007 C 
BRANCH  10  11
HETATM   11  C4  UNL     1      12.292 -10.296  22.197  1.00  0.00     0.029 C 
BRANCH  11  12
HETATM   12  C5  UNL     1      12.517  -9.798  23.589  1.00  0.00     0.006 C 
BRANCH  12  13
HETATM   13  C6  UNL     1      11.389 -10.203  24.531  1.00  0.00     0.032 C 
BRANCH  13  14
HETATM   14  C7  UNL     1      11.186 -11.692  24.586  1.00  0.00     0.222 C 
HETATM   15  F1  UNL     1      11.146 -12.069  25.932  1.00  0.00    -0.255 F 
ENDBRANCH  13  14
ENDBRANCH  12  13
ENDBRANCH  11  12
ENDBRANCH  10  11
ENDBRANCH   2  10
ENDBRANCH   1   2
BRANCH   1  16
HETATM   16  N4  UNL     1      14.375 -12.115  18.563  1.00  0.00    -0.384 N 
ATOM     17  H42 UNL     1      13.648 -11.452  18.297  1.00  0.00     0.157 HD
ATOM     18  H41 UNL     1      15.137 -12.340  17.924  1.00  0.00     0.157 HD
ENDBRANCH   1  16
BRANCH   1  19
HETATM   19  N5  UNL     1      15.094 -13.705  20.010  1.00  0.00    -0.337 N 
ATOM     20  H5  UNL     1      14.734 -14.654  19.909  1.00  0.00     0.164 HD
BRANCH  19  21
HETATM   21  C9  UNL     1      16.443 -13.544  20.429  1.00  0.00     0.364 C 
HETATM   22  F2  UNL     1      16.731 -12.176  20.353  1.00  0.00    -0.216 F 
BRANCH  21  23
HETATM   23  C10 UNL     1      16.658 -14.033  21.806  1.00  0.00     0.274 C 
HETATM   24  O1  UNL     1      15.768 -13.696  22.660  1.00  0.00    -0.268 OA
HETATM   25  N6  UNL     1      17.743 -14.828  22.236  1.00  0.00    -0.340 N 
HETATM   26  C11 UNL     1      17.869 -15.289  23.623  1.00  0.00     0.163 C 
HETATM   27  C14 UNL     1      18.850 -15.339  21.476  1.00  0.00     0.100 C 
HETATM   28  C12 UNL     1      18.654 -16.553  23.540  1.00  0.00     0.190 C 
HETATM   29  F3  UNL     1      17.891 -17.656  23.880  1.00  0.00    -0.248 F 
HETATM   30  C13 UNL     1      19.084 -16.717  22.096  1.00  0.00     0.065 C 
BRANCH  27  31
HETATM   31  C15 UNL     1      20.096 -14.520  21.504  1.00  0.00     0.110 C 
HETATM   32 BR1  UNL     1      20.251 -13.255  20.060  1.00  0.00    -0.094 Br
ENDBRANCH  27  31
ENDBRANCH  21  23
ENDBRANCH  19  21
ENDBRANCH   1  19
TORSDOF 12
ENDMDL
MODEL 4
REMARK VINA RESULT: -7.142580203      3.459      6.883
REMARK  12 active torsions:
REMARK  status: ('A' for Active; 'I' for Inactive)
REMARK       I    between atoms: C1_4  and  N3_6 
REMARK    1  A    between atoms: N3_6  and  C2_8 
REMARK    2  A    between atoms: C2_8  and  C3_9 
REMARK    3  A    between atoms: C2_8  and  C8_15 
REMARK    4  A    between atoms: C3_9  and  C4_10 
REMARK    5  A    between atoms: C4_10  and  C5_11 
REMARK    6  A    between atoms: C5_11  and  C6_12 
REMARK    7  A    between atoms: C6_12  and  C7_13 
REMARK    8  A    between atoms: C8_15  and  N4_16 
REMARK    9  A    between atoms: C8_15  and  N5_19 
REMARK   10  A    between atoms: N5_19  and  C9_21 
REMARK   11  A    between atoms: C9_21  and  C10_23 
REMARK       I    between atoms: C10_23  and  N6_25 
REMARK   12  A    between atoms: C14_30  and  C15_31 
ROOT
HETATM    1  C8  UNL     1      17.725 -13.184  21.345  1.00  0.00     0.124 C 
ENDROOT
BRANCH   1   2
HETATM    2  C2  UNL     1      17.875 -14.129  22.398  1.00  0.00     0.074 C 
BRANCH   2   3
HETATM    3  N3  UNL     1      16.678 -14.944  22.702  1.00  0.00    -0.328 N 
HETATM    4  C1  UNL     1      16.391 -16.211  22.204  1.00  0.00     0.186 C 
HETATM    5  N1  UNL     1      16.030 -17.099  23.124  1.00  0.00    -0.373 N 
HETATM    6  N2  UNL     1      16.425 -16.695  20.893  1.00  0.00    -0.064 NA
ATOM      7  H12 UNL     1      15.820 -18.028  22.760  1.00  0.00     0.158 HD
ATOM      8  H11 UNL     1      16.006 -16.746  24.081  1.00  0.00     0.158 HD
ATOM      9  H3  UNL     1      15.995 -14.536  23.340  1.00  0.00     0.168 HD
ENDBRANCH   2   3
BRANCH   2  10
HETATM   10  C3  UNL     1      19.023 -15.022  22.564  1.00  0.00     0.007 C 
BRANCH  10  11
HETATM   11  C4  UNL     1      19.866 -15.052  23.752  1.00  0.00     0.029 C 
BRANCH  11  12
HETATM   12  C5  UNL     1      19.356 -14.413  25.005  1.00  0.00     0.006 C 
BRANCH  12  13
HETATM   13  C6  UNL     1      20.031 -14.976  26.249  1.00  0.00     0.032 C 
BRANCH  13  14
HETATM   14  C7  UNL     1      20.839 -13.945  26.988  1.00  0.00     0.222 C 
HETATM   15  F1  UNL     1      20.780 -12.752  26.261  1.00  0.00    -0.255 F 
ENDBRANCH  13  14
ENDBRANCH  12  13
ENDBRANCH  11  12
ENDBRANCH  10  11
ENDBRANCH   2  10
ENDBRANCH   1   2
BRANCH   1  16
HETATM   16  N4  UNL     1      17.794 -11.926  21.446  1.00  0.00    -0.384 N 
ATOM     17  H42 UNL     1      18.511 -11.624  22.105  1.00  0.00     0.157 HD
ATOM     18  H41 UNL     1      17.213 -11.244  20.958  1.00  0.00     0.157 HD
ENDBRANCH   1  16
BRANCH   1  19
HETATM   19  N5  UNL     1      17.483 -13.624  19.977  1.00  0.00    -0.337 N 
ATOM     20  H5  UNL     1      18.094 -14.344  19.591  1.00  0.00     0.164 HD
BRANCH  19  21
HETATM   21  C9  UNL     1      16.449 -13.112  19.147  1.00  0.00     0.364 C 
HETATM   22  F2  UNL     1      16.969 -13.040  17.849  1.00  0.00    -0.216 F 
BRANCH  21  23
HETATM   23  C10 UNL     1      15.248 -13.972  19.166  1.00  0.00     0.274 C 
HETATM   24  O1  UNL     1      15.192 -14.868  18.254  1.00  0.00    -0.268 OA
HETATM   25  N6  UNL     1      14.188 -13.883  20.094  1.00  0.00    -0.340 N 
HETATM   26  C11 UNL     1      13.038 -14.793  20.053  1.00  0.00     0.163 C 
HETATM   27  C14 UNL     1      14.025 -12.981  21.201  1.00  0.00     0.100 C 
HETATM   28  C12 UNL     1      12.545 -14.857  21.458  1.00  0.00     0.190 C 
HETATM   29  F3  UNL     1      12.746 -16.106  22.018  1.00  0.00    -0.248 F 
HETATM   30  C13 UNL     1      13.354 -13.857  22.260  1.00  0.00     0.065 C 
BRANCH  27  31
HETATM   31  C15 UNL     1      13.221 -11.755  20.933  1.00  0.00     0.110 C 
HETATM   32 BR1  UNL     1      12.236 -11.098  22.452  1.00  0.00    -0.094 Br
ENDBRANCH  27  31
ENDBRANCH  21  23
ENDBRANCH  19  21
ENDBRANCH   1  19
TORSDOF 12
ENDMDL
MODEL 5
REMARK VINA RESULT: -7.060039996      3.003      4.604
REMARK  12 active torsions:
REMARK  status: ('A' for Active; 'I' for Inactive)
REMARK       I    between atoms: C1_4  and  N3_6 
REMARK    1  A    between atoms: N3_6  and  C2_8 
REMARK    2  A    between atoms: C2_8  and  C3_9 
REMARK    3  A    between atoms: C2_8  and  C8_15 
REMARK    4  A    between atoms: C3_9  and  C4_10 
REMARK    5  A    between atoms: C4_10  and  C5_11 
REMARK    6  A    between atoms: C5_11  and  C6_12 
REMARK    7  A    between atoms: C6_12  and  C7_13 
REMARK    8  A    between atoms: C8_15  and  N4_16 
REMARK    9  A    between atoms: C8_15  and  N5_19 
REMARK   10  A    between atoms: N5_19  and  C9_21 
REMARK   11  A    between atoms: C9_21  and  C10_23 
REMARK       I    between atoms: C10_23  and  N6_25 
REMARK   12  A    between atoms: C14_30  and  C15_31 
ROOT
HETATM    1  C8  UNL     1      13.667 -11.593  21.158  1.00  0.00     0.124 C 
ENDROOT
BRANCH   1   2
HETATM    2  C2  UNL     1      12.831 -12.067  22.208  1.00  0.00     0.074 C 
BRANCH   2   3
HETATM    3  N3  UNL     1      11.953 -11.054  22.834  1.00  0.00    -0.328 N 
HETATM    4  C1  UNL     1      11.699 -10.906  24.194  1.00  0.00     0.186 C 
HETATM    5  N1  UNL     1      11.821  -9.664  24.648  1.00  0.00    -0.373 N 
HETATM    6  N2  UNL     1      11.338 -11.857  25.153  1.00  0.00    -0.064 NA
ATOM      7  H12 UNL     1      11.635  -9.554  25.645  1.00  0.00     0.158 HD
ATOM      8  H11 UNL     1      12.084  -8.970  23.947  1.00  0.00     0.158 HD
ATOM      9  H3  UNL     1      11.487 -10.400  22.205  1.00  0.00     0.168 HD
ENDBRANCH   2   3
BRANCH   2  10
HETATM   10  C3  UNL     1      12.051 -13.304  22.163  1.00  0.00     0.007 C 
BRANCH  10  11
HETATM   11  C4  UNL     1      12.582 -14.586  21.716  1.00  0.00     0.029 C 
BRANCH  11  12
HETATM   12  C5  UNL     1      12.667 -14.849  20.246  1.00  0.00     0.006 C 
BRANCH  12  13
HETATM   13  C6  UNL     1      12.122 -16.223  19.878  1.00  0.00     0.032 C 
BRANCH  13  14
HETATM   14  C7  UNL     1      12.040 -17.150  21.059  1.00  0.00     0.222 C 
HETATM   15  F1  UNL     1      10.812 -17.816  20.999  1.00  0.00    -0.255 F 
ENDBRANCH  13  14
ENDBRANCH  12  13
ENDBRANCH  11  12
ENDBRANCH  10  11
ENDBRANCH   2  10
ENDBRANCH   1   2
BRANCH   1  16
HETATM   16  N4  UNL     1      13.299 -10.956  20.130  1.00  0.00    -0.384 N 
ATOM     17  H42 UNL     1      13.582 -11.413  19.264  1.00  0.00     0.157 HD
ATOM     18  H41 UNL     1      12.788 -10.074  20.112  1.00  0.00     0.157 HD
ENDBRANCH   1  16
BRANCH   1  19
HETATM   19  N5  UNL     1      15.108 -11.803  21.200  1.00  0.00    -0.337 N 
ATOM     20  H5  UNL     1      15.695 -11.030  21.515  1.00  0.00     0.164 HD
BRANCH  19  21
HETATM   21  C9  UNL     1      15.747 -13.018  20.830  1.00  0.00     0.364 C 
HETATM   22  F2  UNL     1      15.656 -13.115  19.436  1.00  0.00    -0.216 F 
BRANCH  21  23
HETATM   23  C10 UNL     1      17.164 -13.048  21.249  1.00  0.00     0.274 C 
HETATM   24  O1  UNL     1      17.876 -12.056  20.871  1.00  0.00    -0.268 OA
HETATM   25  N6  UNL     1      17.770 -14.063  22.021  1.00  0.00    -0.340 N 
HETATM   26  C11 UNL     1      19.183 -14.005  22.412  1.00  0.00     0.163 C 
HETATM   27  C14 UNL     1      17.187 -15.257  22.569  1.00  0.00     0.100 C 
HETATM   28  C12 UNL     1      19.266 -14.787  23.678  1.00  0.00     0.190 C 
HETATM   29  F3  UNL     1      19.558 -13.980  24.763  1.00  0.00    -0.248 F 
HETATM   30  C13 UNL     1      17.900 -15.400  23.913  1.00  0.00     0.065 C 
BRANCH  27  31
HETATM   31  C15 UNL     1      17.337 -16.493  21.748  1.00  0.00     0.110 C 
HETATM   32 BR1  UNL     1      15.876 -16.830  20.540  1.00  0.00    -0.094 Br
ENDBRANCH  27  31
ENDBRANCH  21  23
ENDBRANCH  19  21
ENDBRANCH   1  19
TORSDOF 12
ENDMDL
