MODEL 1
REMARK VINA RESULT: -8.409827683      0.000      0.000
REMARK  13 active torsions:
REMARK  status: ('A' for Active; 'I' for Inactive)
REMARK       I    between atoms: N1_2  and  C3_4 
REMARK       I    between atoms: C3_4  and  N2_6 
REMARK       I    between atoms: N3_9  and  C6_10 
REMARK    1  A    between atoms: C6_10  and  C7_12 
REMARK    2  A    between atoms: C7_12  and  N4_13 
REMARK    3  A    between atoms: C7_12  and  C20_33 
REMARK       I    between atoms: N4_13  and  C8_15 
REMARK       I    between atoms: C8_15  and  N5_17 
REMARK    4  A    between atoms: C11_20  and  N6_21 
REMARK    5  A    between atoms: C20_33  and  C23_36 
REMARK    6  A    between atoms: C23_36  and  N8_37 
REMARK    7  A    between atoms: N8_37  and  C25_39 
REMARK    8  A    between atoms: N8_37  and  C27_42 
REMARK    9  A    between atoms: C27_42  and  C28_43 
REMARK   10  A    between atoms: C28_43  and  C29_44 
REMARK   11  A    between atoms: C29_44  and  C30_45 
REMARK   12  A    between atoms: C30_45  and  C31_46 
REMARK   13  A    between atoms: C31_46  and  N10_47 
ROOT
HETATM    1  C25 UNL     1       5.333 -15.205 -15.861  1.00  0.00     0.360 C 
HETATM    2  C26 UNL     1       6.027 -14.118 -15.177  1.00  0.00     0.087 C 
HETATM    3  N9  UNL     1       6.560 -13.252 -14.604  1.00  0.00    -0.196 NA
ENDROOT
BRANCH   1   4
HETATM    4  N8  UNL     1       6.081 -16.285 -16.346  1.00  0.00    -0.058 N 
HETATM    5  C24 UNL     1       7.197 -15.672 -17.147  1.00  0.00     0.273 C 
BRANCH   4   6
HETATM    6  C23 UNL     1       5.451 -17.265 -17.187  1.00  0.00     0.249 C 
BRANCH   6   7
HETATM    7  C20 UNL     1       4.116 -17.092 -17.835  1.00  0.00     0.006 C 
HETATM    8  C21 UNL     1       3.689 -15.711 -17.992  1.00  0.00     0.019 C 
HETATM    9  C22 UNL     1       3.085 -18.000 -17.265  1.00  0.00     0.019 C 
BRANCH   7  10
HETATM   10  C7  UNL     1       4.369 -17.636 -19.311  1.00  0.00     0.188 C 
BRANCH  10  11
HETATM   11  C6  UNL     1       3.635 -18.933 -19.420  1.00  0.00     0.243 C 
HETATM   12  N3  UNL     1       2.348 -19.113 -19.941  1.00  0.00    -0.347 N 
HETATM   13  C5  UNL     1       1.625 -18.055 -20.586  1.00  0.00     0.145 C 
HETATM   14  C32 UNL     1       1.649 -20.403 -19.777  1.00  0.00     0.145 C 
HETATM   15  C4  UNL     1       1.162 -18.467 -21.982  1.00  0.00     0.147 C 
HETATM   16  N2  UNL     1       0.891 -19.939 -21.992  1.00  0.00    -0.331 N 
HETATM   17  C3  UNL     1       1.115 -20.640 -23.178  1.00  0.00     0.319 C 
HETATM   18  C33 UNL     1       0.446 -20.424 -20.723  1.00  0.00     0.147 C 
HETATM   19  N1  UNL     1       0.966 -21.999 -23.475  1.00  0.00    -0.343 N 
HETATM   20  O1  UNL     1       1.534 -19.923 -24.177  1.00  0.00    -0.247 OA
HETATM   21  C1  UNL     1       1.287 -22.466 -24.851  1.00  0.00     0.154 C 
HETATM   22  C2  UNL     1       0.535 -23.024 -22.579  1.00  0.00     0.154 C 
HETATM   23  O2  UNL     1       4.195 -20.015 -19.007  1.00  0.00    -0.271 OA
ENDBRANCH  10  11
BRANCH  10  24
HETATM   24  N4  UNL     1       5.784 -17.921 -19.472  1.00  0.00    -0.329 N 
HETATM   25  C8  UNL     1       6.760 -18.097 -20.376  1.00  0.00     0.319 C 
HETATM   26  O3  UNL     1       6.658 -17.995 -21.620  1.00  0.00    -0.247 OA
HETATM   27  N5  UNL     1       8.112 -18.443 -19.988  1.00  0.00    -0.334 N 
HETATM   28  C9  UNL     1       8.572 -18.826 -18.693  1.00  0.00     0.129 C 
HETATM   29  C19 UNL     1       9.145 -18.325 -21.042  1.00  0.00     0.129 C 
HETATM   30  C10 UNL     1       9.441 -20.097 -18.795  1.00  0.00     0.045 C 
HETATM   31  C11 UNL     1      10.583 -19.800 -19.744  1.00  0.00     0.091 C 
HETATM   32  C18 UNL     1       9.976 -19.563 -21.121  1.00  0.00     0.045 C 
ATOM     33  H4  UNL     1       6.192 -18.028 -18.543  1.00  0.00     0.165 HD
BRANCH  31  34
HETATM   34  N6  UNL     1      11.526 -20.873 -19.840  1.00  0.00    -0.329 N 
HETATM   35  C12 UNL     1      11.198 -22.074 -20.558  1.00  0.00     0.130 C 
HETATM   36  C13 UNL     1      12.451 -22.772 -21.078  1.00  0.00     0.050 C 
HETATM   37  C14 UNL     1      13.427 -23.011 -19.940  1.00  0.00     0.029 C 
HETATM   38  C15 UNL     1      12.796 -23.848 -18.857  1.00  0.00     0.038 C 
HETATM   39  C16 UNL     1      14.639 -23.724 -20.478  1.00  0.00     0.038 C 
HETATM   40  N7  UNL     1      13.831 -21.693 -19.474  1.00  0.00    -0.334 N 
HETATM   41  C17 UNL     1      12.798 -20.737 -19.233  1.00  0.00     0.319 C 
ATOM     42  H7  UNL     1      14.812 -21.462 -19.325  1.00  0.00     0.165 HD
HETATM   43  O4  UNL     1      13.055 -19.752 -18.451  1.00  0.00    -0.247 OA
ENDBRANCH  31  34
ENDBRANCH  10  24
ENDBRANCH   7  10
ENDBRANCH   6   7
ENDBRANCH   4   6
BRANCH   4  44
HETATM   44  C27 UNL     1       6.662 -17.056 -15.261  1.00  0.00     0.238 C 
BRANCH  44  45
HETATM   45  C28 UNL     1       8.104 -17.288 -15.180  1.00  0.00     0.028 C 
BRANCH  45  46
HETATM   46  C29 UNL     1       8.623 -18.663 -14.951  1.00  0.00     0.003 C 
BRANCH  46  47
HETATM   47  C30 UNL     1      10.146 -18.720 -15.157  1.00  0.00     0.027 C 
BRANCH  47  48
HETATM   48  C31 UNL     1      10.546 -17.435 -15.842  1.00  0.00     0.229 C 
BRANCH  48  49
HETATM   49  N10 UNL     1      11.629 -17.647 -16.782  1.00  0.00    -0.079 N 
ATOM     50 3H10 UNL     1      12.233 -16.827 -16.845  1.00  0.00     0.274 HD
ATOM     51 2H10 UNL     1      12.309 -18.318 -16.423  1.00  0.00     0.274 HD
ATOM     52 1H10 UNL     1      11.280 -17.925 -17.699  1.00  0.00     0.274 HD
ENDBRANCH  48  49
ENDBRANCH  47  48
ENDBRANCH  46  47
ENDBRANCH  45  46
ENDBRANCH  44  45
ENDBRANCH   4  44
ENDBRANCH   1   4
TORSDOF 13
ENDMDL
MODEL 2
REMARK VINA RESULT: -7.927191091      0.904      1.068
REMARK  13 active torsions:
REMARK  status: ('A' for Active; 'I' for Inactive)
REMARK       I    between atoms: N1_2  and  C3_4 
REMARK       I    between atoms: C3_4  and  N2_6 
REMARK       I    between atoms: N3_9  and  C6_10 
REMARK    1  A    between atoms: C6_10  and  C7_12 
REMARK    2  A    between atoms: C7_12  and  N4_13 
REMARK    3  A    between atoms: C7_12  and  C20_33 
REMARK       I    between atoms: N4_13  and  C8_15 
REMARK       I    between atoms: C8_15  and  N5_17 
REMARK    4  A    between atoms: C11_20  and  N6_21 
REMARK    5  A    between atoms: C20_33  and  C23_36 
REMARK    6  A    between atoms: C23_36  and  N8_37 
REMARK    7  A    between atoms: N8_37  and  C25_39 
REMARK    8  A    between atoms: N8_37  and  C27_42 
REMARK    9  A    between atoms: C27_42  and  C28_43 
REMARK   10  A    between atoms: C28_43  and  C29_44 
REMARK   11  A    between atoms: C29_44  and  C30_45 
REMARK   12  A    between atoms: C30_45  and  C31_46 
REMARK   13  A    between atoms: C31_46  and  N10_47 
ROOT
HETATM    1  C25 UNL     1       4.638 -15.189 -16.080  1.00  0.00     0.360 C 
HETATM    2  C26 UNL     1       5.051 -14.050 -15.265  1.00  0.00     0.087 C 
HETATM    3  N9  UNL     1       5.357 -13.148 -14.590  1.00  0.00    -0.196 NA
ENDROOT
BRANCH   1   4
HETATM    4  N8  UNL     1       5.606 -16.112 -16.492  1.00  0.00    -0.058 N 
HETATM    5  C24 UNL     1       6.676 -15.296 -17.165  1.00  0.00     0.273 C 
BRANCH   4   6
HETATM    6  C23 UNL     1       5.245 -17.161 -17.404  1.00  0.00     0.249 C 
BRANCH   6   7
HETATM    7  C20 UNL     1       3.882 -17.342 -17.991  1.00  0.00     0.006 C 
HETATM    8  C21 UNL     1       3.153 -16.108 -18.228  1.00  0.00     0.019 C 
HETATM    9  C22 UNL     1       3.102 -18.403 -17.299  1.00  0.00     0.019 C 
BRANCH   7  10
HETATM   10  C7  UNL     1       4.198 -17.941 -19.433  1.00  0.00     0.188 C 
BRANCH  10  11
HETATM   11  C6  UNL     1       3.525 -19.274 -19.498  1.00  0.00     0.243 C 
HETATM   12  N3  UNL     1       2.231 -19.523 -19.972  1.00  0.00    -0.347 N 
HETATM   13  C5  UNL     1       1.436 -18.512 -20.605  1.00  0.00     0.145 C 
HETATM   14  C32 UNL     1       1.601 -20.843 -19.766  1.00  0.00     0.145 C 
HETATM   15  C4  UNL     1       0.946 -18.968 -21.979  1.00  0.00     0.147 C 
HETATM   16  N2  UNL     1       0.747 -20.451 -21.959  1.00  0.00    -0.331 N 
HETATM   17  C3  UNL     1       0.964 -21.158 -23.143  1.00  0.00     0.319 C 
HETATM   18  C33 UNL     1       0.370 -20.937 -20.669  1.00  0.00     0.147 C 
HETATM   19  N1  UNL     1       0.872 -22.528 -23.415  1.00  0.00    -0.343 N 
HETATM   20  O1  UNL     1       1.314 -20.437 -24.166  1.00  0.00    -0.247 OA
HETATM   21  C1  UNL     1       1.168 -23.000 -24.795  1.00  0.00     0.154 C 
HETATM   22  C2  UNL     1       0.522 -23.558 -22.491  1.00  0.00     0.154 C 
HETATM   23  O2  UNL     1       4.150 -20.321 -19.090  1.00  0.00    -0.271 OA
ENDBRANCH  10  11
BRANCH  10  24
HETATM   24  N4  UNL     1       5.628 -18.169 -19.546  1.00  0.00    -0.329 N 
HETATM   25  C8  UNL     1       6.651 -18.235 -20.412  1.00  0.00     0.319 C 
HETATM   26  O3  UNL     1       6.605 -18.028 -21.646  1.00  0.00    -0.247 OA
HETATM   27  N5  UNL     1       7.993 -18.574 -19.988  1.00  0.00    -0.334 N 
HETATM   28  C9  UNL     1       8.404 -19.056 -18.710  1.00  0.00     0.129 C 
HETATM   29  C19 UNL     1       9.070 -18.333 -20.974  1.00  0.00     0.129 C 
HETATM   30  C10 UNL     1       9.320 -20.287 -18.878  1.00  0.00     0.045 C 
HETATM   31  C11 UNL     1      10.495 -19.874 -19.739  1.00  0.00     0.091 C 
HETATM   32  C18 UNL     1       9.946 -19.534 -21.119  1.00  0.00     0.045 C 
ATOM     33  H4  UNL     1       5.994 -18.346 -18.611  1.00  0.00     0.165 HD
BRANCH  31  34
HETATM   34  N6  UNL     1      11.477 -20.905 -19.879  1.00  0.00    -0.329 N 
HETATM   35  C12 UNL     1      11.189 -22.093 -20.637  1.00  0.00     0.130 C 
HETATM   36  C13 UNL     1      12.462 -22.723 -21.191  1.00  0.00     0.050 C 
HETATM   37  C14 UNL     1      13.457 -22.965 -20.069  1.00  0.00     0.029 C 
HETATM   38  C15 UNL     1      12.868 -23.863 -19.012  1.00  0.00     0.038 C 
HETATM   39  C16 UNL     1      14.690 -23.612 -20.642  1.00  0.00     0.038 C 
HETATM   40  N7  UNL     1      13.814 -21.650 -19.560  1.00  0.00    -0.334 N 
HETATM   41  C17 UNL     1      12.748 -20.743 -19.278  1.00  0.00     0.319 C 
ATOM     42  H7  UNL     1      14.788 -21.386 -19.411  1.00  0.00     0.165 HD
HETATM   43  O4  UNL     1      12.975 -19.776 -18.463  1.00  0.00    -0.247 OA
ENDBRANCH  31  34
ENDBRANCH  10  24
ENDBRANCH   7  10
ENDBRANCH   6   7
ENDBRANCH   4   6
BRANCH   4  44
HETATM   44  C27 UNL     1       6.197 -16.801 -15.359  1.00  0.00     0.238 C 
BRANCH  44  45
HETATM   45  C28 UNL     1       7.193 -17.856 -15.544  1.00  0.00     0.028 C 
BRANCH  45  46
HETATM   46  C29 UNL     1       8.642 -17.534 -15.455  1.00  0.00     0.003 C 
BRANCH  46  47
HETATM   47  C30 UNL     1       8.970 -16.820 -14.133  1.00  0.00     0.027 C 
BRANCH  47  48
HETATM   48  C31 UNL     1       9.343 -15.398 -14.481  1.00  0.00     0.229 C 
BRANCH  48  49
HETATM   49  N10 UNL     1       8.351 -14.455 -14.003  1.00  0.00    -0.079 N 
ATOM     50 3H10 UNL     1       7.683 -14.903 -13.375  1.00  0.00     0.274 HD
ATOM     51 2H10 UNL     1       8.759 -13.785 -13.349  1.00  0.00     0.274 HD
ATOM     52 1H10 UNL     1       7.880 -13.983 -14.775  1.00  0.00     0.274 HD
ENDBRANCH  48  49
ENDBRANCH  47  48
ENDBRANCH  46  47
ENDBRANCH  45  46
ENDBRANCH  44  45
ENDBRANCH   4  44
ENDBRANCH   1   4
TORSDOF 13
ENDMDL
MODEL 3
REMARK VINA RESULT: -7.896168736      2.115      3.303
REMARK  13 active torsions:
REMARK  status: ('A' for Active; 'I' for Inactive)
REMARK       I    between atoms: N1_2  and  C3_4 
REMARK       I    between atoms: C3_4  and  N2_6 
REMARK       I    between atoms: N3_9  and  C6_10 
REMARK    1  A    between atoms: C6_10  and  C7_12 
REMARK    2  A    between atoms: C7_12  and  N4_13 
REMARK    3  A    between atoms: C7_12  and  C20_33 
REMARK       I    between atoms: N4_13  and  C8_15 
REMARK       I    between atoms: C8_15  and  N5_17 
REMARK    4  A    between atoms: C11_20  and  N6_21 
REMARK    5  A    between atoms: C20_33  and  C23_36 
REMARK    6  A    between atoms: C23_36  and  N8_37 
REMARK    7  A    between atoms: N8_37  and  C25_39 
REMARK    8  A    between atoms: N8_37  and  C27_42 
REMARK    9  A    between atoms: C27_42  and  C28_43 
REMARK   10  A    between atoms: C28_43  and  C29_44 
REMARK   11  A    between atoms: C29_44  and  C30_45 
REMARK   12  A    between atoms: C30_45  and  C31_46 
REMARK   13  A    between atoms: C31_46  and  N10_47 
ROOT
HETATM    1  C25 UNL     1       8.416 -18.191 -14.614  1.00  0.00     0.360 C 
HETATM    2  C26 UNL     1       8.906 -19.389 -15.290  1.00  0.00     0.087 C 
HETATM    3  N9  UNL     1       9.265 -20.356 -15.834  1.00  0.00    -0.196 NA
ENDROOT
BRANCH   1   4
HETATM    4  N8  UNL     1       8.872 -16.938 -15.042  1.00  0.00    -0.058 N 
HETATM    5  C24 UNL     1       8.610 -16.003 -13.894  1.00  0.00     0.273 C 
BRANCH   4   6
HETATM    6  C23 UNL     1       8.299 -16.335 -16.213  1.00  0.00     0.249 C 
BRANCH   6   7
HETATM    7  C20 UNL     1       6.845 -16.032 -16.384  1.00  0.00     0.006 C 
HETATM    8  C21 UNL     1       6.473 -14.656 -16.099  1.00  0.00     0.019 C 
HETATM    9  C22 UNL     1       5.972 -17.056 -15.750  1.00  0.00     0.019 C 
BRANCH   7  10
HETATM   10  C7  UNL     1       6.629 -16.222 -17.951  1.00  0.00     0.188 C 
BRANCH  10  11
HETATM   11  C6  UNL     1       5.469 -17.150 -18.112  1.00  0.00     0.243 C 
HETATM   12  N3  UNL     1       4.119 -16.782 -18.171  1.00  0.00    -0.347 N 
HETATM   13  C5  UNL     1       3.697 -15.413 -18.234  1.00  0.00     0.145 C 
HETATM   14  C32 UNL     1       3.061 -17.809 -18.097  1.00  0.00     0.145 C 
HETATM   15  C4  UNL     1       2.782 -15.166 -19.432  1.00  0.00     0.147 C 
HETATM   16  N2  UNL     1       1.997 -16.409 -19.711  1.00  0.00    -0.331 N 
HETATM   17  C3  UNL     1       1.644 -16.679 -21.034  1.00  0.00     0.319 C 
HETATM   18  C33 UNL     1       1.738 -17.172 -18.530  1.00  0.00     0.147 C 
HETATM   19  N1  UNL     1       0.938 -17.754 -21.587  1.00  0.00    -0.343 N 
HETATM   20  O1  UNL     1       2.033 -15.797 -21.905  1.00  0.00    -0.247 OA
HETATM   21  C1  UNL     1       0.710 -17.773 -23.058  1.00  0.00     0.154 C 
HETATM   22  C2  UNL     1       0.401 -18.873 -20.882  1.00  0.00     0.154 C 
HETATM   23  O2  UNL     1       5.677 -18.415 -18.207  1.00  0.00    -0.271 OA
ENDBRANCH  10  11
BRANCH  10  24
HETATM   24  N4  UNL     1       7.796 -16.881 -18.511  1.00  0.00    -0.329 N 
HETATM   25  C8  UNL     1       8.265 -17.523 -19.592  1.00  0.00     0.319 C 
HETATM   26  O3  UNL     1       7.657 -17.727 -20.667  1.00  0.00    -0.247 OA
HETATM   27  N5  UNL     1       9.601 -18.081 -19.632  1.00  0.00    -0.334 N 
HETATM   28  C9  UNL     1      10.519 -18.216 -18.548  1.00  0.00     0.129 C 
HETATM   29  C19 UNL     1      10.093 -18.502 -20.963  1.00  0.00     0.129 C 
HETATM   30  C10 UNL     1      11.101 -19.645 -18.523  1.00  0.00     0.045 C 
HETATM   31  C11 UNL     1      11.758 -19.898 -19.864  1.00  0.00     0.091 C 
HETATM   32  C18 UNL     1      10.656 -19.885 -20.916  1.00  0.00     0.045 C 
ATOM     33  H4  UNL     1       8.543 -16.841 -17.818  1.00  0.00     0.165 HD
BRANCH  31  34
HETATM   34  N6  UNL     1      12.434 -21.159 -19.928  1.00  0.00    -0.329 N 
HETATM   35  C12 UNL     1      11.759 -22.328 -20.423  1.00  0.00     0.130 C 
HETATM   36  C13 UNL     1      12.745 -23.340 -20.995  1.00  0.00     0.050 C 
HETATM   37  C14 UNL     1      13.816 -23.666 -19.969  1.00  0.00     0.029 C 
HETATM   38  C15 UNL     1      13.202 -24.217 -18.708  1.00  0.00     0.038 C 
HETATM   39  C16 UNL     1      14.757 -24.686 -20.552  1.00  0.00     0.038 C 
HETATM   40  N7  UNL     1      14.549 -22.429 -19.748  1.00  0.00    -0.334 N 
HETATM   41  C17 UNL     1      13.784 -21.245 -19.513  1.00  0.00     0.319 C 
ATOM     42  H7  UNL     1      15.568 -22.408 -19.759  1.00  0.00     0.165 HD
HETATM   43  O4  UNL     1      14.357 -20.264 -18.916  1.00  0.00    -0.247 OA
ENDBRANCH  31  34
ENDBRANCH  10  24
ENDBRANCH   7  10
ENDBRANCH   6   7
ENDBRANCH   4   6
BRANCH   4  44
HETATM   44  C27 UNL     1      10.300 -16.957 -15.304  1.00  0.00     0.238 C 
BRANCH  44  45
HETATM   45  C28 UNL     1      11.268 -17.198 -14.233  1.00  0.00     0.028 C 
BRANCH  45  46
HETATM   46  C29 UNL     1      12.528 -17.933 -14.521  1.00  0.00     0.003 C 
BRANCH  46  47
HETATM   47  C30 UNL     1      12.409 -19.413 -14.119  1.00  0.00     0.027 C 
BRANCH  47  48
HETATM   48  C31 UNL     1      12.927 -20.228 -15.280  1.00  0.00     0.229 C 
BRANCH  48  49
HETATM   49  N10 UNL     1      13.846 -19.464 -16.100  1.00  0.00    -0.079 N 
ATOM     50 3H10 UNL     1      14.701 -19.240 -15.591  1.00  0.00     0.274 HD
ATOM     51 2H10 UNL     1      14.248 -20.037 -16.842  1.00  0.00     0.274 HD
ATOM     52 1H10 UNL     1      13.404 -18.624 -16.475  1.00  0.00     0.274 HD
ENDBRANCH  48  49
ENDBRANCH  47  48
ENDBRANCH  46  47
ENDBRANCH  45  46
ENDBRANCH  44  45
ENDBRANCH   4  44
ENDBRANCH   1   4
TORSDOF 13
ENDMDL
MODEL 4
REMARK VINA RESULT: -7.839518967      1.219      1.437
REMARK  13 active torsions:
REMARK  status: ('A' for Active; 'I' for Inactive)
REMARK       I    between atoms: N1_2  and  C3_4 
REMARK       I    between atoms: C3_4  and  N2_6 
REMARK       I    between atoms: N3_9  and  C6_10 
REMARK    1  A    between atoms: C6_10  and  C7_12 
REMARK    2  A    between atoms: C7_12  and  N4_13 
REMARK    3  A    between atoms: C7_12  and  C20_33 
REMARK       I    between atoms: N4_13  and  C8_15 
REMARK       I    between atoms: C8_15  and  N5_17 
REMARK    4  A    between atoms: C11_20  and  N6_21 
REMARK    5  A    between atoms: C20_33  and  C23_36 
REMARK    6  A    between atoms: C23_36  and  N8_37 
REMARK    7  A    between atoms: N8_37  and  C25_39 
REMARK    8  A    between atoms: N8_37  and  C27_42 
REMARK    9  A    between atoms: C27_42  and  C28_43 
REMARK   10  A    between atoms: C28_43  and  C29_44 
REMARK   11  A    between atoms: C29_44  and  C30_45 
REMARK   12  A    between atoms: C30_45  and  C31_46 
REMARK   13  A    between atoms: C31_46  and  N10_47 
ROOT
HETATM    1  C25 UNL     1       3.734 -16.445 -15.616  1.00  0.00     0.360 C 
HETATM    2  C26 UNL     1       2.806 -15.331 -15.445  1.00  0.00     0.087 C 
HETATM    3  N9  UNL     1       2.071 -14.442 -15.276  1.00  0.00    -0.196 NA
ENDROOT
BRANCH   1   4
HETATM    4  N8  UNL     1       4.770 -16.326 -16.550  1.00  0.00    -0.058 N 
HETATM    5  C24 UNL     1       5.061 -14.853 -16.639  1.00  0.00     0.273 C 
BRANCH   4   6
HETATM    6  C23 UNL     1       4.573 -16.795 -17.894  1.00  0.00     0.249 C 
BRANCH   6   7
HETATM    7  C20 UNL     1       3.273 -17.297 -18.434  1.00  0.00     0.006 C 
HETATM    8  C21 UNL     1       2.337 -16.259 -18.831  1.00  0.00     0.019 C 
HETATM    9  C22 UNL     1       2.687 -18.375 -17.593  1.00  0.00     0.019 C 
BRANCH   7  10
HETATM   10  C7  UNL     1       3.711 -18.022 -19.783  1.00  0.00     0.188 C 
BRANCH  10  11
HETATM   11  C6  UNL     1       3.137 -19.401 -19.732  1.00  0.00     0.243 C 
HETATM   12  N3  UNL     1       1.879 -19.790 -20.210  1.00  0.00    -0.347 N 
HETATM   13  C5  UNL     1       1.034 -18.906 -20.959  1.00  0.00     0.145 C 
HETATM   14  C32 UNL     1       1.339 -21.126 -19.889  1.00  0.00     0.145 C 
HETATM   15  C4  UNL     1       0.621 -19.528 -22.292  1.00  0.00     0.147 C 
HETATM   16  N2  UNL     1       0.527 -21.013 -22.131  1.00  0.00    -0.331 N 
HETATM   17  C3  UNL     1       0.831 -21.813 -23.233  1.00  0.00     0.319 C 
HETATM   18  C33 UNL     1       0.145 -21.398 -20.809  1.00  0.00     0.147 C 
HETATM   19  N1  UNL     1       0.845 -23.206 -23.371  1.00  0.00    -0.343 N 
HETATM   20  O1  UNL     1       1.161 -21.171 -24.314  1.00  0.00    -0.247 OA
HETATM   21  C1  UNL     1       1.216 -23.786 -24.690  1.00  0.00     0.154 C 
HETATM   22  C2  UNL     1       0.540 -24.165 -22.358  1.00  0.00     0.154 C 
HETATM   23  O2  UNL     1       3.821 -20.355 -19.208  1.00  0.00    -0.271 OA
ENDBRANCH  10  11
BRANCH  10  24
HETATM   24  N4  UNL     1       5.158 -18.153 -19.800  1.00  0.00    -0.329 N 
HETATM   25  C8  UNL     1       6.236 -18.174 -20.599  1.00  0.00     0.319 C 
HETATM   26  O3  UNL     1       6.255 -18.008 -21.839  1.00  0.00    -0.247 OA
HETATM   27  N5  UNL     1       7.569 -18.405 -20.081  1.00  0.00    -0.334 N 
HETATM   28  C9  UNL     1       7.929 -18.819 -18.764  1.00  0.00     0.129 C 
HETATM   29  C19 UNL     1       8.688 -18.120 -21.006  1.00  0.00     0.129 C 
HETATM   30  C10 UNL     1       8.934 -19.988 -18.832  1.00  0.00     0.045 C 
HETATM   31  C11 UNL     1      10.131 -19.519 -19.633  1.00  0.00     0.091 C 
HETATM   32  C18 UNL     1       9.651 -19.260 -21.055  1.00  0.00     0.045 C 
ATOM     33  H4  UNL     1       5.475 -18.276 -18.839  1.00  0.00     0.165 HD
BRANCH  31  34
HETATM   34  N6  UNL     1      11.188 -20.484 -19.677  1.00  0.00    -0.329 N 
HETATM   35  C12 UNL     1      11.149 -21.570 -20.618  1.00  0.00     0.130 C 
HETATM   36  C13 UNL     1      12.552 -22.071 -20.949  1.00  0.00     0.050 C 
HETATM   37  C14 UNL     1      13.297 -22.420 -19.673  1.00  0.00     0.029 C 
HETATM   38  C15 UNL     1      12.558 -23.473 -18.889  1.00  0.00     0.038 C 
HETATM   39  C16 UNL     1      14.665 -22.936 -20.032  1.00  0.00     0.038 C 
HETATM   40  N7  UNL     1      13.448 -21.171 -18.942  1.00  0.00    -0.334 N 
HETATM   41  C17 UNL     1      12.287 -20.352 -18.794  1.00  0.00     0.319 C 
ATOM     42  H7  UNL     1      14.347 -20.892 -18.550  1.00  0.00     0.165 HD
HETATM   43  O4  UNL     1      12.269 -19.495 -17.839  1.00  0.00    -0.247 OA
ENDBRANCH  31  34
ENDBRANCH  10  24
ENDBRANCH   7  10
ENDBRANCH   6   7
ENDBRANCH   4   6
BRANCH   4  44
HETATM   44  C27 UNL     1       5.970 -17.006 -16.098  1.00  0.00     0.238 C 
BRANCH  44  45
HETATM   45  C28 UNL     1       7.033 -16.288 -15.395  1.00  0.00     0.028 C 
BRANCH  45  46
HETATM   46  C29 UNL     1       8.218 -17.029 -14.883  1.00  0.00     0.003 C 
BRANCH  46  47
HETATM   47  C30 UNL     1       7.882 -18.510 -14.643  1.00  0.00     0.027 C 
BRANCH  47  48
HETATM   48  C31 UNL     1       9.005 -19.320 -15.247  1.00  0.00     0.229 C 
BRANCH  48  49
HETATM   49  N10 UNL     1      10.099 -18.474 -15.680  1.00  0.00    -0.079 N 
ATOM     50 3H10 UNL     1       9.964 -18.153 -16.640  1.00  0.00     0.274 HD
ATOM     51 2H10 UNL     1      10.081 -17.570 -15.208  1.00  0.00     0.274 HD
ATOM     52 1H10 UNL     1      11.000 -18.937 -15.565  1.00  0.00     0.274 HD
ENDBRANCH  48  49
ENDBRANCH  47  48
ENDBRANCH  46  47
ENDBRANCH  45  46
ENDBRANCH  44  45
ENDBRANCH   4  44
ENDBRANCH   1   4
TORSDOF 13
ENDMDL
MODEL 5
REMARK VINA RESULT: -7.791638823      2.526      4.689
REMARK  13 active torsions:
REMARK  status: ('A' for Active; 'I' for Inactive)
REMARK       I    between atoms: N1_2  and  C3_4 
REMARK       I    between atoms: C3_4  and  N2_6 
REMARK       I    between atoms: N3_9  and  C6_10 
REMARK    1  A    between atoms: C6_10  and  C7_12 
REMARK    2  A    between atoms: C7_12  and  N4_13 
REMARK    3  A    between atoms: C7_12  and  C20_33 
REMARK       I    between atoms: N4_13  and  C8_15 
REMARK       I    between atoms: C8_15  and  N5_17 
REMARK    4  A    between atoms: C11_20  and  N6_21 
REMARK    5  A    between atoms: C20_33  and  C23_36 
REMARK    6  A    between atoms: C23_36  and  N8_37 
REMARK    7  A    between atoms: N8_37  and  C25_39 
REMARK    8  A    between atoms: N8_37  and  C27_42 
REMARK    9  A    between atoms: C27_42  and  C28_43 
REMARK   10  A    between atoms: C28_43  and  C29_44 
REMARK   11  A    between atoms: C29_44  and  C30_45 
REMARK   12  A    between atoms: C30_45  and  C31_46 
REMARK   13  A    between atoms: C31_46  and  N10_47 
ROOT
HETATM    1  C25 UNL     1       9.896 -19.022 -14.441  1.00  0.00     0.360 C 
HETATM    2  C26 UNL     1       9.792 -19.956 -15.559  1.00  0.00     0.087 C 
HETATM    3  N9  UNL     1       9.676 -20.700 -16.449  1.00  0.00    -0.196 NA
ENDROOT
BRANCH   1   4
HETATM    4  N8  UNL     1      10.648 -17.852 -14.604  1.00  0.00    -0.058 N 
HETATM    5  C24 UNL     1      10.929 -17.359 -13.210  1.00  0.00     0.273 C 
BRANCH   4   6
HETATM    6  C23 UNL     1      10.093 -16.746 -15.335  1.00  0.00     0.249 C 
BRANCH   6   7
HETATM    7  C20 UNL     1       8.752 -16.142 -15.068  1.00  0.00     0.006 C 
HETATM    8  C21 UNL     1       8.782 -14.739 -14.689  1.00  0.00     0.019 C 
HETATM    9  C22 UNL     1       7.903 -17.002 -14.202  1.00  0.00     0.019 C 
BRANCH   7  10
HETATM   10  C7  UNL     1       8.056 -16.188 -16.501  1.00  0.00     0.188 C 
BRANCH  10  11
HETATM   11  C6  UNL     1       6.784 -16.953 -16.332  1.00  0.00     0.243 C 
HETATM   12  N3  UNL     1       5.488 -16.426 -16.403  1.00  0.00    -0.347 N 
HETATM   13  C5  UNL     1       5.228 -15.075 -16.806  1.00  0.00     0.145 C 
HETATM   14  C32 UNL     1       4.328 -17.239 -15.988  1.00  0.00     0.145 C 
HETATM   15  C4  UNL     1       4.236 -15.020 -17.966  1.00  0.00     0.147 C 
HETATM   16  N2  UNL     1       3.285 -16.170 -17.850  1.00  0.00    -0.331 N 
HETATM   17  C3  UNL     1       2.774 -16.721 -19.026  1.00  0.00     0.319 C 
HETATM   18  C33 UNL     1       3.054 -16.557 -16.493  1.00  0.00     0.147 C 
HETATM   19  N1  UNL     1       1.894 -17.791 -19.223  1.00  0.00    -0.343 N 
HETATM   20  O1  UNL     1       3.177 -16.158 -20.126  1.00  0.00    -0.247 OA
HETATM   21  C1  UNL     1       1.522 -18.159 -20.617  1.00  0.00     0.154 C 
HETATM   22  C2  UNL     1       1.299 -18.602 -18.210  1.00  0.00     0.154 C 
HETATM   23  O2  UNL     1       6.829 -18.216 -16.095  1.00  0.00    -0.271 OA
ENDBRANCH  10  11
BRANCH  10  24
HETATM   24  N4  UNL     1       8.900 -16.942 -17.411  1.00  0.00    -0.329 N 
HETATM   25  C8  UNL     1       8.889 -17.792 -18.449  1.00  0.00     0.319 C 
HETATM   26  O3  UNL     1       7.882 -18.221 -19.057  1.00  0.00    -0.247 OA
HETATM   27  N5  UNL     1      10.109 -18.337 -19.008  1.00  0.00    -0.334 N 
HETATM   28  C9  UNL     1      11.429 -18.235 -18.475  1.00  0.00     0.129 C 
HETATM   29  C19 UNL     1       9.981 -19.024 -20.312  1.00  0.00     0.129 C 
HETATM   30  C10 UNL     1      12.104 -19.622 -18.466  1.00  0.00     0.045 C 
HETATM   31  C11 UNL     1      12.099 -20.146 -19.887  1.00  0.00     0.091 C 
HETATM   32  C18 UNL     1      10.644 -20.361 -20.284  1.00  0.00     0.045 C 
ATOM     33  H4  UNL     1       9.873 -16.752 -17.169  1.00  0.00     0.165 HD
BRANCH  31  34
HETATM   34  N6  UNL     1      12.799 -21.387 -20.030  1.00  0.00    -0.329 N 
HETATM   35  C12 UNL     1      12.160 -22.522 -20.638  1.00  0.00     0.130 C 
HETATM   36  C13 UNL     1      13.182 -23.470 -21.258  1.00  0.00     0.050 C 
HETATM   37  C14 UNL     1      14.225 -23.861 -20.226  1.00  0.00     0.029 C 
HETATM   38  C15 UNL     1      13.582 -24.522 -19.034  1.00  0.00     0.038 C 
HETATM   39  C16 UNL     1      15.202 -24.818 -20.858  1.00  0.00     0.038 C 
HETATM   40  N7  UNL     1      14.929 -22.635 -19.883  1.00  0.00    -0.334 N 
HETATM   41  C17 UNL     1      14.137 -21.486 -19.580  1.00  0.00     0.319 C 
ATOM     42  H7  UNL     1      15.948 -22.598 -19.859  1.00  0.00     0.165 HD
HETATM   43  O4  UNL     1      14.673 -20.547 -18.887  1.00  0.00    -0.247 OA
ENDBRANCH  31  34
ENDBRANCH  10  24
ENDBRANCH   7  10
ENDBRANCH   6   7
ENDBRANCH   4   6
BRANCH   4  44
HETATM   44  C27 UNL     1      11.914 -18.125 -15.260  1.00  0.00     0.238 C 
BRANCH  44  45
HETATM   45  C28 UNL     1      13.044 -18.694 -14.526  1.00  0.00     0.028 C 
BRANCH  45  46
HETATM   46  C29 UNL     1      13.808 -19.832 -15.104  1.00  0.00     0.003 C 
BRANCH  46  47
HETATM   47  C30 UNL     1      13.142 -21.175 -14.759  1.00  0.00     0.027 C 
BRANCH  47  48
HETATM   48  C31 UNL     1      13.250 -22.048 -15.986  1.00  0.00     0.229 C 
BRANCH  48  49
HETATM   49  N10 UNL     1      14.602 -22.531 -16.180  1.00  0.00    -0.079 N 
ATOM     50 3H10 UNL     1      15.290 -21.809 -15.963  1.00  0.00     0.274 HD
ATOM     51 2H10 UNL     1      14.860 -23.215 -15.467  1.00  0.00     0.274 HD
ATOM     52 1H10 UNL     1      14.737 -22.904 -17.120  1.00  0.00     0.274 HD
ENDBRANCH  48  49
ENDBRANCH  47  48
ENDBRANCH  46  47
ENDBRANCH  45  46
ENDBRANCH  44  45
ENDBRANCH   4  44
ENDBRANCH   1   4
TORSDOF 13
ENDMDL
