MODEL 1
REMARK VINA RESULT: -9.589804662      0.000      0.000
REMARK  13 active torsions:
REMARK  status: ('A' for Active; 'I' for Inactive)
REMARK    1  A    between atoms: C2_2  and  N1_3 
REMARK    2  A    between atoms: C6_7  and  C7_8 
REMARK    3  A    between atoms: C7_8  and  C8_9 
REMARK    4  A    between atoms: C8_9  and  C9_10 
REMARK    5  A    between atoms: C9_10  and  C10_11 
REMARK    6  A    between atoms: C10_11  and  N2_12 
REMARK    7  A    between atoms: C10_11  and  C30_42 
REMARK       I    between atoms: N2_12  and  C11_14 
REMARK    8  A    between atoms: C11_14  and  C12_16 
REMARK    9  A    between atoms: C12_16  and  C13_17 
REMARK   10  A    between atoms: C12_16  and  N4_22 
REMARK   11  A    between atoms: C13_17  and  C14_18 
REMARK   12  A    between atoms: C14_18  and  C15_19 
REMARK   13  A    between atoms: C19_26  and  C20_27 
REMARK       I    between atoms: C20_27  and  N5_29 
REMARK       I    between atoms: C30_42  and  N7_44 
ROOT
HETATM    1  C12 UNL     1      15.398 -21.140 -16.461  1.00  0.00     0.315 C 
ENDROOT
BRANCH   1   2
HETATM    2  C11 UNL     1      15.063 -21.919 -17.714  1.00  0.00     0.252 C 
HETATM    3  N2  UNL     1      14.647 -23.225 -17.784  1.00  0.00    -0.346 N 
ATOM      4  H2  UNL     1      14.534 -23.777 -16.933  1.00  0.00     0.163 HD
HETATM    5  O1  UNL     1      15.190 -21.271 -18.815  1.00  0.00    -0.271 OA
BRANCH   3   6
HETATM    6  C10 UNL     1      14.362 -23.826 -19.113  1.00  0.00     0.176 C 
BRANCH   6   7
HETATM    7  C9  UNL     1      14.737 -25.286 -18.923  1.00  0.00     0.035 C 
BRANCH   7   8
HETATM    8  C8  UNL     1      16.050 -25.720 -19.420  1.00  0.00     0.003 C 
BRANCH   8   9
HETATM    9  C7  UNL     1      17.211 -25.376 -18.534  1.00  0.00     0.005 C 
BRANCH   9  10
HETATM   10  C6  UNL     1      17.869 -26.551 -17.897  1.00  0.00    -0.011 C 
HETATM   11  C5  UNL     1      18.311 -26.379 -16.486  1.00  0.00     0.032 C 
HETATM   12  C4  UNL     1      18.692 -27.752 -15.948  1.00  0.00     0.237 C 
HETATM   13  N1  UNL     1      19.663 -28.437 -16.735  1.00  0.00    -0.071 N 
HETATM   14  C3  UNL     1      19.691 -29.832 -16.307  1.00  0.00     0.272 C 
HETATM   15  C36 UNL     1      19.384 -28.456 -18.158  1.00  0.00     0.237 C 
HETATM   16  C35 UNL     1      19.062 -27.079 -18.696  1.00  0.00     0.032 C 
BRANCH  13  17
HETATM   17  C2  UNL     1      20.988 -27.869 -16.553  1.00  0.00     0.232 C 
HETATM   18  C1  UNL     1      21.449 -27.905 -15.125  1.00  0.00     0.035 C 
ENDBRANCH  13  17
ENDBRANCH   9  10
ENDBRANCH   8   9
ENDBRANCH   7   8
ENDBRANCH   6   7
BRANCH   6  19
HETATM   19  C30 UNL     1      12.904 -23.684 -19.262  1.00  0.00     0.242 C 
HETATM   20  O4  UNL     1      12.176 -24.290 -18.400  1.00  0.00    -0.271 OA
HETATM   21  N7  UNL     1      12.297 -22.947 -20.256  1.00  0.00    -0.350 N 
HETATM   22  C31 UNL     1      12.870 -22.169 -21.315  1.00  0.00     0.126 C 
HETATM   23  C34 UNL     1      10.843 -22.796 -20.434  1.00  0.00     0.126 C 
HETATM   24  C32 UNL     1      12.045 -20.895 -21.346  1.00  0.00     0.021 C 
HETATM   25  C33 UNL     1      10.656 -21.416 -20.981  1.00  0.00     0.021 C 
ENDBRANCH   6  19
ENDBRANCH   3   6
ENDBRANCH   1   2
BRANCH   1  26
HETATM   26  C13 UNL     1      15.422 -22.104 -15.343  1.00  0.00     0.054 C 
BRANCH  26  27
HETATM   27  C14 UNL     1      16.824 -22.472 -14.956  1.00  0.00     0.102 C 
BRANCH  27  28
HETATM   28  C15 UNL     1      16.898 -23.459 -13.839  1.00  0.00     0.231 C 
HETATM   29  N3  UNL     1      18.178 -23.939 -13.414  1.00  0.00    -0.062 NA
HETATM   30  O2  UNL     1      15.914 -23.920 -13.223  1.00  0.00    -0.277 OA
ENDBRANCH  27  28
ENDBRANCH  26  27
ENDBRANCH   1  26
BRANCH   1  31
HETATM   31  N4  UNL     1      14.478 -20.069 -16.405  1.00  0.00     0.116 N 
HETATM   32  C16 UNL     1      14.556 -19.430 -15.103  1.00  0.00     0.280 C 
HETATM   33  C17 UNL     1      13.139 -18.962 -14.958  1.00  0.00     0.029 A 
HETATM   34  C18 UNL     1      12.537 -20.381 -15.302  1.00  0.00     0.043 A 
HETATM   35  C27 UNL     1      12.036 -19.530 -14.299  1.00  0.00    -0.035 A 
HETATM   36  C19 UNL     1      13.088 -20.357 -16.667  1.00  0.00     0.320 C 
HETATM   37  C28 UNL     1      12.295 -19.814 -12.797  1.00  0.00     0.015 C 
HETATM   38  C29 UNL     1      10.676 -18.895 -14.448  1.00  0.00     0.015 C 
BRANCH  36  39
HETATM   39  C20 UNL     1      12.578 -19.389 -17.630  1.00  0.00     0.254 C 
HETATM   40  O3  UNL     1      13.402 -18.531 -18.089  1.00  0.00    -0.271 OA
HETATM   41  N5  UNL     1      11.258 -19.290 -18.121  1.00  0.00    -0.348 N 
HETATM   42  C21 UNL     1      10.065 -20.076 -17.864  1.00  0.00     0.132 C 
HETATM   43  C26 UNL     1      10.807 -18.279 -19.059  1.00  0.00     0.159 C 
HETATM   44  C22 UNL     1       8.952 -19.036 -17.867  1.00  0.00     0.037 C 
HETATM   45  C23 UNL     1       7.828 -19.381 -18.807  1.00  0.00     0.036 C 
HETATM   46  C25 UNL     1       9.531 -17.761 -18.421  1.00  0.00     0.209 C 
HETATM   47  C24 UNL     1       7.488 -18.072 -19.483  1.00  0.00     0.233 C 
HETATM   48  N6  UNL     1       8.679 -17.263 -19.440  1.00  0.00    -0.069 N 
ATOM     49  H62 UNL     1       9.146 -17.207 -20.346  1.00  0.00     0.277 HD
ATOM     50  H61 UNL     1       8.474 -16.270 -19.326  1.00  0.00     0.277 HD
ENDBRANCH  36  39
ENDBRANCH   1  31
TORSDOF 13
ENDMDL
MODEL 2
REMARK VINA RESULT: -9.396705602      3.444      8.461
REMARK  13 active torsions:
REMARK  status: ('A' for Active; 'I' for Inactive)
REMARK    1  A    between atoms: C2_2  and  N1_3 
REMARK    2  A    between atoms: C6_7  and  C7_8 
REMARK    3  A    between atoms: C7_8  and  C8_9 
REMARK    4  A    between atoms: C8_9  and  C9_10 
REMARK    5  A    between atoms: C9_10  and  C10_11 
REMARK    6  A    between atoms: C10_11  and  N2_12 
REMARK    7  A    between atoms: C10_11  and  C30_42 
REMARK       I    between atoms: N2_12  and  C11_14 
REMARK    8  A    between atoms: C11_14  and  C12_16 
REMARK    9  A    between atoms: C12_16  and  C13_17 
REMARK   10  A    between atoms: C12_16  and  N4_22 
REMARK   11  A    between atoms: C13_17  and  C14_18 
REMARK   12  A    between atoms: C14_18  and  C15_19 
REMARK   13  A    between atoms: C19_26  and  C20_27 
REMARK       I    between atoms: C20_27  and  N5_29 
REMARK       I    between atoms: C30_42  and  N7_44 
ROOT
HETATM    1  C12 UNL     1      13.427 -19.986 -16.598  1.00  0.00     0.315 C 
ENDROOT
BRANCH   1   2
HETATM    2  C11 UNL     1      12.574 -20.678 -17.637  1.00  0.00     0.252 C 
HETATM    3  N2  UNL     1      12.449 -20.334 -18.961  1.00  0.00    -0.346 N 
ATOM      4  H2  UNL     1      12.963 -19.538 -19.337  1.00  0.00     0.163 HD
HETATM    5  O1  UNL     1      11.903 -21.687 -17.215  1.00  0.00    -0.271 OA
BRANCH   3   6
HETATM    6  C10 UNL     1      11.557 -21.137 -19.837  1.00  0.00     0.176 C 
BRANCH   6   7
HETATM    7  C9  UNL     1      10.848 -20.083 -20.672  1.00  0.00     0.035 C 
BRANCH   7   8
HETATM    8  C8  UNL     1       9.577 -19.554 -20.159  1.00  0.00     0.003 C 
BRANCH   8   9
HETATM    9  C7  UNL     1       8.805 -18.704 -21.125  1.00  0.00     0.005 C 
BRANCH   9  10
HETATM   10  C6  UNL     1       7.448 -18.312 -20.651  1.00  0.00    -0.011 C 
HETATM   11  C5  UNL     1       7.053 -18.795 -19.299  1.00  0.00     0.032 C 
HETATM   12  C4  UNL     1       5.776 -18.066 -18.900  1.00  0.00     0.237 C 
HETATM   13  N1  UNL     1       4.716 -18.188 -19.846  1.00  0.00    -0.071 N 
HETATM   14  C3  UNL     1       3.695 -17.200 -19.512  1.00  0.00     0.272 C 
HETATM   15  C36 UNL     1       5.098 -17.927 -21.221  1.00  0.00     0.237 C 
HETATM   16  C35 UNL     1       6.335 -18.700 -21.627  1.00  0.00     0.032 C 
BRANCH  13  17
HETATM   17  C2  UNL     1       4.115 -19.510 -19.799  1.00  0.00     0.232 C 
HETATM   18  C1  UNL     1       3.161 -19.679 -18.652  1.00  0.00     0.035 C 
ENDBRANCH  13  17
ENDBRANCH   9  10
ENDBRANCH   8   9
ENDBRANCH   7   8
ENDBRANCH   6   7
BRANCH   6  19
HETATM   19  C30 UNL     1      12.487 -21.915 -20.673  1.00  0.00     0.242 C 
HETATM   20  O4  UNL     1      12.839 -21.387 -21.785  1.00  0.00    -0.271 OA
HETATM   21  N7  UNL     1      12.989 -23.151 -20.326  1.00  0.00    -0.350 N 
HETATM   22  C31 UNL     1      12.774 -23.942 -19.149  1.00  0.00     0.126 C 
HETATM   23  C34 UNL     1      13.911 -23.954 -21.146  1.00  0.00     0.126 C 
HETATM   24  C32 UNL     1      14.150 -24.472 -18.787  1.00  0.00     0.021 C 
HETATM   25  C33 UNL     1      14.774 -24.683 -20.164  1.00  0.00     0.021 C 
ENDBRANCH   6  19
ENDBRANCH   3   6
ENDBRANCH   1   2
BRANCH   1  26
HETATM   26  C13 UNL     1      13.722 -20.978 -15.546  1.00  0.00     0.054 C 
BRANCH  26  27
HETATM   27  C14 UNL     1      14.962 -21.764 -15.856  1.00  0.00     0.102 C 
BRANCH  27  28
HETATM   28  C15 UNL     1      16.225 -21.073 -15.464  1.00  0.00     0.231 C 
HETATM   29  N3  UNL     1      17.361 -21.855 -15.080  1.00  0.00    -0.062 NA
HETATM   30  O2  UNL     1      16.386 -19.835 -15.439  1.00  0.00    -0.277 OA
ENDBRANCH  27  28
ENDBRANCH  26  27
ENDBRANCH   1  26
BRANCH   1  31
HETATM   31  N4  UNL     1      12.730 -18.810 -16.235  1.00  0.00     0.116 N 
HETATM   32  C16 UNL     1      13.348 -18.223 -15.060  1.00  0.00     0.280 C 
HETATM   33  C17 UNL     1      12.148 -17.588 -14.425  1.00  0.00     0.029 A 
HETATM   34  C18 UNL     1      11.290 -18.910 -14.504  1.00  0.00     0.043 A 
HETATM   35  C27 UNL     1      11.292 -18.032 -13.404  1.00  0.00    -0.035 A 
HETATM   36  C19 UNL     1      11.314 -18.916 -15.976  1.00  0.00     0.320 C 
HETATM   37  C28 UNL     1      12.032 -18.389 -12.090  1.00  0.00     0.015 C 
HETATM   38  C29 UNL     1      10.060 -17.230 -13.067  1.00  0.00     0.015 C 
BRANCH  36  39
HETATM   39  C20 UNL     1      10.619 -17.866 -16.710  1.00  0.00     0.254 C 
HETATM   40  O3  UNL     1      11.292 -17.214 -17.575  1.00  0.00    -0.271 OA
HETATM   41  N5  UNL     1       9.268 -17.482 -16.572  1.00  0.00    -0.348 N 
HETATM   42  C21 UNL     1       8.197 -17.983 -15.731  1.00  0.00     0.132 C 
HETATM   43  C26 UNL     1       8.644 -16.402 -17.314  1.00  0.00     0.159 C 
HETATM   44  C22 UNL     1       7.430 -16.723 -15.350  1.00  0.00     0.037 C 
HETATM   45  C23 UNL     1       5.958 -16.818 -15.652  1.00  0.00     0.036 C 
HETATM   46  C25 UNL     1       7.926 -15.611 -16.236  1.00  0.00     0.209 C 
HETATM   47  C24 UNL     1       5.607 -15.471 -16.242  1.00  0.00     0.233 C 
HETATM   48  N6  UNL     1       6.818 -14.944 -16.818  1.00  0.00    -0.069 N 
ATOM     49  H62 UNL     1       6.822 -14.998 -17.837  1.00  0.00     0.277 HD
ATOM     50  H61 UNL     1       6.884 -13.930 -16.731  1.00  0.00     0.277 HD
ENDBRANCH  36  39
ENDBRANCH   1  31
TORSDOF 13
ENDMDL
MODEL 3
REMARK VINA RESULT: -9.301794287      2.656      4.547
REMARK  13 active torsions:
REMARK  status: ('A' for Active; 'I' for Inactive)
REMARK    1  A    between atoms: C2_2  and  N1_3 
REMARK    2  A    between atoms: C6_7  and  C7_8 
REMARK    3  A    between atoms: C7_8  and  C8_9 
REMARK    4  A    between atoms: C8_9  and  C9_10 
REMARK    5  A    between atoms: C9_10  and  C10_11 
REMARK    6  A    between atoms: C10_11  and  N2_12 
REMARK    7  A    between atoms: C10_11  and  C30_42 
REMARK       I    between atoms: N2_12  and  C11_14 
REMARK    8  A    between atoms: C11_14  and  C12_16 
REMARK    9  A    between atoms: C12_16  and  C13_17 
REMARK   10  A    between atoms: C12_16  and  N4_22 
REMARK   11  A    between atoms: C13_17  and  C14_18 
REMARK   12  A    between atoms: C14_18  and  C15_19 
REMARK   13  A    between atoms: C19_26  and  C20_27 
REMARK       I    between atoms: C20_27  and  N5_29 
REMARK       I    between atoms: C30_42  and  N7_44 
ROOT
HETATM    1  C12 UNL     1      13.029 -20.329 -17.138  1.00  0.00     0.315 C 
ENDROOT
BRANCH   1   2
HETATM    2  C11 UNL     1      12.627 -20.333 -18.596  1.00  0.00     0.252 C 
HETATM    3  N2  UNL     1      11.353 -20.230 -19.098  1.00  0.00    -0.346 N 
ATOM      4  H2  UNL     1      10.556 -20.140 -18.468  1.00  0.00     0.163 HD
HETATM    5  O1  UNL     1      13.593 -20.447 -19.434  1.00  0.00    -0.271 OA
BRANCH   3   6
HETATM    6  C10 UNL     1      11.149 -20.253 -20.570  1.00  0.00     0.176 C 
BRANCH   6   7
HETATM    7  C9  UNL     1      10.383 -21.546 -20.796  1.00  0.00     0.035 C 
BRANCH   7   8
HETATM    8  C8  UNL     1      11.114 -22.808 -20.619  1.00  0.00     0.003 C 
BRANCH   8   9
HETATM    9  C7  UNL     1      12.294 -22.993 -21.527  1.00  0.00     0.005 C 
BRANCH   9  10
HETATM   10  C6  UNL     1      13.430 -23.741 -20.917  1.00  0.00    -0.011 C 
HETATM   11  C5  UNL     1      13.401 -23.898 -19.437  1.00  0.00     0.032 C 
HETATM   12  C4  UNL     1      14.474 -24.909 -19.056  1.00  0.00     0.237 C 
HETATM   13  N1  UNL     1      15.777 -24.584 -19.537  1.00  0.00    -0.071 N 
HETATM   14  C3  UNL     1      16.620 -25.766 -19.390  1.00  0.00     0.272 C 
HETATM   15  C36 UNL     1      15.830 -24.219 -20.939  1.00  0.00     0.237 C 
HETATM   16  C35 UNL     1      14.798 -23.172 -21.297  1.00  0.00     0.032 C 
BRANCH  13  17
HETATM   17  C2  UNL     1      16.366 -23.496 -18.775  1.00  0.00     0.232 C 
HETATM   18  C1  UNL     1      17.669 -23.871 -18.131  1.00  0.00     0.035 C 
ENDBRANCH  13  17
ENDBRANCH   9  10
ENDBRANCH   8   9
ENDBRANCH   7   8
ENDBRANCH   6   7
BRANCH   6  19
HETATM   19  C30 UNL     1      10.283 -19.091 -20.827  1.00  0.00     0.242 C 
HETATM   20  O4  UNL     1      10.631 -18.315 -21.784  1.00  0.00    -0.271 OA
HETATM   21  N7  UNL     1       9.141 -18.804 -20.109  1.00  0.00    -0.350 N 
HETATM   22  C31 UNL     1       8.529 -19.508 -19.020  1.00  0.00     0.126 C 
HETATM   23  C34 UNL     1       8.263 -17.645 -20.338  1.00  0.00     0.126 C 
HETATM   24  C32 UNL     1       7.045 -19.490 -19.338  1.00  0.00     0.021 C 
HETATM   25  C33 UNL     1       6.886 -18.125 -20.003  1.00  0.00     0.021 C 
ENDBRANCH   6  19
ENDBRANCH   3   6
ENDBRANCH   1   2
BRANCH   1  26
HETATM   26  C13 UNL     1      12.559 -21.600 -16.554  1.00  0.00     0.054 C 
BRANCH  26  27
HETATM   27  C14 UNL     1      13.700 -22.517 -16.224  1.00  0.00     0.102 C 
BRANCH  27  28
HETATM   28  C15 UNL     1      14.128 -22.454 -14.796  1.00  0.00     0.231 C 
HETATM   29  N3  UNL     1      15.481 -22.775 -14.456  1.00  0.00    -0.062 NA
HETATM   30  O2  UNL     1      13.389 -22.138 -13.840  1.00  0.00    -0.277 OA
ENDBRANCH  27  28
ENDBRANCH  26  27
ENDBRANCH   1  26
BRANCH   1  31
HETATM   31  N4  UNL     1      12.539 -19.118 -16.598  1.00  0.00     0.116 N 
HETATM   32  C16 UNL     1      13.360 -18.725 -15.466  1.00  0.00     0.280 C 
HETATM   33  C17 UNL     1      12.334 -18.014 -14.636  1.00  0.00     0.029 A 
HETATM   34  C18 UNL     1      11.307 -19.210 -14.712  1.00  0.00     0.043 A 
HETATM   35  C27 UNL     1      11.550 -18.448 -13.554  1.00  0.00    -0.035 A 
HETATM   36  C19 UNL     1      11.160 -19.078 -16.171  1.00  0.00     0.320 C 
HETATM   37  C28 UNL     1      12.384 -19.015 -12.377  1.00  0.00     0.015 C 
HETATM   38  C29 UNL     1      10.481 -17.539 -13.001  1.00  0.00     0.015 C 
BRANCH  36  39
HETATM   39  C20 UNL     1      10.529 -17.887 -16.725  1.00  0.00     0.254 C 
HETATM   40  O3  UNL     1      11.232 -17.158 -17.499  1.00  0.00    -0.271 OA
HETATM   41  N5  UNL     1       9.209 -17.440 -16.499  1.00  0.00    -0.348 N 
HETATM   42  C21 UNL     1       8.118 -17.990 -15.716  1.00  0.00     0.132 C 
HETATM   43  C26 UNL     1       8.650 -16.222 -17.058  1.00  0.00     0.159 C 
HETATM   44  C22 UNL     1       7.444 -16.754 -15.135  1.00  0.00     0.037 C 
HETATM   45  C23 UNL     1       5.965 -16.705 -15.413  1.00  0.00     0.036 C 
HETATM   46  C25 UNL     1       8.003 -15.556 -15.858  1.00  0.00     0.209 C 
HETATM   47  C24 UNL     1       5.699 -15.265 -15.788  1.00  0.00     0.233 C 
HETATM   48  N6  UNL     1       6.935 -14.739 -16.309  1.00  0.00    -0.069 N 
ATOM     49  H62 UNL     1       6.921 -14.640 -17.324  1.00  0.00     0.277 HD
ATOM     50  H61 UNL     1       7.071 -13.755 -16.074  1.00  0.00     0.277 HD
ENDBRANCH  36  39
ENDBRANCH   1  31
TORSDOF 13
ENDMDL
MODEL 4
REMARK VINA RESULT: -9.148095811      3.528      6.619
REMARK  13 active torsions:
REMARK  status: ('A' for Active; 'I' for Inactive)
REMARK    1  A    between atoms: C2_2  and  N1_3 
REMARK    2  A    between atoms: C6_7  and  C7_8 
REMARK    3  A    between atoms: C7_8  and  C8_9 
REMARK    4  A    between atoms: C8_9  and  C9_10 
REMARK    5  A    between atoms: C9_10  and  C10_11 
REMARK    6  A    between atoms: C10_11  and  N2_12 
REMARK    7  A    between atoms: C10_11  and  C30_42 
REMARK       I    between atoms: N2_12  and  C11_14 
REMARK    8  A    between atoms: C11_14  and  C12_16 
REMARK    9  A    between atoms: C12_16  and  C13_17 
REMARK   10  A    between atoms: C12_16  and  N4_22 
REMARK   11  A    between atoms: C13_17  and  C14_18 
REMARK   12  A    between atoms: C14_18  and  C15_19 
REMARK   13  A    between atoms: C19_26  and  C20_27 
REMARK       I    between atoms: C20_27  and  N5_29 
REMARK       I    between atoms: C30_42  and  N7_44 
ROOT
HETATM    1  C12 UNL     1       9.499 -17.395 -15.865  1.00  0.00     0.315 C 
ENDROOT
BRANCH   1   2
HETATM    2  C11 UNL     1       9.420 -18.824 -16.352  1.00  0.00     0.252 C 
HETATM    3  N2  UNL     1       9.988 -19.338 -17.491  1.00  0.00    -0.346 N 
ATOM      4  H2  UNL     1      10.532 -18.738 -18.112  1.00  0.00     0.163 HD
HETATM    5  O1  UNL     1       8.744 -19.622 -15.607  1.00  0.00    -0.271 OA
BRANCH   3   6
HETATM    6  C10 UNL     1       9.802 -20.777 -17.809  1.00  0.00     0.176 C 
BRANCH   6   7
HETATM    7  C9  UNL     1      10.223 -20.870 -19.266  1.00  0.00     0.035 C 
BRANCH   7   8
HETATM    8  C8  UNL     1      10.467 -22.210 -19.817  1.00  0.00     0.003 C 
BRANCH   8   9
HETATM    9  C7  UNL     1      11.529 -22.279 -20.875  1.00  0.00     0.005 C 
BRANCH   9  10
HETATM   10  C6  UNL     1      12.674 -23.173 -20.541  1.00  0.00    -0.011 C 
HETATM   11  C5  UNL     1      12.900 -23.447 -19.095  1.00  0.00     0.032 C 
HETATM   12  C4  UNL     1      13.915 -24.578 -18.990  1.00  0.00     0.237 C 
HETATM   13  N1  UNL     1      15.134 -24.332 -19.687  1.00  0.00    -0.071 N 
HETATM   14  C3  UNL     1      15.865 -25.592 -19.779  1.00  0.00     0.272 C 
HETATM   15  C36 UNL     1      14.968 -23.860 -21.048  1.00  0.00     0.237 C 
HETATM   16  C35 UNL     1      14.001 -22.698 -21.136  1.00  0.00     0.032 C 
BRANCH  13  17
HETATM   17  C2  UNL     1      15.961 -23.367 -18.983  1.00  0.00     0.232 C 
HETATM   18  C1  UNL     1      17.270 -23.942 -18.525  1.00  0.00     0.035 C 
ENDBRANCH  13  17
ENDBRANCH   9  10
ENDBRANCH   8   9
ENDBRANCH   7   8
ENDBRANCH   6   7
BRANCH   6  19
HETATM   19  C30 UNL     1      10.780 -21.461 -16.946  1.00  0.00     0.242 C 
HETATM   20  O4  UNL     1      10.392 -22.544 -16.383  1.00  0.00    -0.271 OA
HETATM   21  N7  UNL     1      12.063 -21.009 -16.723  1.00  0.00    -0.350 N 
HETATM   22  C31 UNL     1      12.743 -19.856 -17.238  1.00  0.00     0.126 C 
HETATM   23  C34 UNL     1      13.057 -21.666 -15.859  1.00  0.00     0.126 C 
HETATM   24  C32 UNL     1      14.129 -20.358 -17.599  1.00  0.00     0.021 C 
HETATM   25  C33 UNL     1      14.379 -21.394 -16.505  1.00  0.00     0.021 C 
ENDBRANCH   6  19
ENDBRANCH   3   6
ENDBRANCH   1   2
BRANCH   1  26
HETATM   26  C13 UNL     1       9.478 -17.435 -14.390  1.00  0.00     0.054 C 
BRANCH  26  27
HETATM   27  C14 UNL     1      10.836 -17.175 -13.807  1.00  0.00     0.102 C 
BRANCH  27  28
HETATM   28  C15 UNL     1      11.461 -18.376 -13.181  1.00  0.00     0.231 C 
HETATM   29  N3  UNL     1      11.992 -18.278 -11.856  1.00  0.00    -0.062 NA
HETATM   30  O2  UNL     1      11.569 -19.494 -13.727  1.00  0.00    -0.277 OA
ENDBRANCH  27  28
ENDBRANCH  26  27
ENDBRANCH   1  26
BRANCH   1  31
HETATM   31  N4  UNL     1       8.468 -16.694 -16.532  1.00  0.00     0.116 N 
HETATM   32  C16 UNL     1       8.545 -15.283 -16.197  1.00  0.00     0.280 C 
HETATM   33  C17 UNL     1       7.094 -14.915 -16.287  1.00  0.00     0.029 A 
HETATM   34  C18 UNL     1       6.638 -16.105 -15.354  1.00  0.00     0.043 A 
HETATM   35  C27 UNL     1       6.100 -14.805 -15.300  1.00  0.00    -0.035 A 
HETATM   36  C19 UNL     1       7.106 -17.121 -16.310  1.00  0.00     0.320 C 
HETATM   37  C28 UNL     1       6.471 -13.826 -14.158  1.00  0.00     0.015 C 
HETATM   38  C29 UNL     1       4.671 -14.555 -15.713  1.00  0.00     0.015 C 
BRANCH  36  39
HETATM   39  C20 UNL     1       6.439 -17.258 -17.599  1.00  0.00     0.254 C 
HETATM   40  O3  UNL     1       7.155 -17.129 -18.645  1.00  0.00    -0.271 OA
HETATM   41  N5  UNL     1       5.070 -17.519 -17.825  1.00  0.00    -0.348 N 
HETATM   42  C21 UNL     1       3.962 -17.744 -16.916  1.00  0.00     0.132 C 
HETATM   43  C26 UNL     1       4.460 -17.612 -19.139  1.00  0.00     0.159 C 
HETATM   44  C22 UNL     1       2.794 -17.053 -17.608  1.00  0.00     0.037 C 
HETATM   45  C23 UNL     1       1.598 -17.951 -17.781  1.00  0.00     0.036 C 
HETATM   46  C25 UNL     1       3.231 -16.730 -19.012  1.00  0.00     0.209 C 
HETATM   47  C24 UNL     1       1.109 -17.659 -19.181  1.00  0.00     0.233 C 
HETATM   48  N6  UNL     1       2.247 -17.184 -19.927  1.00  0.00    -0.069 N 
ATOM     49  H62 UNL     1       2.609 -17.883 -20.575  1.00  0.00     0.277 HD
ATOM     50  H61 UNL     1       1.995 -16.473 -20.613  1.00  0.00     0.277 HD
ENDBRANCH  36  39
ENDBRANCH   1  31
TORSDOF 13
ENDMDL
MODEL 5
REMARK VINA RESULT: -9.121753556      2.217      3.652
REMARK  13 active torsions:
REMARK  status: ('A' for Active; 'I' for Inactive)
REMARK    1  A    between atoms: C2_2  and  N1_3 
REMARK    2  A    between atoms: C6_7  and  C7_8 
REMARK    3  A    between atoms: C7_8  and  C8_9 
REMARK    4  A    between atoms: C8_9  and  C9_10 
REMARK    5  A    between atoms: C9_10  and  C10_11 
REMARK    6  A    between atoms: C10_11  and  N2_12 
REMARK    7  A    between atoms: C10_11  and  C30_42 
REMARK       I    between atoms: N2_12  and  C11_14 
REMARK    8  A    between atoms: C11_14  and  C12_16 
REMARK    9  A    between atoms: C12_16  and  C13_17 
REMARK   10  A    between atoms: C12_16  and  N4_22 
REMARK   11  A    between atoms: C13_17  and  C14_18 
REMARK   12  A    between atoms: C14_18  and  C15_19 
REMARK   13  A    between atoms: C19_26  and  C20_27 
REMARK       I    between atoms: C20_27  and  N5_29 
REMARK       I    between atoms: C30_42  and  N7_44 
ROOT
HETATM    1  C12 UNL     1      13.443 -20.119 -16.451  1.00  0.00     0.315 C 
ENDROOT
BRANCH   1   2
HETATM    2  C11 UNL     1      13.247 -20.351 -17.932  1.00  0.00     0.252 C 
HETATM    3  N2  UNL     1      12.184 -20.981 -18.532  1.00  0.00    -0.346 N 
ATOM      4  H2  UNL     1      11.419 -21.351 -17.969  1.00  0.00     0.163 HD
HETATM    5  O1  UNL     1      14.184 -19.907 -18.688  1.00  0.00    -0.271 OA
BRANCH   3   6
HETATM    6  C10 UNL     1      12.164 -21.117 -20.011  1.00  0.00     0.176 C 
BRANCH   6   7
HETATM    7  C9  UNL     1      12.679 -22.529 -20.239  1.00  0.00     0.035 C 
BRANCH   7   8
HETATM    8  C8  UNL     1      13.064 -22.898 -21.608  1.00  0.00     0.003 C 
BRANCH   8   9
HETATM    9  C7  UNL     1      13.920 -24.125 -21.720  1.00  0.00     0.005 C 
BRANCH   9  10
HETATM   10  C6  UNL     1      15.070 -24.163 -20.773  1.00  0.00    -0.011 C 
HETATM   11  C5  UNL     1      16.309 -24.828 -21.262  1.00  0.00     0.032 C 
HETATM   12  C4  UNL     1      17.425 -24.515 -20.274  1.00  0.00     0.237 C 
HETATM   13  N1  UNL     1      17.123 -24.866 -18.925  1.00  0.00    -0.071 N 
HETATM   14  C3  UNL     1      18.111 -24.229 -18.060  1.00  0.00     0.272 C 
HETATM   15  C36 UNL     1      15.826 -24.415 -18.459  1.00  0.00     0.237 C 
HETATM   16  C35 UNL     1      14.714 -24.780 -19.420  1.00  0.00     0.032 C 
BRANCH  13  17
HETATM   17  C2  UNL     1      17.189 -26.303 -18.724  1.00  0.00     0.232 C 
HETATM   18  C1  UNL     1      18.562 -26.780 -18.352  1.00  0.00     0.035 C 
ENDBRANCH  13  17
ENDBRANCH   9  10
ENDBRANCH   8   9
ENDBRANCH   7   8
ENDBRANCH   6   7
BRANCH   6  19
HETATM   19  C30 UNL     1      10.735 -21.030 -20.356  1.00  0.00     0.242 C 
HETATM   20  O4  UNL     1      10.032 -22.083 -20.168  1.00  0.00    -0.271 OA
HETATM   21  N7  UNL     1      10.129 -19.897 -20.856  1.00  0.00    -0.350 N 
HETATM   22  C31 UNL     1      10.673 -18.600 -21.137  1.00  0.00     0.126 C 
HETATM   23  C34 UNL     1       8.706 -19.784 -21.218  1.00  0.00     0.126 C 
HETATM   24  C32 UNL     1       9.634 -17.626 -20.611  1.00  0.00     0.021 C 
HETATM   25  C33 UNL     1       8.333 -18.369 -20.908  1.00  0.00     0.021 C 
ENDBRANCH   6  19
ENDBRANCH   3   6
ENDBRANCH   1   2
BRANCH   1  26
HETATM   26  C13 UNL     1      13.033 -21.356 -15.758  1.00  0.00     0.054 C 
BRANCH  26  27
HETATM   27  C14 UNL     1      13.997 -22.479 -16.007  1.00  0.00     0.102 C 
BRANCH  27  28
HETATM   28  C15 UNL     1      14.999 -22.663 -14.917  1.00  0.00     0.231 C 
HETATM   29  N3  UNL     1      14.592 -23.279 -13.690  1.00  0.00    -0.062 NA
HETATM   30  O2  UNL     1      16.197 -22.317 -14.978  1.00  0.00    -0.277 OA
ENDBRANCH  27  28
ENDBRANCH  26  27
ENDBRANCH   1  26
BRANCH   1  31
HETATM   31  N4  UNL     1      12.759 -18.921 -16.145  1.00  0.00     0.116 N 
HETATM   32  C16 UNL     1      13.371 -18.295 -14.986  1.00  0.00     0.280 C 
HETATM   33  C17 UNL     1      12.171 -17.618 -14.394  1.00  0.00     0.029 A 
HETATM   34  C18 UNL     1      11.295 -18.930 -14.432  1.00  0.00     0.043 A 
HETATM   35  C27 UNL     1      11.295 -18.009 -13.368  1.00  0.00    -0.035 A 
HETATM   36  C19 UNL     1      11.338 -18.996 -15.902  1.00  0.00     0.320 C 
HETATM   37  C28 UNL     1      12.013 -18.322 -12.030  1.00  0.00     0.015 C 
HETATM   38  C29 UNL     1      10.071 -17.176 -13.081  1.00  0.00     0.015 C 
BRANCH  36  39
HETATM   39  C20 UNL     1      10.669 -17.967 -16.687  1.00  0.00     0.254 C 
HETATM   40  O3  UNL     1      11.374 -17.326 -17.534  1.00  0.00    -0.271 OA
HETATM   41  N5  UNL     1       9.310 -17.592 -16.618  1.00  0.00    -0.348 N 
HETATM   42  C21 UNL     1       8.206 -18.086 -15.815  1.00  0.00     0.132 C 
HETATM   43  C26 UNL     1       8.711 -16.532 -17.409  1.00  0.00     0.159 C 
HETATM   44  C22 UNL     1       7.412 -16.826 -15.495  1.00  0.00     0.037 C 
HETATM   45  C23 UNL     1       5.956 -16.939 -15.861  1.00  0.00     0.036 C 
HETATM   46  C25 UNL     1       7.939 -15.727 -16.380  1.00  0.00     0.209 C 
HETATM   47  C24 UNL     1       5.622 -15.607 -16.492  1.00  0.00     0.233 C 
HETATM   48  N6  UNL     1       6.854 -15.081 -17.024  1.00  0.00    -0.069 N 
ATOM     49  H62 UNL     1       6.903 -15.155 -18.040  1.00  0.00     0.277 HD
ATOM     50  H61 UNL     1       6.907 -14.065 -16.954  1.00  0.00     0.277 HD
ENDBRANCH  36  39
ENDBRANCH   1  31
TORSDOF 13
ENDMDL
