MODEL 1
REMARK VINA RESULT: -4.550447379      0.000      0.000
REMARK  5 active torsions:
REMARK  status: ('A' for Active; 'I' for Inactive)
REMARK    1  A    between atoms: N2_4  and  N3_6 
REMARK    2  A    between atoms: C1_8  and  N4_9 
REMARK    3  A    between atoms: N4_9  and  C2_11 
REMARK    4  A    between atoms: C2_11  and  C3_12 
REMARK    5  A    between atoms: C3_12  and  N5_13 
ROOT
HETATM    1  N4  UNL     1     -20.051 -18.500 -17.359  1.00  0.00    -0.383 N 
ATOM      2  H4  UNL     1     -19.301 -17.810 -17.419  1.00  0.00     0.160 HD
ENDROOT
BRANCH   1   3
HETATM    3  C1  UNL     1     -19.781 -19.732 -16.707  1.00  0.00     0.194 C 
HETATM    4  N3  UNL     1     -18.723 -20.385 -17.018  1.00  0.00    -0.283 N 
ATOM      5  H3  UNL     1     -18.523 -21.269 -16.551  1.00  0.00     0.189 HD
BRANCH   4   6
HETATM    6  N2  UNL     1     -17.843 -19.907 -17.983  1.00  0.00    -0.248 N 
HETATM    7  N1  UNL     1     -17.028 -20.667 -18.558  1.00  0.00    -0.331 N 
ATOM      8  H12 UNL     1     -17.023 -21.654 -18.301  1.00  0.00     0.178 HD
ATOM      9  H11 UNL     1     -16.382 -20.317 -19.265  1.00  0.00     0.178 HD
ATOM     10  H2  UNL     1     -17.860 -18.917 -18.228  1.00  0.00     0.207 HD
ENDBRANCH   4   6
ENDBRANCH   1   3
BRANCH   1  11
HETATM   11  C2  UNL     1     -21.329 -18.169 -17.943  1.00  0.00     0.142 C 
BRANCH  11  12
HETATM   12  C3  UNL     1     -21.168 -17.057 -18.982  1.00  0.00     0.167 C 
BRANCH  12  13
HETATM   13  N5  UNL     1     -22.146 -17.231 -20.043  1.00  0.00    -0.302 N 
HETATM   14  C4  UNL     1     -22.096 -16.733 -21.297  1.00  0.00     0.111 A 
HETATM   15  C5  UNL     1     -23.230 -17.152 -21.950  1.00  0.00     0.037 A 
HETATM   16  C6  UNL     1     -23.972 -17.920 -21.061  1.00  0.00     0.108 A 
HETATM   17  N6  UNL     1     -23.250 -17.924 -19.918  1.00  0.00    -0.310 N 
ATOM     18  H6  UNL     1     -23.530 -18.407 -19.064  1.00  0.00     0.186 HD
ENDBRANCH  12  13
ENDBRANCH  11  12
ENDBRANCH   1  11
TORSDOF 5
ENDMDL
MODEL 2
REMARK VINA RESULT: -4.493242679      3.836      5.846
REMARK  5 active torsions:
REMARK  status: ('A' for Active; 'I' for Inactive)
REMARK    1  A    between atoms: N2_4  and  N3_6 
REMARK    2  A    between atoms: C1_8  and  N4_9 
REMARK    3  A    between atoms: N4_9  and  C2_11 
REMARK    4  A    between atoms: C2_11  and  C3_12 
REMARK    5  A    between atoms: C3_12  and  N5_13 
ROOT
HETATM    1  N4  UNL     1     -25.493 -19.645 -17.759  1.00  0.00    -0.383 N 
ATOM      2  H4  UNL     1     -25.917 -20.573 -17.775  1.00  0.00     0.160 HD
ENDROOT
BRANCH   1   3
HETATM    3  C1  UNL     1     -25.428 -18.957 -16.517  1.00  0.00     0.194 C 
HETATM    4  N3  UNL     1     -26.499 -18.808 -15.830  1.00  0.00    -0.283 N 
ATOM      5  H3  UNL     1     -26.457 -18.317 -14.937  1.00  0.00     0.189 HD
BRANCH   4   6
HETATM    6  N2  UNL     1     -27.717 -19.303 -16.282  1.00  0.00    -0.248 N 
HETATM    7  N1  UNL     1     -28.798 -18.976 -15.737  1.00  0.00    -0.331 N 
ATOM      8  H12 UNL     1     -28.766 -18.331 -14.948  1.00  0.00     0.178 HD
ATOM      9  H11 UNL     1     -29.692 -19.339 -16.068  1.00  0.00     0.178 HD
ATOM     10  H2  UNL     1     -27.732 -19.947 -17.073  1.00  0.00     0.207 HD
ENDBRANCH   4   6
ENDBRANCH   1   3
BRANCH   1  11
HETATM   11  C2  UNL     1     -24.991 -19.103 -18.999  1.00  0.00     0.142 C 
BRANCH  11  12
HETATM   12  C3  UNL     1     -23.710 -18.303 -18.750  1.00  0.00     0.167 C 
BRANCH  12  13
HETATM   13  N5  UNL     1     -23.256 -17.704 -19.993  1.00  0.00    -0.302 N 
HETATM   14  C4  UNL     1     -22.155 -16.947 -20.187  1.00  0.00     0.111 A 
HETATM   15  C5  UNL     1     -22.125 -16.600 -21.516  1.00  0.00     0.037 A 
HETATM   16  C6  UNL     1     -23.236 -17.167 -22.128  1.00  0.00     0.108 A 
HETATM   17  N6  UNL     1     -23.880 -17.825 -21.138  1.00  0.00    -0.310 N 
ATOM     18  H6  UNL     1     -24.746 -18.350 -21.266  1.00  0.00     0.186 HD
ENDBRANCH  12  13
ENDBRANCH  11  12
ENDBRANCH   1  11
TORSDOF 5
ENDMDL
MODEL 3
REMARK VINA RESULT: -4.308905915      3.767      5.544
REMARK  5 active torsions:
REMARK  status: ('A' for Active; 'I' for Inactive)
REMARK    1  A    between atoms: N2_4  and  N3_6 
REMARK    2  A    between atoms: C1_8  and  N4_9 
REMARK    3  A    between atoms: N4_9  and  C2_11 
REMARK    4  A    between atoms: C2_11  and  C3_12 
REMARK    5  A    between atoms: C3_12  and  N5_13 
ROOT
HETATM    1  N4  UNL     1     -24.912 -19.097 -16.766  1.00  0.00    -0.383 N 
ATOM      2  H4  UNL     1     -24.124 -19.060 -16.120  1.00  0.00     0.160 HD
ENDROOT
BRANCH   1   3
HETATM    3  C1  UNL     1     -26.207 -19.342 -16.233  1.00  0.00     0.194 C 
HETATM    4  N3  UNL     1     -26.628 -18.620 -15.262  1.00  0.00    -0.283 N 
ATOM      5  H3  UNL     1     -27.558 -18.790 -14.878  1.00  0.00     0.189 HD
BRANCH   4   6
HETATM    6  N2  UNL     1     -25.841 -17.609 -14.724  1.00  0.00    -0.248 N 
HETATM    7  N1  UNL     1     -26.310 -16.776 -13.912  1.00  0.00    -0.331 N 
ATOM      8  H12 UNL     1     -27.293 -16.857 -13.650  1.00  0.00     0.178 HD
ATOM      9  H11 UNL     1     -25.732 -16.034 -13.518  1.00  0.00     0.178 HD
ATOM     10  H2  UNL     1     -24.860 -17.542 -14.996  1.00  0.00     0.207 HD
ENDBRANCH   4   6
ENDBRANCH   1   3
BRANCH   1  11
HETATM   11  C2  UNL     1     -24.653 -18.898 -18.172  1.00  0.00     0.142 C 
BRANCH  11  12
HETATM   12  C3  UNL     1     -23.241 -18.346 -18.379  1.00  0.00     0.167 C 
BRANCH  12  13
HETATM   13  N5  UNL     1     -23.109 -17.830 -19.731  1.00  0.00    -0.302 N 
HETATM   14  C4  UNL     1     -23.926 -18.058 -20.781  1.00  0.00     0.111 A 
HETATM   15  C5  UNL     1     -23.415 -17.370 -21.856  1.00  0.00     0.037 A 
HETATM   16  C6  UNL     1     -22.265 -16.716 -21.432  1.00  0.00     0.108 A 
HETATM   17  N6  UNL     1     -22.140 -17.043 -20.126  1.00  0.00    -0.310 N 
ATOM     18  H6  UNL     1     -21.384 -16.717 -19.522  1.00  0.00     0.186 HD
ENDBRANCH  12  13
ENDBRANCH  11  12
ENDBRANCH   1  11
TORSDOF 5
ENDMDL
MODEL 4
REMARK VINA RESULT: -4.284791089      1.228      1.627
REMARK  5 active torsions:
REMARK  status: ('A' for Active; 'I' for Inactive)
REMARK    1  A    between atoms: N2_4  and  N3_6 
REMARK    2  A    between atoms: C1_8  and  N4_9 
REMARK    3  A    between atoms: N4_9  and  C2_11 
REMARK    4  A    between atoms: C2_11  and  C3_12 
REMARK    5  A    between atoms: C3_12  and  N5_13 
ROOT
HETATM    1  N4  UNL     1     -19.718 -19.137 -17.407  1.00  0.00    -0.383 N 
ATOM      2  H4  UNL     1     -19.497 -19.804 -16.667  1.00  0.00     0.160 HD
ENDROOT
BRANCH   1   3
HETATM    3  C1  UNL     1     -18.759 -18.931 -18.435  1.00  0.00     0.194 C 
HETATM    4  N3  UNL     1     -18.052 -19.921 -18.835  1.00  0.00    -0.283 N 
ATOM      5  H3  UNL     1     -17.364 -19.780 -19.575  1.00  0.00     0.189 HD
BRANCH   4   6
HETATM    6  N2  UNL     1     -18.206 -21.186 -18.278  1.00  0.00    -0.248 N 
HETATM    7  N1  UNL     1     -17.405 -22.116 -18.536  1.00  0.00    -0.331 N 
ATOM      8  H12 UNL     1     -16.629 -21.924 -19.170  1.00  0.00     0.178 HD
ATOM      9  H11 UNL     1     -17.518 -23.044 -18.128  1.00  0.00     0.178 HD
ATOM     10  H2  UNL     1     -18.987 -21.361 -17.647  1.00  0.00     0.207 HD
ENDBRANCH   4   6
ENDBRANCH   1   3
BRANCH   1  11
HETATM   11  C2  UNL     1     -20.988 -18.453 -17.351  1.00  0.00     0.142 C 
BRANCH  11  12
HETATM   12  C3  UNL     1     -21.056 -17.369 -18.429  1.00  0.00     0.167 C 
BRANCH  12  13
HETATM   13  N5  UNL     1     -22.195 -17.612 -19.298  1.00  0.00    -0.302 N 
HETATM   14  C4  UNL     1     -23.339 -18.261 -18.993  1.00  0.00     0.111 A 
HETATM   15  C5  UNL     1     -24.130 -18.250 -20.116  1.00  0.00     0.037 A 
HETATM   16  C6  UNL     1     -23.438 -17.575 -21.115  1.00  0.00     0.108 A 
HETATM   17  N6  UNL     1     -22.266 -17.215 -20.544  1.00  0.00    -0.310 N 
ATOM     18  H6  UNL     1     -21.529 -16.699 -21.024  1.00  0.00     0.186 HD
ENDBRANCH  12  13
ENDBRANCH  11  12
ENDBRANCH   1  11
TORSDOF 5
ENDMDL
MODEL 5
REMARK VINA RESULT: -4.262371206      1.561      5.766
REMARK  5 active torsions:
REMARK  status: ('A' for Active; 'I' for Inactive)
REMARK    1  A    between atoms: N2_4  and  N3_6 
REMARK    2  A    between atoms: C1_8  and  N4_9 
REMARK    3  A    between atoms: N4_9  and  C2_11 
REMARK    4  A    between atoms: C2_11  and  C3_12 
REMARK    5  A    between atoms: C3_12  and  N5_13 
ROOT
HETATM    1  N4  UNL     1     -22.957 -17.479 -19.073  1.00  0.00    -0.383 N 
ATOM      2  H4  UNL     1     -22.917 -16.463 -19.146  1.00  0.00     0.160 HD
ENDROOT
BRANCH   1   3
HETATM    3  C1  UNL     1     -23.879 -18.176 -19.900  1.00  0.00     0.194 C 
HETATM    4  N3  UNL     1     -23.876 -17.954 -21.162  1.00  0.00    -0.283 N 
ATOM      5  H3  UNL     1     -24.534 -18.454 -21.761  1.00  0.00     0.189 HD
BRANCH   4   6
HETATM    6  N2  UNL     1     -22.991 -17.045 -21.729  1.00  0.00    -0.248 N 
HETATM    7  N1  UNL     1     -23.400 -16.028 -22.340  1.00  0.00    -0.331 N 
ATOM      8  H12 UNL     1     -24.407 -15.880 -22.412  1.00  0.00     0.178 HD
ATOM      9  H11 UNL     1     -22.751 -15.361 -22.756  1.00  0.00     0.178 HD
ATOM     10  H2  UNL     1     -21.987 -17.207 -21.648  1.00  0.00     0.207 HD
ENDBRANCH   4   6
ENDBRANCH   1   3
BRANCH   1  11
HETATM   11  C2  UNL     1     -22.075 -18.132 -18.136  1.00  0.00     0.142 C 
BRANCH  11  12
HETATM   12  C3  UNL     1     -20.621 -17.741 -18.412  1.00  0.00     0.167 C 
BRANCH  12  13
HETATM   13  N5  UNL     1     -19.730 -18.759 -17.883  1.00  0.00    -0.302 N 
HETATM   14  C4  UNL     1     -19.931 -19.550 -16.807  1.00  0.00     0.111 A 
HETATM   15  C5  UNL     1     -18.828 -20.359 -16.680  1.00  0.00     0.037 A 
HETATM   16  C6  UNL     1     -17.948 -20.041 -17.708  1.00  0.00     0.108 A 
HETATM   17  N6  UNL     1     -18.565 -19.057 -18.401  1.00  0.00    -0.310 N 
ATOM     18  H6  UNL     1     -18.171 -18.602 -19.225  1.00  0.00     0.186 HD
ENDBRANCH  12  13
ENDBRANCH  11  12
ENDBRANCH   1  11
TORSDOF 5
ENDMDL
