MODEL 1
REMARK VINA RESULT: -4.896962691      0.000      0.000
REMARK  5 active torsions:
REMARK  status: ('A' for Active; 'I' for Inactive)
REMARK    1  A    between atoms: C2_2  and  N1_3 
REMARK    2  A    between atoms: N3_8  and  C5_9 
REMARK    3  A    between atoms: C5_9  and  C6_10 
REMARK    4  A    between atoms: C6_10  and  N4_11 
REMARK    5  A    between atoms: N4_11  and  C7_13 
ROOT
HETATM    1  N1  UNL     1     -22.938 -17.595 -20.090  1.00  0.00    -0.207 N 
HETATM    2  N2  UNL     1     -24.150 -18.147 -20.050  1.00  0.00    -0.290 N 
ATOM      3  H2  UNL     1     -24.825 -18.142 -20.815  1.00  0.00     0.188 HD
HETATM    4  C3  UNL     1     -24.344 -18.712 -18.847  1.00  0.00     0.128 A 
HETATM    5  C4  UNL     1     -23.171 -18.469 -18.153  1.00  0.00     0.131 A 
HETATM    6  N3  UNL     1     -22.317 -17.780 -18.934  1.00  0.00    -0.280 N 
ENDROOT
BRANCH   6   7
HETATM    7  C5  UNL     1     -20.979 -17.346 -18.537  1.00  0.00     0.170 C 
BRANCH   7   8
HETATM    8  C6  UNL     1     -20.367 -18.491 -17.771  1.00  0.00     0.142 C 
BRANCH   8   9
HETATM    9  N4  UNL     1     -19.027 -18.810 -18.123  1.00  0.00    -0.385 N 
ATOM     10  H4  UNL     1     -18.427 -18.093 -18.532  1.00  0.00     0.160 HD
BRANCH   9  11
HETATM   11  C7  UNL     1     -18.518 -20.116 -17.912  1.00  0.00     0.168 C 
HETATM   12  N5  UNL     1     -17.751 -20.664 -18.825  1.00  0.00    -0.396 N 
ATOM     13  H52 UNL     1     -17.533 -20.142 -19.673  1.00  0.00     0.156 HD
ATOM     14  H51 UNL     1     -17.385 -21.605 -18.673  1.00  0.00     0.156 HD
ENDBRANCH   9  11
ENDBRANCH   8   9
ENDBRANCH   7   8
ENDBRANCH   6   7
BRANCH   1  15
HETATM   15  C2  UNL     1     -22.366 -16.900 -21.181  1.00  0.00     0.126 C 
HETATM   16  C1  UNL     1     -23.073 -16.730 -22.285  1.00  0.00     0.033 C 
ENDBRANCH   1  15
TORSDOF 5
ENDMDL
MODEL 2
REMARK VINA RESULT: -4.578042046      0.933      1.063
REMARK  5 active torsions:
REMARK  status: ('A' for Active; 'I' for Inactive)
REMARK    1  A    between atoms: C2_2  and  N1_3 
REMARK    2  A    between atoms: N3_8  and  C5_9 
REMARK    3  A    between atoms: C5_9  and  C6_10 
REMARK    4  A    between atoms: C6_10  and  N4_11 
REMARK    5  A    between atoms: N4_11  and  C7_13 
ROOT
HETATM    1  N1  UNL     1     -23.032 -17.607 -20.193  1.00  0.00    -0.207 N 
HETATM    2  N2  UNL     1     -24.247 -18.153 -20.211  1.00  0.00    -0.290 N 
ATOM      3  H2  UNL     1     -24.888 -18.138 -21.004  1.00  0.00     0.188 HD
HETATM    4  C3  UNL     1     -24.497 -18.726 -19.022  1.00  0.00     0.128 A 
HETATM    5  C4  UNL     1     -23.354 -18.495 -18.276  1.00  0.00     0.131 A 
HETATM    6  N3  UNL     1     -22.463 -17.806 -19.013  1.00  0.00    -0.280 N 
ENDROOT
BRANCH   6   7
HETATM    7  C5  UNL     1     -21.141 -17.382 -18.554  1.00  0.00     0.170 C 
BRANCH   7   8
HETATM    8  C6  UNL     1     -20.725 -18.359 -17.485  1.00  0.00     0.142 C 
BRANCH   8   9
HETATM    9  N4  UNL     1     -19.464 -18.982 -17.689  1.00  0.00    -0.385 N 
ATOM     10  H4  UNL     1     -18.828 -18.617 -18.398  1.00  0.00     0.160 HD
BRANCH   9  11
HETATM   11  C7  UNL     1     -19.082 -20.106 -16.914  1.00  0.00     0.168 C 
HETATM   12  N5  UNL     1     -20.006 -20.827 -16.324  1.00  0.00    -0.396 N 
ATOM     13  H52 UNL     1     -20.986 -20.566 -16.431  1.00  0.00     0.156 HD
ATOM     14  H51 UNL     1     -19.731 -21.636 -15.766  1.00  0.00     0.156 HD
ENDBRANCH   9  11
ENDBRANCH   8   9
ENDBRANCH   7   8
ENDBRANCH   6   7
BRANCH   1  15
HETATM   15  C2  UNL     1     -22.410 -16.908 -21.253  1.00  0.00     0.126 C 
HETATM   16  C1  UNL     1     -23.106 -16.622 -22.340  1.00  0.00     0.033 C 
ENDBRANCH   1  15
TORSDOF 5
ENDMDL
MODEL 3
REMARK VINA RESULT: -4.431897640      0.797      2.333
REMARK  5 active torsions:
REMARK  status: ('A' for Active; 'I' for Inactive)
REMARK    1  A    between atoms: C2_2  and  N1_3 
REMARK    2  A    between atoms: N3_8  and  C5_9 
REMARK    3  A    between atoms: C5_9  and  C6_10 
REMARK    4  A    between atoms: C6_10  and  N4_11 
REMARK    5  A    between atoms: N4_11  and  C7_13 
ROOT
HETATM    1  N1  UNL     1     -23.456 -17.939 -19.837  1.00  0.00    -0.207 N 
HETATM    2  N2  UNL     1     -23.925 -17.874 -21.083  1.00  0.00    -0.290 N 
ATOM      3  H2  UNL     1     -24.788 -18.309 -21.411  1.00  0.00     0.188 HD
HETATM    4  C3  UNL     1     -23.085 -17.147 -21.838  1.00  0.00     0.128 A 
HETATM    5  C4  UNL     1     -22.072 -16.772 -20.972  1.00  0.00     0.131 A 
HETATM    6  N3  UNL     1     -22.318 -17.268 -19.745  1.00  0.00    -0.280 N 
ENDROOT
BRANCH   6   7
HETATM    7  C5  UNL     1     -21.464 -17.076 -18.575  1.00  0.00     0.170 C 
BRANCH   7   8
HETATM    8  C6  UNL     1     -20.229 -17.910 -18.804  1.00  0.00     0.142 C 
BRANCH   8   9
HETATM    9  N4  UNL     1     -19.857 -18.754 -17.723  1.00  0.00    -0.385 N 
ATOM     10  H4  UNL     1     -20.496 -18.882 -16.938  1.00  0.00     0.160 HD
BRANCH   9  11
HETATM   11  C7  UNL     1     -18.605 -19.419 -17.726  1.00  0.00     0.168 C 
HETATM   12  N5  UNL     1     -18.112 -19.860 -18.859  1.00  0.00    -0.396 N 
ATOM     13  H52 UNL     1     -18.638 -19.718 -19.721  1.00  0.00     0.156 HD
ATOM     14  H51 UNL     1     -17.211 -20.339 -18.861  1.00  0.00     0.156 HD
ENDBRANCH   9  11
ENDBRANCH   8   9
ENDBRANCH   7   8
ENDBRANCH   6   7
BRANCH   1  15
HETATM   15  C2  UNL     1     -24.053 -18.619 -18.750  1.00  0.00     0.126 C 
HETATM   16  C1  UNL     1     -25.186 -19.274 -18.936  1.00  0.00     0.033 C 
ENDBRANCH   1  15
TORSDOF 5
ENDMDL
MODEL 4
REMARK VINA RESULT: -4.294593201      1.686      1.826
REMARK  5 active torsions:
REMARK  status: ('A' for Active; 'I' for Inactive)
REMARK    1  A    between atoms: C2_2  and  N1_3 
REMARK    2  A    between atoms: N3_8  and  C5_9 
REMARK    3  A    between atoms: C5_9  and  C6_10 
REMARK    4  A    between atoms: C6_10  and  N4_11 
REMARK    5  A    between atoms: N4_11  and  C7_13 
ROOT
HETATM    1  N1  UNL     1     -23.061 -17.603 -20.207  1.00  0.00    -0.207 N 
HETATM    2  N2  UNL     1     -24.267 -18.166 -20.276  1.00  0.00    -0.290 N 
ATOM      3  H2  UNL     1     -24.872 -18.164 -21.097  1.00  0.00     0.188 HD
HETATM    4  C3  UNL     1     -24.562 -18.737 -19.096  1.00  0.00     0.128 A 
HETATM    5  C4  UNL     1     -23.456 -18.487 -18.301  1.00  0.00     0.131 A 
HETATM    6  N3  UNL     1     -22.543 -17.788 -19.001  1.00  0.00    -0.280 N 
ENDROOT
BRANCH   6   7
HETATM    7  C5  UNL     1     -21.249 -17.344 -18.487  1.00  0.00     0.170 C 
BRANCH   7   8
HETATM    8  C6  UNL     1     -20.662 -18.513 -17.738  1.00  0.00     0.142 C 
BRANCH   8   9
HETATM    9  N4  UNL     1     -20.712 -18.413 -16.321  1.00  0.00    -0.385 N 
ATOM     10  H4  UNL     1     -20.484 -17.527 -15.868  1.00  0.00     0.160 HD
BRANCH   9  11
HETATM   11  C7  UNL     1     -21.073 -19.534 -15.531  1.00  0.00     0.168 C 
HETATM   12  N5  UNL     1     -21.410 -20.656 -16.121  1.00  0.00    -0.396 N 
ATOM     13  H52 UNL     1     -21.406 -20.705 -17.140  1.00  0.00     0.156 HD
ATOM     14  H51 UNL     1     -21.670 -21.463 -15.553  1.00  0.00     0.156 HD
ENDBRANCH   9  11
ENDBRANCH   8   9
ENDBRANCH   7   8
ENDBRANCH   6   7
BRANCH   1  15
HETATM   15  C2  UNL     1     -22.402 -16.900 -21.241  1.00  0.00     0.126 C 
HETATM   16  C1  UNL     1     -23.046 -16.646 -22.367  1.00  0.00     0.033 C 
ENDBRANCH   1  15
TORSDOF 5
ENDMDL
MODEL 5
REMARK VINA RESULT: -4.034374643      2.349      4.720
REMARK  5 active torsions:
REMARK  status: ('A' for Active; 'I' for Inactive)
REMARK    1  A    between atoms: C2_2  and  N1_3 
REMARK    2  A    between atoms: N3_8  and  C5_9 
REMARK    3  A    between atoms: C5_9  and  C6_10 
REMARK    4  A    between atoms: C6_10  and  N4_11 
REMARK    5  A    between atoms: N4_11  and  C7_13 
ROOT
HETATM    1  N1  UNL     1     -22.952 -17.694 -20.168  1.00  0.00    -0.207 N 
HETATM    2  N2  UNL     1     -21.740 -17.280 -19.800  1.00  0.00    -0.290 N 
ATOM      3  H2  UNL     1     -21.077 -16.790 -20.400  1.00  0.00     0.188 HD
HETATM    4  C3  UNL     1     -21.528 -17.609 -18.515  1.00  0.00     0.128 A 
HETATM    5  C4  UNL     1     -22.690 -18.251 -18.122  1.00  0.00     0.131 A 
HETATM    6  N3  UNL     1     -23.555 -18.294 -19.152  1.00  0.00    -0.280 N 
ENDROOT
BRANCH   6   7
HETATM    7  C5  UNL     1     -24.886 -18.896 -19.108  1.00  0.00     0.170 C 
BRANCH   7   8
HETATM    8  C6  UNL     1     -24.937 -19.730 -17.853  1.00  0.00     0.142 C 
BRANCH   8   9
HETATM    9  N4  UNL     1     -25.967 -19.386 -16.937  1.00  0.00    -0.385 N 
ATOM     10  H4  UNL     1     -26.935 -19.631 -17.149  1.00  0.00     0.160 HD
BRANCH   9  11
HETATM   11  C7  UNL     1     -25.662 -18.706 -15.731  1.00  0.00     0.168 C 
HETATM   12  N5  UNL     1     -26.632 -18.390 -14.906  1.00  0.00    -0.396 N 
ATOM     13  H52 UNL     1     -27.592 -18.639 -15.146  1.00  0.00     0.156 HD
ATOM     14  H51 UNL     1     -26.413 -17.900 -14.039  1.00  0.00     0.156 HD
ENDBRANCH   9  11
ENDBRANCH   8   9
ENDBRANCH   7   8
ENDBRANCH   6   7
BRANCH   1  15
HETATM   15  C2  UNL     1     -23.539 -17.541 -21.445  1.00  0.00     0.126 C 
HETATM   16  C1  UNL     1     -23.038 -16.655 -22.289  1.00  0.00     0.033 C 
ENDBRANCH   1  15
TORSDOF 5
ENDMDL
