MODEL 1
REMARK VINA RESULT: -8.231259838      0.000      0.000
REMARK  20 active torsions:
REMARK  status: ('A' for Active; 'I' for Inactive)
REMARK    1  A    between atoms: N1_1  and  C1_4 
REMARK    2  A    between atoms: C1_4  and  N2_5 
REMARK    3  A    between atoms: N2_5  and  C2_7 
REMARK    4  A    between atoms: C3_10  and  N4_11 
REMARK    5  A    between atoms: N4_11  and  O1_12 
REMARK    6  A    between atoms: N4_11  and  C4_17 
REMARK    7  A    between atoms: O1_12  and  S1_13 
REMARK    8  A    between atoms: C4_17  and  O5_18 
REMARK    9  A    between atoms: C4_17  and  N5_20 
REMARK   10  A    between atoms: N5_20  and  S2_22 
REMARK   11  A    between atoms: S2_22  and  C5_25 
REMARK   12  A    between atoms: C5_25  and  C6_26 
REMARK   13  A    between atoms: C6_26  and  N6_27 
REMARK   14  A    between atoms: C6_26  and  C7_31 
REMARK   15  A    between atoms: N6_27  and  O8_29 
REMARK   16  A    between atoms: C8_35  and  N7_36 
REMARK   17  A    between atoms: C11_41  and  N9_42 
REMARK   18  A    between atoms: C12_47  and  N11_48 
REMARK   19  A    between atoms: N13_54  and  C14_55 
REMARK   20  A    between atoms: N14_56  and  O12_58 
ROOT
HETATM    1  C2  UNL     1      -8.798  -1.624  14.020  1.00  0.00     0.696 C 
HETATM    2  N3  UNL     1      -8.551  -0.982  12.929  1.00  0.00    -0.178 N 
ATOM      3  H3  UNL     1      -8.842  -0.007  12.851  1.00  0.00     0.182 HD
HETATM    4  C3  UNL     1      -7.866  -1.609  11.801  1.00  0.00     0.382 C 
HETATM    5  O11 UNL     1      -7.119  -2.697  12.092  1.00  0.00    -0.303 OA
HETATM    6  C8  UNL     1      -7.067  -3.204  13.344  1.00  0.00     0.367 C 
HETATM    7  N13 UNL     1      -8.342  -2.972  14.033  1.00  0.00    -0.131 N 
ENDROOT
BRANCH   4   8
HETATM    8  N4  UNL     1      -8.825  -1.999  10.795  1.00  0.00    -0.151 N 
BRANCH   8   9
HETATM    9  O1  UNL     1      -8.492  -2.982   9.939  1.00  0.00    -0.122 OA
BRANCH   9  10
HETATM   10  S1  UNL     1      -7.488  -2.431   8.714  1.00  0.00     0.274 S 
HETATM   11  O2  UNL     1      -7.684  -0.956   8.500  1.00  0.00    -0.571 OA
HETATM   12  O3  UNL     1      -7.842  -3.087   7.389  1.00  0.00    -0.571 OA
HETATM   13  O4  UNL     1      -5.895  -2.803   9.103  1.00  0.00    -0.571 OA
ENDBRANCH   9  10
ENDBRANCH   8   9
BRANCH   8  14
HETATM   14  C4  UNL     1     -10.071  -1.380  10.701  1.00  0.00     0.258 C 
BRANCH  14  15
HETATM   15  O5  UNL     1     -10.083  -0.097  10.460  1.00  0.00    -0.330 OA
ATOM     16  H5  UNL     1     -10.572   0.197   9.700  1.00  0.00     0.221 HD
ENDBRANCH  14  15
BRANCH  14  17
HETATM   17  N5  UNL     1     -11.349  -1.935  10.826  1.00  0.00    -0.248 N 
ATOM     18  H5  UNL     1     -11.896  -1.682  11.649  1.00  0.00     0.182 HD
BRANCH  17  19
HETATM   19  S2  UNL     1     -12.067  -3.013   9.693  1.00  0.00     0.235 S 
HETATM   20  O6  UNL     1     -11.946  -4.455  10.121  1.00  0.00    -0.205 OA
HETATM   21  O7  UNL     1     -13.543  -2.652   9.611  1.00  0.00    -0.205 OA
BRANCH  19  22
HETATM   22  C5  UNL     1     -11.402  -2.877   8.071  1.00  0.00     0.201 C 
BRANCH  22  23
HETATM   23  C6  UNL     1     -11.337  -1.444   7.577  1.00  0.00     0.222 C 
BRANCH  23  24
HETATM   24  N6  UNL     1     -12.617  -0.864   7.326  1.00  0.00    -0.289 N 
ATOM     25  H6  UNL     1     -13.398  -0.966   7.975  1.00  0.00     0.188 HD
BRANCH  24  26
HETATM   26  O8  UNL     1     -12.722  -0.181   6.190  1.00  0.00    -0.294 OA
ATOM     27  H8  UNL     1     -11.905   0.148   5.834  1.00  0.00     0.244 HD
ENDBRANCH  24  26
ENDBRANCH  23  24
BRANCH  23  28
HETATM   28  C7  UNL     1     -10.598  -1.495   6.286  1.00  0.00     0.199 C 
HETATM   29  O9  UNL     1     -10.706  -2.437   5.463  1.00  0.00    -0.646 OA
HETATM   30  O10 UNL     1      -9.741  -0.452   5.964  1.00  0.00    -0.646 OA
ENDBRANCH  23  28
ENDBRANCH  22  23
ENDBRANCH  19  22
ENDBRANCH  17  19
ENDBRANCH  14  17
ENDBRANCH   8  14
ENDBRANCH   4   8
BRANCH   1  31
HETATM   31  N2  UNL     1      -9.453  -1.108  15.156  1.00  0.00    -0.140 N 
ATOM     32  H2  UNL     1     -10.445  -0.882  15.084  1.00  0.00     0.195 HD
BRANCH  31  33
HETATM   33  C1  UNL     1      -8.866  -0.909  16.266  1.00  0.00     0.059 C 
BRANCH  33  34
HETATM   34  N1  UNL     1      -8.179  -1.017  17.334  1.00  0.00    -0.351 N 
ATOM     35  H12 UNL     1      -7.295  -1.038  16.826  1.00  0.00     0.167 HD
ATOM     36  H11 UNL     1      -7.865  -1.097  18.300  1.00  0.00     0.167 HD
ENDBRANCH  33  34
ENDBRANCH  31  33
ENDBRANCH   1  31
BRANCH   6  37
HETATM   37  N7  UNL     1      -6.787  -4.637  13.251  1.00  0.00    -0.281 N 
HETATM   38  C9  UNL     1      -7.384  -5.528  12.448  1.00  0.00     0.189 A 
HETATM   39  N8  UNL     1      -6.829  -6.739  12.676  1.00  0.00    -0.346 N 
HETATM   40  C10 UNL     1      -5.877  -6.575  13.637  1.00  0.00     0.123 A 
ATOM     41  H8  UNL     1      -7.077  -7.615  12.214  1.00  0.00     0.167 HD
HETATM   42  C11 UNL     1      -5.024  -7.493  14.231  1.00  0.00     0.145 A 
HETATM   43  C13 UNL     1      -5.849  -5.239  14.004  1.00  0.00     0.158 A 
HETATM   44  N10 UNL     1      -4.179  -7.025  15.169  1.00  0.00    -0.175 N 
HETATM   45  C12 UNL     1      -4.174  -5.718  15.509  1.00  0.00     0.679 A 
ATOM     46  H10 UNL     1      -3.535  -7.667  15.631  1.00  0.00     0.186 HD
HETATM   47  N12 UNL     1      -4.991  -4.812  14.946  1.00  0.00    -0.174 N 
ATOM     48  H12 UNL     1      -4.961  -3.831  15.225  1.00  0.00     0.186 HD
BRANCH  42  49
HETATM   49  N9  UNL     1      -5.032  -8.745  13.898  1.00  0.00    -0.383 N 
ATOM     50  H92 UNL     1      -5.906  -9.266  13.819  1.00  0.00     0.157 HD
ATOM     51  H91 UNL     1      -4.169  -9.255  13.707  1.00  0.00     0.157 HD
ENDBRANCH  42  49
BRANCH  45  52
HETATM   52  N11 UNL     1      -3.337  -5.348  16.419  1.00  0.00    -0.234 N 
ATOM     53 2H11 UNL     1      -3.027  -6.017  17.124  1.00  0.00     0.174 HD
ATOM     54 1H11 UNL     1      -3.014  -4.381  16.391  1.00  0.00     0.174 HD
ENDBRANCH  45  52
ENDBRANCH   6  37
BRANCH   7  55
HETATM   55  C14 UNL     1      -9.063  -4.015  14.657  1.00  0.00     0.228 C 
HETATM   56  N14 UNL     1     -10.107  -4.522  14.187  1.00  0.00    -0.264 N 
ATOM     57  H14 UNL     1     -10.502  -5.267  14.762  1.00  0.00     0.194 HD
BRANCH  56  58
HETATM   58  O12 UNL     1     -10.803  -4.269  13.069  1.00  0.00    -0.289 OA
ATOM     59  H12 UNL     1     -10.836  -4.709  12.228  1.00  0.00     0.244 HD
ENDBRANCH  56  58
ENDBRANCH   7  55
TORSDOF 20
ENDMDL
MODEL 2
REMARK VINA RESULT: -8.114152742      1.543      2.627
REMARK  20 active torsions:
REMARK  status: ('A' for Active; 'I' for Inactive)
REMARK    1  A    between atoms: N1_1  and  C1_4 
REMARK    2  A    between atoms: C1_4  and  N2_5 
REMARK    3  A    between atoms: N2_5  and  C2_7 
REMARK    4  A    between atoms: C3_10  and  N4_11 
REMARK    5  A    between atoms: N4_11  and  O1_12 
REMARK    6  A    between atoms: N4_11  and  C4_17 
REMARK    7  A    between atoms: O1_12  and  S1_13 
REMARK    8  A    between atoms: C4_17  and  O5_18 
REMARK    9  A    between atoms: C4_17  and  N5_20 
REMARK   10  A    between atoms: N5_20  and  S2_22 
REMARK   11  A    between atoms: S2_22  and  C5_25 
REMARK   12  A    between atoms: C5_25  and  C6_26 
REMARK   13  A    between atoms: C6_26  and  N6_27 
REMARK   14  A    between atoms: C6_26  and  C7_31 
REMARK   15  A    between atoms: N6_27  and  O8_29 
REMARK   16  A    between atoms: C8_35  and  N7_36 
REMARK   17  A    between atoms: C11_41  and  N9_42 
REMARK   18  A    between atoms: C12_47  and  N11_48 
REMARK   19  A    between atoms: N13_54  and  C14_55 
REMARK   20  A    between atoms: N14_56  and  O12_58 
ROOT
HETATM    1  C2  UNL     1      -9.857  -2.081  13.799  1.00  0.00     0.696 C 
HETATM    2  N3  UNL     1      -9.588  -1.770  12.577  1.00  0.00    -0.178 N 
ATOM      3  H3  UNL     1     -10.328  -1.387  11.989  1.00  0.00     0.182 HD
HETATM    4  C3  UNL     1      -8.253  -1.951  12.008  1.00  0.00     0.382 C 
HETATM    5  O11 UNL     1      -7.236  -2.019  12.894  1.00  0.00    -0.303 OA
HETATM    6  C8  UNL     1      -7.456  -1.985  14.227  1.00  0.00     0.367 C 
HETATM    7  N13 UNL     1      -8.754  -2.597  14.537  1.00  0.00    -0.131 N 
ENDROOT
BRANCH   4   8
HETATM    8  N4  UNL     1      -8.215  -3.155  11.211  1.00  0.00    -0.151 N 
BRANCH   8   9
HETATM    9  O1  UNL     1      -7.023  -3.736  10.986  1.00  0.00    -0.122 OA
BRANCH   9  10
HETATM   10  S1  UNL     1      -6.328  -3.207   9.555  1.00  0.00     0.274 S 
HETATM   11  O2  UNL     1      -6.345  -4.306   8.528  1.00  0.00    -0.571 OA
HETATM   12  O3  UNL     1      -4.862  -2.862   9.761  1.00  0.00    -0.571 OA
HETATM   13  O4  UNL     1      -7.145  -1.838   9.022  1.00  0.00    -0.571 OA
ENDBRANCH   9  10
ENDBRANCH   8   9
BRANCH   8  14
HETATM   14  C4  UNL     1      -9.378  -3.712  10.681  1.00  0.00     0.258 C 
BRANCH  14  15
HETATM   15  O5  UNL     1      -9.920  -4.700  11.340  1.00  0.00    -0.330 OA
ATOM     16  H5  UNL     1      -9.711  -5.581  11.051  1.00  0.00     0.221 HD
ENDBRANCH  14  15
BRANCH  14  17
HETATM   17  N5  UNL     1     -10.078  -3.368   9.519  1.00  0.00    -0.248 N 
ATOM     18  H5  UNL     1      -9.547  -3.296   8.651  1.00  0.00     0.182 HD
BRANCH  17  19
HETATM   19  S2  UNL     1     -11.768  -3.055   9.447  1.00  0.00     0.235 S 
HETATM   20  O6  UNL     1     -12.589  -4.300   9.677  1.00  0.00    -0.205 OA
HETATM   21  O7  UNL     1     -12.082  -2.056  10.551  1.00  0.00    -0.205 OA
BRANCH  19  22
HETATM   22  C5  UNL     1     -12.290  -2.341   7.928  1.00  0.00     0.201 C 
BRANCH  22  23
HETATM   23  C6  UNL     1     -11.511  -1.091   7.564  1.00  0.00     0.222 C 
BRANCH  23  24
HETATM   24  N6  UNL     1     -12.337   0.044   7.302  1.00  0.00    -0.289 N 
ATOM     25  H6  UNL     1     -12.522   0.759   8.006  1.00  0.00     0.188 HD
BRANCH  24  26
HETATM   26  O8  UNL     1     -12.848   0.107   6.075  1.00  0.00    -0.294 OA
ATOM     27  H8  UNL     1     -12.772   0.950   5.645  1.00  0.00     0.244 HD
ENDBRANCH  24  26
ENDBRANCH  23  24
BRANCH  23  28
HETATM   28  C7  UNL     1     -10.777  -1.421   6.312  1.00  0.00     0.199 C 
HETATM   29  O9  UNL     1     -10.958  -2.479   5.663  1.00  0.00    -0.646 OA
HETATM   30  O10 UNL     1      -9.841  -0.519   5.828  1.00  0.00    -0.646 OA
ENDBRANCH  23  28
ENDBRANCH  22  23
ENDBRANCH  19  22
ENDBRANCH  17  19
ENDBRANCH  14  17
ENDBRANCH   8  14
ENDBRANCH   4   8
BRANCH   1  31
HETATM   31  N2  UNL     1     -11.107  -1.947  14.433  1.00  0.00    -0.140 N 
ATOM     32  H2  UNL     1     -11.164  -1.384  15.282  1.00  0.00     0.195 HD
BRANCH  31  33
HETATM   33  C1  UNL     1     -12.169  -2.493  13.999  1.00  0.00     0.059 C 
BRANCH  33  34
HETATM   34  N1  UNL     1     -13.063  -3.056  13.286  1.00  0.00    -0.351 N 
ATOM     35  H12 UNL     1     -12.524  -2.943  12.427  1.00  0.00     0.167 HD
ATOM     36  H11 UNL     1     -13.900  -3.527  12.945  1.00  0.00     0.167 HD
ENDBRANCH  33  34
ENDBRANCH  31  33
ENDBRANCH   1  31
BRANCH   6  37
HETATM   37  N7  UNL     1      -6.375  -2.710  14.893  1.00  0.00    -0.281 N 
HETATM   38  C9  UNL     1      -5.603  -2.269  15.897  1.00  0.00     0.189 A 
HETATM   39  N8  UNL     1      -4.730  -3.250  16.219  1.00  0.00    -0.346 N 
HETATM   40  C10 UNL     1      -4.980  -4.303  15.392  1.00  0.00     0.123 A 
ATOM     41  H8  UNL     1      -4.015  -3.209  16.946  1.00  0.00     0.167 HD
HETATM   42  C11 UNL     1      -4.373  -5.548  15.303  1.00  0.00     0.145 A 
HETATM   43  C13 UNL     1      -6.025  -3.962  14.549  1.00  0.00     0.158 A 
HETATM   44  N10 UNL     1      -4.845  -6.393  14.368  1.00  0.00    -0.175 N 
HETATM   45  C12 UNL     1      -5.864  -6.035  13.559  1.00  0.00     0.679 A 
ATOM     46  H10 UNL     1      -4.427  -7.318  14.270  1.00  0.00     0.186 HD
HETATM   47  N12 UNL     1      -6.466  -4.836  13.628  1.00  0.00    -0.174 N 
ATOM     48  H12 UNL     1      -7.235  -4.596  13.001  1.00  0.00     0.186 HD
BRANCH  42  49
HETATM   49  N9  UNL     1      -3.397  -5.886  16.086  1.00  0.00    -0.383 N 
ATOM     50  H92 UNL     1      -2.920  -5.197  16.667  1.00  0.00     0.157 HD
ATOM     51  H91 UNL     1      -3.069  -6.850  16.146  1.00  0.00     0.157 HD
ENDBRANCH  42  49
BRANCH  45  52
HETATM   52  N11 UNL     1      -6.257  -6.900  12.686  1.00  0.00    -0.234 N 
ATOM     53 2H11 UNL     1      -5.629  -7.184  11.935  1.00  0.00     0.174 HD
ATOM     54 1H11 UNL     1      -7.202  -7.272  12.790  1.00  0.00     0.174 HD
ENDBRANCH  45  52
ENDBRANCH   6  37
BRANCH   7  55
HETATM   55  C14 UNL     1      -8.893  -3.627  15.496  1.00  0.00     0.228 C 
HETATM   56  N14 UNL     1      -9.236  -4.799  15.218  1.00  0.00    -0.264 N 
ATOM     57  H14 UNL     1      -9.286  -5.419  16.027  1.00  0.00     0.194 HD
BRANCH  56  58
HETATM   58  O12 UNL     1      -9.550  -5.391  14.057  1.00  0.00    -0.289 OA
ATOM     59  H12 UNL     1      -9.133  -6.089  13.566  1.00  0.00     0.244 HD
ENDBRANCH  56  58
ENDBRANCH   7  55
TORSDOF 20
ENDMDL
MODEL 3
REMARK VINA RESULT: -8.100262409      1.164      1.723
REMARK  20 active torsions:
REMARK  status: ('A' for Active; 'I' for Inactive)
REMARK    1  A    between atoms: N1_1  and  C1_4 
REMARK    2  A    between atoms: C1_4  and  N2_5 
REMARK    3  A    between atoms: N2_5  and  C2_7 
REMARK    4  A    between atoms: C3_10  and  N4_11 
REMARK    5  A    between atoms: N4_11  and  O1_12 
REMARK    6  A    between atoms: N4_11  and  C4_17 
REMARK    7  A    between atoms: O1_12  and  S1_13 
REMARK    8  A    between atoms: C4_17  and  O5_18 
REMARK    9  A    between atoms: C4_17  and  N5_20 
REMARK   10  A    between atoms: N5_20  and  S2_22 
REMARK   11  A    between atoms: S2_22  and  C5_25 
REMARK   12  A    between atoms: C5_25  and  C6_26 
REMARK   13  A    between atoms: C6_26  and  N6_27 
REMARK   14  A    between atoms: C6_26  and  C7_31 
REMARK   15  A    between atoms: N6_27  and  O8_29 
REMARK   16  A    between atoms: C8_35  and  N7_36 
REMARK   17  A    between atoms: C11_41  and  N9_42 
REMARK   18  A    between atoms: C12_47  and  N11_48 
REMARK   19  A    between atoms: N13_54  and  C14_55 
REMARK   20  A    between atoms: N14_56  and  O12_58 
ROOT
HETATM    1  C2  UNL     1      -8.931  -1.456  13.297  1.00  0.00     0.696 C 
HETATM    2  N3  UNL     1      -8.720  -0.950  12.129  1.00  0.00    -0.178 N 
ATOM      3  H3  UNL     1      -9.016   0.009  11.944  1.00  0.00     0.182 HD
HETATM    4  C3  UNL     1      -8.070  -1.709  11.063  1.00  0.00     0.382 C 
HETATM    5  O11 UNL     1      -7.311  -2.755  11.458  1.00  0.00    -0.303 OA
HETATM    6  C8  UNL     1      -7.219  -3.108  12.759  1.00  0.00     0.367 C 
HETATM    7  N13 UNL     1      -8.472  -2.793  13.456  1.00  0.00    -0.131 N 
ENDROOT
BRANCH   4   8
HETATM    8  N4  UNL     1      -9.060  -2.214  10.142  1.00  0.00    -0.151 N 
BRANCH   8   9
HETATM    9  O1  UNL     1      -8.686  -3.150   9.250  1.00  0.00    -0.122 OA
BRANCH   9  10
HETATM   10  S1  UNL     1      -8.002  -2.470   7.878  1.00  0.00     0.274 S 
HETATM   11  O2  UNL     1      -8.983  -2.493   6.739  1.00  0.00    -0.571 OA
HETATM   12  O3  UNL     1      -6.809  -3.285   7.408  1.00  0.00    -0.571 OA
HETATM   13  O4  UNL     1      -7.494  -0.908   8.237  1.00  0.00    -0.571 OA
ENDBRANCH   9  10
ENDBRANCH   8   9
BRANCH   8  14
HETATM   14  C4  UNL     1     -10.376  -1.754  10.164  1.00  0.00     0.258 C 
BRANCH  14  15
HETATM   15  O5  UNL     1     -10.566  -0.481   9.947  1.00  0.00    -0.330 OA
ATOM     16  H5  UNL     1     -10.022  -0.068   9.287  1.00  0.00     0.221 HD
ENDBRANCH  14  15
BRANCH  14  17
HETATM   17  N5  UNL     1     -11.561  -2.464  10.388  1.00  0.00    -0.248 N 
ATOM     18  H5  UNL     1     -11.935  -2.472  11.337  1.00  0.00     0.182 HD
BRANCH  17  19
HETATM   19  S2  UNL     1     -12.434  -3.322   9.180  1.00  0.00     0.235 S 
HETATM   20  O6  UNL     1     -11.544  -3.784   8.051  1.00  0.00    -0.205 OA
HETATM   21  O7  UNL     1     -13.038  -4.546   9.855  1.00  0.00    -0.205 OA
BRANCH  19  22
HETATM   22  C5  UNL     1     -13.758  -2.403   8.478  1.00  0.00     0.201 C 
BRANCH  22  23
HETATM   23  C6  UNL     1     -13.283  -1.266   7.591  1.00  0.00     0.222 C 
BRANCH  23  24
HETATM   24  N6  UNL     1     -11.888  -1.315   7.292  1.00  0.00    -0.289 N 
ATOM     25  H6  UNL     1     -11.173  -1.115   7.992  1.00  0.00     0.188 HD
BRANCH  24  26
HETATM   26  O8  UNL     1     -11.584  -1.640   6.038  1.00  0.00    -0.294 OA
ATOM     27  H8  UNL     1     -10.673  -1.858   5.883  1.00  0.00     0.244 HD
ENDBRANCH  24  26
ENDBRANCH  23  24
BRANCH  23  28
HETATM   28  C7  UNL     1     -13.542  -0.019   8.361  1.00  0.00     0.199 C 
HETATM   29  O9  UNL     1     -13.790   1.087   7.823  1.00  0.00    -0.646 OA
HETATM   30  O10 UNL     1     -13.508  -0.069   9.747  1.00  0.00    -0.646 OA
ENDBRANCH  23  28
ENDBRANCH  22  23
ENDBRANCH  19  22
ENDBRANCH  17  19
ENDBRANCH  14  17
ENDBRANCH   8  14
ENDBRANCH   4   8
BRANCH   1  31
HETATM   31  N2  UNL     1      -9.550  -0.806  14.382  1.00  0.00    -0.140 N 
ATOM     32  H2  UNL     1     -10.562  -0.889  14.486  1.00  0.00     0.195 HD
BRANCH  31  33
HETATM   33  C1  UNL     1      -8.909  -0.122  15.240  1.00  0.00     0.059 C 
BRANCH  33  34
HETATM   34  N1  UNL     1      -8.030   0.351  16.032  1.00  0.00    -0.351 N 
ATOM     35  H12 UNL     1      -8.678   0.378  16.820  1.00  0.00     0.167 HD
ATOM     36  H11 UNL     1      -7.176   0.715  16.454  1.00  0.00     0.167 HD
ENDBRANCH  33  34
ENDBRANCH  31  33
ENDBRANCH   1  31
BRANCH   6  37
HETATM   37  N7  UNL     1      -6.939  -4.543  12.830  1.00  0.00    -0.281 N 
HETATM   38  C9  UNL     1      -7.520  -5.517  12.116  1.00  0.00     0.189 A 
HETATM   39  N8  UNL     1      -6.971  -6.696  12.487  1.00  0.00    -0.346 N 
HETATM   40  C10 UNL     1      -6.040  -6.426  13.445  1.00  0.00     0.123 A 
ATOM     41  H8  UNL     1      -7.210  -7.617  12.119  1.00  0.00     0.167 HD
HETATM   42  C11 UNL     1      -5.200  -7.272  14.154  1.00  0.00     0.145 A 
HETATM   43  C13 UNL     1      -6.018  -5.058  13.664  1.00  0.00     0.158 A 
HETATM   44  N10 UNL     1      -4.376  -6.704  15.054  1.00  0.00    -0.175 N 
HETATM   45  C12 UNL     1      -4.376  -5.367  15.248  1.00  0.00     0.679 A 
ATOM     46  H10 UNL     1      -3.743  -7.290  15.596  1.00  0.00     0.186 HD
HETATM   47  N12 UNL     1      -5.180  -4.530  14.572  1.00  0.00    -0.174 N 
ATOM     48  H12 UNL     1      -5.155  -3.524  14.743  1.00  0.00     0.186 HD
BRANCH  42  49
HETATM   49  N9  UNL     1      -5.204  -8.554  13.960  1.00  0.00    -0.383 N 
ATOM     50  H92 UNL     1      -4.536  -8.996  13.328  1.00  0.00     0.157 HD
ATOM     51  H91 UNL     1      -5.874  -9.165  14.428  1.00  0.00     0.157 HD
ENDBRANCH  42  49
BRANCH  45  52
HETATM   52  N11 UNL     1      -3.558  -4.900  16.130  1.00  0.00    -0.234 N 
ATOM     53 2H11 UNL     1      -2.636  -4.573  15.843  1.00  0.00     0.174 HD
ATOM     54 1H11 UNL     1      -3.880  -4.876  17.098  1.00  0.00     0.174 HD
ENDBRANCH  45  52
ENDBRANCH   6  37
BRANCH   7  55
HETATM   55  C14 UNL     1      -9.171  -3.754  14.223  1.00  0.00     0.228 C 
HETATM   56  N14 UNL     1     -10.213  -4.332  13.840  1.00  0.00    -0.264 N 
ATOM     57  H14 UNL     1     -10.590  -4.998  14.514  1.00  0.00     0.194 HD
BRANCH  56  58
HETATM   58  O12 UNL     1     -10.925  -4.239  12.707  1.00  0.00    -0.289 OA
ATOM     59  H12 UNL     1     -11.488  -3.554  12.365  1.00  0.00     0.244 HD
ENDBRANCH  56  58
ENDBRANCH   7  55
TORSDOF 20
ENDMDL
MODEL 4
REMARK VINA RESULT: -8.062654338      1.837      2.497
REMARK  20 active torsions:
REMARK  status: ('A' for Active; 'I' for Inactive)
REMARK    1  A    between atoms: N1_1  and  C1_4 
REMARK    2  A    between atoms: C1_4  and  N2_5 
REMARK    3  A    between atoms: N2_5  and  C2_7 
REMARK    4  A    between atoms: C3_10  and  N4_11 
REMARK    5  A    between atoms: N4_11  and  O1_12 
REMARK    6  A    between atoms: N4_11  and  C4_17 
REMARK    7  A    between atoms: O1_12  and  S1_13 
REMARK    8  A    between atoms: C4_17  and  O5_18 
REMARK    9  A    between atoms: C4_17  and  N5_20 
REMARK   10  A    between atoms: N5_20  and  S2_22 
REMARK   11  A    between atoms: S2_22  and  C5_25 
REMARK   12  A    between atoms: C5_25  and  C6_26 
REMARK   13  A    between atoms: C6_26  and  N6_27 
REMARK   14  A    between atoms: C6_26  and  C7_31 
REMARK   15  A    between atoms: N6_27  and  O8_29 
REMARK   16  A    between atoms: C8_35  and  N7_36 
REMARK   17  A    between atoms: C11_41  and  N9_42 
REMARK   18  A    between atoms: C12_47  and  N11_48 
REMARK   19  A    between atoms: N13_54  and  C14_55 
REMARK   20  A    between atoms: N14_56  and  O12_58 
ROOT
HETATM    1  C2  UNL     1      -8.782  -1.393  13.086  1.00  0.00     0.696 C 
HETATM    2  N3  UNL     1      -8.630  -0.968  11.877  1.00  0.00    -0.178 N 
ATOM      3  H3  UNL     1      -8.914  -0.016  11.648  1.00  0.00     0.182 HD
HETATM    4  C3  UNL     1      -8.063  -1.812  10.827  1.00  0.00     0.382 C 
HETATM    5  O11 UNL     1      -7.308  -2.851  11.244  1.00  0.00    -0.303 OA
HETATM    6  C8  UNL     1      -7.145  -3.123  12.557  1.00  0.00     0.367 C 
HETATM    7  N13 UNL     1      -8.345  -2.730  13.305  1.00  0.00    -0.131 N 
ENDROOT
BRANCH   4   8
HETATM    8  N4  UNL     1      -9.119  -2.347  10.000  1.00  0.00    -0.151 N 
BRANCH   8   9
HETATM    9  O1  UNL     1      -8.788  -3.191   9.006  1.00  0.00    -0.122 OA
BRANCH   9  10
HETATM   10  S1  UNL     1      -7.993  -2.405   7.756  1.00  0.00     0.274 S 
HETATM   11  O2  UNL     1      -6.700  -3.105   7.438  1.00  0.00    -0.571 OA
HETATM   12  O3  UNL     1      -7.604  -0.994   8.165  1.00  0.00    -0.571 OA
HETATM   13  O4  UNL     1      -9.011  -2.330   6.421  1.00  0.00    -0.571 OA
ENDBRANCH   9  10
ENDBRANCH   8   9
BRANCH   8  14
HETATM   14  C4  UNL     1     -10.454  -2.008  10.216  1.00  0.00     0.258 C 
BRANCH  14  15
HETATM   15  O5  UNL     1     -11.067  -2.599  11.205  1.00  0.00    -0.330 OA
ATOM     16  H5  UNL     1     -11.263  -2.072  11.971  1.00  0.00     0.221 HD
ENDBRANCH  14  15
BRANCH  14  17
HETATM   17  N5  UNL     1     -11.264  -1.104   9.519  1.00  0.00    -0.248 N 
ATOM     18  H5  UNL     1     -11.506  -1.332   8.555  1.00  0.00     0.182 HD
BRANCH  17  19
HETATM   19  S2  UNL     1     -11.882   0.364  10.169  1.00  0.00     0.235 S 
HETATM   20  O6  UNL     1     -12.730   0.133  11.396  1.00  0.00    -0.205 OA
HETATM   21  O7  UNL     1     -10.682   1.215  10.561  1.00  0.00    -0.205 OA
BRANCH  19  22
HETATM   22  C5  UNL     1     -12.837   1.296   9.025  1.00  0.00     0.201 C 
BRANCH  22  23
HETATM   23  C6  UNL     1     -12.116   1.538   7.712  1.00  0.00     0.222 C 
BRANCH  23  24
HETATM   24  N6  UNL     1     -12.337   2.838   7.166  1.00  0.00    -0.289 N 
ATOM     25  H6  UNL     1     -11.680   3.277   6.520  1.00  0.00     0.188 HD
BRANCH  24  26
HETATM   26  O8  UNL     1     -13.458   3.438   7.555  1.00  0.00    -0.294 OA
ATOM     27  H8  UNL     1     -13.342   4.262   8.014  1.00  0.00     0.244 HD
ENDBRANCH  24  26
ENDBRANCH  23  24
BRANCH  23  28
HETATM   28  C7  UNL     1     -12.671   0.541   6.756  1.00  0.00     0.199 C 
HETATM   29  O9  UNL     1     -13.831   0.607   6.284  1.00  0.00    -0.646 OA
HETATM   30  O10 UNL     1     -11.872  -0.523   6.361  1.00  0.00    -0.646 OA
ENDBRANCH  23  28
ENDBRANCH  22  23
ENDBRANCH  19  22
ENDBRANCH  17  19
ENDBRANCH  14  17
ENDBRANCH   8  14
ENDBRANCH   4   8
BRANCH   1  31
HETATM   31  N2  UNL     1      -9.319  -0.659  14.161  1.00  0.00    -0.140 N 
ATOM     32  H2  UNL     1      -9.017  -0.892  15.107  1.00  0.00     0.195 HD
BRANCH  31  33
HETATM   33  C1  UNL     1     -10.161   0.280  14.010  1.00  0.00     0.059 C 
BRANCH  33  34
HETATM   34  N1  UNL     1     -10.881   1.229  13.557  1.00  0.00    -0.351 N 
ATOM     35  H12 UNL     1     -10.079   1.845  13.423  1.00  0.00     0.167 HD
ATOM     36  H11 UNL     1     -11.649   1.818  13.236  1.00  0.00     0.167 HD
ENDBRANCH  33  34
ENDBRANCH  31  33
ENDBRANCH   1  31
BRANCH   6  37
HETATM   37  N7  UNL     1      -6.895  -4.557  12.705  1.00  0.00    -0.281 N 
HETATM   38  C9  UNL     1      -7.498  -5.556  12.045  1.00  0.00     0.189 A 
HETATM   39  N8  UNL     1      -6.973  -6.724  12.479  1.00  0.00    -0.346 N 
HETATM   40  C10 UNL     1      -6.036  -6.423  13.420  1.00  0.00     0.123 A 
ATOM     41  H8  UNL     1      -7.232  -7.658  12.161  1.00  0.00     0.167 HD
HETATM   42  C11 UNL     1      -5.214  -7.248  14.174  1.00  0.00     0.145 A 
HETATM   43  C13 UNL     1      -5.985  -5.047  13.566  1.00  0.00     0.158 A 
HETATM   44  N10 UNL     1      -4.377  -6.649  15.042  1.00  0.00    -0.175 N 
HETATM   45  C12 UNL     1      -4.348  -5.305  15.165  1.00  0.00     0.679 A 
ATOM     46  H10 UNL     1      -3.756  -7.220  15.616  1.00  0.00     0.186 HD
HETATM   47  N12 UNL     1      -5.135  -4.488  14.445  1.00  0.00    -0.174 N 
ATOM     48  H12 UNL     1      -5.088  -3.476  14.561  1.00  0.00     0.186 HD
BRANCH  42  49
HETATM   49  N9  UNL     1      -5.244  -8.538  14.050  1.00  0.00    -0.383 N 
ATOM     50  H92 UNL     1      -6.104  -9.025  13.796  1.00  0.00     0.157 HD
ATOM     51  H91 UNL     1      -4.414  -9.111  14.203  1.00  0.00     0.157 HD
ENDBRANCH  42  49
BRANCH  45  52
HETATM   52  N11 UNL     1      -3.520  -4.808  16.021  1.00  0.00    -0.234 N 
ATOM     53 2H11 UNL     1      -2.533  -5.059  15.975  1.00  0.00     0.174 HD
ATOM     54 1H11 UNL     1      -3.899  -4.170  16.720  1.00  0.00     0.174 HD
ENDBRANCH  45  52
ENDBRANCH   6  37
BRANCH   7  55
HETATM   55  C14 UNL     1      -9.019  -3.619  14.173  1.00  0.00     0.228 C 
HETATM   56  N14 UNL     1      -8.699  -3.807  15.369  1.00  0.00    -0.264 N 
ATOM     57  H14 UNL     1      -9.290  -4.481  15.856  1.00  0.00     0.194 HD
BRANCH  56  58
HETATM   58  O12 UNL     1      -7.724  -3.287  16.129  1.00  0.00    -0.289 OA
ATOM     59  H12 UNL     1      -7.743  -2.672  16.853  1.00  0.00     0.244 HD
ENDBRANCH  56  58
ENDBRANCH   7  55
TORSDOF 20
ENDMDL
MODEL 5
REMARK VINA RESULT: -8.006181800      1.318      1.694
REMARK  20 active torsions:
REMARK  status: ('A' for Active; 'I' for Inactive)
REMARK    1  A    between atoms: N1_1  and  C1_4 
REMARK    2  A    between atoms: C1_4  and  N2_5 
REMARK    3  A    between atoms: N2_5  and  C2_7 
REMARK    4  A    between atoms: C3_10  and  N4_11 
REMARK    5  A    between atoms: N4_11  and  O1_12 
REMARK    6  A    between atoms: N4_11  and  C4_17 
REMARK    7  A    between atoms: O1_12  and  S1_13 
REMARK    8  A    between atoms: C4_17  and  O5_18 
REMARK    9  A    between atoms: C4_17  and  N5_20 
REMARK   10  A    between atoms: N5_20  and  S2_22 
REMARK   11  A    between atoms: S2_22  and  C5_25 
REMARK   12  A    between atoms: C5_25  and  C6_26 
REMARK   13  A    between atoms: C6_26  and  N6_27 
REMARK   14  A    between atoms: C6_26  and  C7_31 
REMARK   15  A    between atoms: N6_27  and  O8_29 
REMARK   16  A    between atoms: C8_35  and  N7_36 
REMARK   17  A    between atoms: C11_41  and  N9_42 
REMARK   18  A    between atoms: C12_47  and  N11_48 
REMARK   19  A    between atoms: N13_54  and  C14_55 
REMARK   20  A    between atoms: N14_56  and  O12_58 
ROOT
HETATM    1  C2  UNL     1      -8.543  -1.250  13.265  1.00  0.00     0.696 C 
HETATM    2  N3  UNL     1      -8.420  -0.811  12.058  1.00  0.00    -0.178 N 
ATOM      3  H3  UNL     1      -8.675   0.155  11.854  1.00  0.00     0.182 HD
HETATM    4  C3  UNL     1      -7.927  -1.658  10.974  1.00  0.00     0.382 C 
HETATM    5  O11 UNL     1      -7.197  -2.732  11.345  1.00  0.00    -0.303 OA
HETATM    6  C8  UNL     1      -6.995  -3.032  12.647  1.00  0.00     0.367 C 
HETATM    7  N13 UNL     1      -8.151  -2.606  13.446  1.00  0.00    -0.131 N 
ENDROOT
BRANCH   4   8
HETATM    8  N4  UNL     1      -9.033  -2.138  10.180  1.00  0.00    -0.151 N 
BRANCH   8   9
HETATM    9  O1  UNL     1      -8.796  -3.098   9.267  1.00  0.00    -0.122 OA
BRANCH   9  10
HETATM   10  S1  UNL     1      -8.077  -2.483   7.883  1.00  0.00     0.274 S 
HETATM   11  O2  UNL     1      -7.653  -1.057   8.104  1.00  0.00    -0.571 OA
HETATM   12  O3  UNL     1      -9.067  -2.441   6.731  1.00  0.00    -0.571 OA
HETATM   13  O4  UNL     1      -6.780  -3.464   7.458  1.00  0.00    -0.571 OA
ENDBRANCH   9  10
ENDBRANCH   8   9
BRANCH   8  14
HETATM   14  C4  UNL     1     -10.321  -1.630  10.345  1.00  0.00     0.258 C 
BRANCH  14  15
HETATM   15  O5  UNL     1     -10.499  -0.363  10.088  1.00  0.00    -0.330 OA
ATOM     16  H5  UNL     1     -10.851  -0.138   9.234  1.00  0.00     0.221 HD
ENDBRANCH  14  15
BRANCH  14  17
HETATM   17  N5  UNL     1     -11.488  -2.285  10.752  1.00  0.00    -0.248 N 
ATOM     18  H5  UNL     1     -11.604  -2.468  11.749  1.00  0.00     0.182 HD
BRANCH  17  19
HETATM   19  S2  UNL     1     -12.742  -2.805   9.696  1.00  0.00     0.235 S 
HETATM   20  O6  UNL     1     -12.239  -3.752   8.633  1.00  0.00    -0.205 OA
HETATM   21  O7  UNL     1     -13.768  -3.535  10.550  1.00  0.00    -0.205 OA
BRANCH  19  22
HETATM   22  C5  UNL     1     -13.576  -1.485   8.887  1.00  0.00     0.201 C 
BRANCH  22  23
HETATM   23  C6  UNL     1     -13.058  -1.230   7.484  1.00  0.00     0.222 C 
BRANCH  23  24
HETATM   24  N6  UNL     1     -11.638  -1.327   7.369  1.00  0.00    -0.289 N 
ATOM     25  H6  UNL     1     -11.141  -2.212   7.478  1.00  0.00     0.188 HD
BRANCH  24  26
HETATM   26  O8  UNL     1     -11.006  -0.186   7.110  1.00  0.00    -0.294 OA
ATOM     27  H8  UNL     1     -10.081  -0.269   6.907  1.00  0.00     0.244 HD
ENDBRANCH  24  26
ENDBRANCH  23  24
BRANCH  23  28
HETATM   28  C7  UNL     1     -13.447   0.169   7.157  1.00  0.00     0.199 C 
HETATM   29  O9  UNL     1     -13.726   0.557   5.997  1.00  0.00    -0.646 OA
HETATM   30  O10 UNL     1     -13.507   1.102   8.182  1.00  0.00    -0.646 OA
ENDBRANCH  23  28
ENDBRANCH  22  23
ENDBRANCH  19  22
ENDBRANCH  17  19
ENDBRANCH  14  17
ENDBRANCH   8  14
ENDBRANCH   4   8
BRANCH   1  31
HETATM   31  N2  UNL     1      -9.010  -0.514  14.371  1.00  0.00    -0.140 N 
ATOM     32  H2  UNL     1     -10.007  -0.310  14.433  1.00  0.00     0.195 HD
BRANCH  31  33
HETATM   33  C1  UNL     1      -8.248  -0.092  15.296  1.00  0.00     0.059 C 
BRANCH  33  34
HETATM   34  N1  UNL     1      -7.491   0.019  16.316  1.00  0.00    -0.351 N 
ATOM     35  H12 UNL     1      -7.915  -0.782  16.784  1.00  0.00     0.167 HD
ATOM     36  H11 UNL     1      -6.790   0.309  16.997  1.00  0.00     0.167 HD
ENDBRANCH  33  34
ENDBRANCH  31  33
ENDBRANCH   1  31
BRANCH   6  37
HETATM   37  N7  UNL     1      -6.796  -4.477  12.763  1.00  0.00    -0.281 N 
HETATM   38  C9  UNL     1      -7.424  -5.439  12.072  1.00  0.00     0.189 A 
HETATM   39  N8  UNL     1      -6.945  -6.634  12.484  1.00  0.00    -0.346 N 
HETATM   40  C10 UNL     1      -6.009  -6.388  13.443  1.00  0.00     0.123 A 
ATOM     41  H8  UNL     1      -7.231  -7.551  12.141  1.00  0.00     0.167 HD
HETATM   42  C11 UNL     1      -5.224  -7.258  14.186  1.00  0.00     0.145 A 
HETATM   43  C13 UNL     1      -5.913  -5.017  13.622  1.00  0.00     0.158 A 
HETATM   44  N10 UNL     1      -4.378  -6.709  15.077  1.00  0.00    -0.175 N 
HETATM   45  C12 UNL     1      -4.305  -5.369  15.232  1.00  0.00     0.679 A 
ATOM     46  H10 UNL     1      -3.783  -7.313  15.643  1.00  0.00     0.186 HD
HETATM   47  N12 UNL     1      -5.055  -4.509  14.523  1.00  0.00    -0.174 N 
ATOM     48  H12 UNL     1      -4.976  -3.502  14.664  1.00  0.00     0.186 HD
BRANCH  42  49
HETATM   49  N9  UNL     1      -5.297  -8.542  14.030  1.00  0.00    -0.383 N 
ATOM     50  H92 UNL     1      -5.973  -8.960  13.390  1.00  0.00     0.157 HD
ATOM     51  H91 UNL     1      -4.686  -9.179  14.541  1.00  0.00     0.157 HD
ENDBRANCH  42  49
BRANCH  45  52
HETATM   52  N11 UNL     1      -3.470  -4.921  16.108  1.00  0.00    -0.234 N 
ATOM     53 2H11 UNL     1      -2.472  -5.090  15.990  1.00  0.00     0.174 HD
ATOM     54 1H11 UNL     1      -3.857  -4.404  16.898  1.00  0.00     0.174 HD
ENDBRANCH  45  52
ENDBRANCH   6  37
BRANCH   7  55
HETATM   55  C14 UNL     1      -8.825  -3.484  14.326  1.00  0.00     0.228 C 
HETATM   56  N14 UNL     1      -8.480  -3.688  15.512  1.00  0.00    -0.264 N 
ATOM     57  H14 UNL     1      -9.076  -4.350  16.009  1.00  0.00     0.194 HD
BRANCH  56  58
HETATM   58  O12 UNL     1      -7.472  -3.199  16.249  1.00  0.00    -0.289 OA
ATOM     59  H12 UNL     1      -7.421  -2.460  16.844  1.00  0.00     0.244 HD
ENDBRANCH  56  58
ENDBRANCH   7  55
TORSDOF 20
ENDMDL
