MODEL 1
REMARK VINA RESULT: -5.709866872      0.000      0.000
REMARK  2 active torsions:
REMARK  status: ('A' for Active; 'I' for Inactive)
REMARK       I    between atoms: C1_2  and  N1_4 
REMARK    1  A    between atoms: N1_4  and  C2_6 
REMARK    2  A    between atoms: C2_6  and  C3_7 
ROOT
HETATM    1  C3  UNL     1      29.941   1.280  14.983  1.00  0.00     0.146 C 
HETATM    2  C4  UNL     1      30.317   0.165  14.015  1.00  0.00     0.095 C 
HETATM    3  C5  UNL     1      29.819  -0.633  15.190  1.00  0.00     0.161 C 
HETATM    4  O3  UNL     1      30.167   0.387  16.030  1.00  0.00    -0.353 OA
HETATM    5  S1  UNL     1      28.066  -1.071  15.141  1.00  0.00    -0.119 SA
HETATM    6  C6  UNL     1      28.136  -2.722  14.453  1.00  0.00     0.088 C 
HETATM    7  C7  UNL     1      29.333  -3.417  14.981  1.00  0.00     0.088 C 
HETATM    8  S2  UNL     1      30.573  -2.227  15.446  1.00  0.00    -0.119 SA
ENDROOT
BRANCH   1   9
HETATM    9  C2  UNL     1      30.840   2.468  14.940  1.00  0.00     0.157 C 
BRANCH   9  10
HETATM   10  N1  UNL     1      31.922   2.357  15.878  1.00  0.00    -0.333 N 
HETATM   11  C1  UNL     1      33.266   2.688  15.545  1.00  0.00     0.283 C 
HETATM   12  O1  UNL     1      33.487   3.092  14.364  1.00  0.00    -0.630 OA
HETATM   13  O2  UNL     1      34.266   2.563  16.486  1.00  0.00    -0.630 OA
ATOM     14  H1  UNL     1      31.718   2.028  16.822  1.00  0.00     0.165 HD
ENDBRANCH   9  10
ENDBRANCH   1   9
TORSDOF 2
ENDMDL
MODEL 2
REMARK VINA RESULT: -5.560838113      6.030      7.241
REMARK  2 active torsions:
REMARK  status: ('A' for Active; 'I' for Inactive)
REMARK       I    between atoms: C1_2  and  N1_4 
REMARK    1  A    between atoms: N1_4  and  C2_6 
REMARK    2  A    between atoms: C2_6  and  C3_7 
ROOT
HETATM    1  C3  UNL     1      37.423  -0.189  13.582  1.00  0.00     0.146 C 
HETATM    2  C4  UNL     1      36.312  -0.630  14.527  1.00  0.00     0.095 C 
HETATM    3  C5  UNL     1      35.534   0.195  13.538  1.00  0.00     0.161 C 
HETATM    4  O3  UNL     1      36.654   0.932  13.272  1.00  0.00    -0.353 OA
HETATM    5  S1  UNL     1      34.829  -0.725  12.150  1.00  0.00    -0.119 SA
HETATM    6  C6  UNL     1      33.163  -1.019  12.734  1.00  0.00     0.088 C 
HETATM    7  C7  UNL     1      32.701   0.163  13.497  1.00  0.00     0.088 C 
HETATM    8  S2  UNL     1      34.098   1.043  14.163  1.00  0.00    -0.119 SA
ENDROOT
BRANCH   1   9
HETATM    9  C2  UNL     1      38.729   0.086  14.246  1.00  0.00     0.157 C 
BRANCH   9  10
HETATM   10  N1  UNL     1      39.767  -0.785  13.771  1.00  0.00    -0.333 N 
HETATM   11  C1  UNL     1      40.054  -2.042  14.375  1.00  0.00     0.283 C 
HETATM   12  O1  UNL     1      39.348  -2.379  15.373  1.00  0.00    -0.630 OA
HETATM   13  O2  UNL     1      41.063  -2.838  13.878  1.00  0.00    -0.630 OA
ATOM     14  H1  UNL     1      40.322  -0.490  12.968  1.00  0.00     0.165 HD
ENDBRANCH   9  10
ENDBRANCH   1   9
TORSDOF 2
ENDMDL
MODEL 3
REMARK VINA RESULT: -5.552415706      5.427      7.252
REMARK  2 active torsions:
REMARK  status: ('A' for Active; 'I' for Inactive)
REMARK       I    between atoms: C1_2  and  N1_4 
REMARK    1  A    between atoms: N1_4  and  C2_6 
REMARK    2  A    between atoms: C2_6  and  C3_7 
ROOT
HETATM    1  C3  UNL     1      35.839  -0.128  13.738  1.00  0.00     0.146 C 
HETATM    2  C4  UNL     1      37.099   0.075  12.906  1.00  0.00     0.095 C 
HETATM    3  C5  UNL     1      37.688  -0.088  14.281  1.00  0.00     0.161 C 
HETATM    4  O3  UNL     1      36.532   0.387  14.833  1.00  0.00    -0.353 OA
HETATM    5  S1  UNL     1      38.157  -1.777  14.726  1.00  0.00    -0.119 SA
HETATM    6  C6  UNL     1      39.901  -1.774  14.324  1.00  0.00     0.088 C 
HETATM    7  C7  UNL     1      40.474  -0.449  14.658  1.00  0.00     0.088 C 
HETATM    8  S2  UNL     1      39.201   0.794  14.609  1.00  0.00    -0.119 SA
ENDROOT
BRANCH   1   9
HETATM    9  C2  UNL     1      34.662   0.667  13.285  1.00  0.00     0.157 C 
BRANCH   9  10
HETATM   10  N1  UNL     1      33.670   0.793  14.315  1.00  0.00    -0.333 N 
HETATM   11  C1  UNL     1      33.244   2.054  14.822  1.00  0.00     0.283 C 
HETATM   12  O1  UNL     1      33.780   3.089  14.325  1.00  0.00    -0.630 OA
HETATM   13  O2  UNL     1      32.287   2.117  15.813  1.00  0.00    -0.630 OA
ATOM     14  H1  UNL     1      33.254  -0.055  14.700  1.00  0.00     0.165 HD
ENDBRANCH   9  10
ENDBRANCH   1   9
TORSDOF 2
ENDMDL
MODEL 4
REMARK VINA RESULT: -5.514232625      3.621      6.126
REMARK  2 active torsions:
REMARK  status: ('A' for Active; 'I' for Inactive)
REMARK       I    between atoms: C1_2  and  N1_4 
REMARK    1  A    between atoms: N1_4  and  C2_6 
REMARK    2  A    between atoms: C2_6  and  C3_7 
ROOT
HETATM    1  C3  UNL     1      28.440  -1.110  14.211  1.00  0.00     0.146 C 
HETATM    2  C4  UNL     1      29.025   0.132  13.549  1.00  0.00     0.095 C 
HETATM    3  C5  UNL     1      30.093  -0.181  14.562  1.00  0.00     0.161 C 
HETATM    4  O3  UNL     1      29.160  -0.781  15.359  1.00  0.00    -0.353 OA
HETATM    5  S1  UNL     1      31.439  -1.232  13.968  1.00  0.00    -0.119 SA
HETATM    6  C6  UNL     1      32.666  -0.009  13.519  1.00  0.00     0.088 C 
HETATM    7  C7  UNL     1      32.615   1.109  14.489  1.00  0.00     0.088 C 
HETATM    8  S2  UNL     1      30.995   1.207  15.221  1.00  0.00    -0.119 SA
ENDROOT
BRANCH   1   9
HETATM    9  C2  UNL     1      26.956  -1.096  14.352  1.00  0.00     0.157 C 
BRANCH   9  10
HETATM   10  N1  UNL     1      26.407  -2.422  14.388  1.00  0.00    -0.333 N 
HETATM   11  C1  UNL     1      25.889  -3.008  15.577  1.00  0.00     0.283 C 
HETATM   12  O1  UNL     1      25.928  -2.307  16.633  1.00  0.00    -0.630 OA
HETATM   13  O2  UNL     1      25.373  -4.287  15.555  1.00  0.00    -0.630 OA
ATOM     14  H1  UNL     1      26.388  -2.967  13.526  1.00  0.00     0.165 HD
ENDBRANCH   9  10
ENDBRANCH   1   9
TORSDOF 2
ENDMDL
MODEL 5
REMARK VINA RESULT: -5.506156237      3.348      5.780
REMARK  2 active torsions:
REMARK  status: ('A' for Active; 'I' for Inactive)
REMARK       I    between atoms: C1_2  and  N1_4 
REMARK    1  A    between atoms: N1_4  and  C2_6 
REMARK    2  A    between atoms: C2_6  and  C3_7 
ROOT
HETATM    1  C3  UNL     1      29.112   0.323  14.488  1.00  0.00     0.146 C 
HETATM    2  C4  UNL     1      30.280  -0.211  15.309  1.00  0.00     0.095 C 
HETATM    3  C5  UNL     1      30.991   0.743  14.387  1.00  0.00     0.161 C 
HETATM    4  O3  UNL     1      30.012   0.568  13.451  1.00  0.00    -0.353 OA
HETATM    5  S1  UNL     1      31.204   2.421  15.025  1.00  0.00    -0.119 SA
HETATM    6  C6  UNL     1      32.860   2.333  15.698  1.00  0.00     0.088 C 
HETATM    7  C7  UNL     1      33.694   1.475  14.825  1.00  0.00     0.088 C 
HETATM    8  S2  UNL     1      32.665   0.321  13.943  1.00  0.00    -0.119 SA
ENDROOT
BRANCH   1   9
HETATM    9  C2  UNL     1      28.049  -0.681  14.198  1.00  0.00     0.157 C 
BRANCH   9  10
HETATM   10  N1  UNL     1      27.160  -0.859  15.312  1.00  0.00    -0.333 N 
HETATM   11  C1  UNL     1      26.697  -2.138  15.730  1.00  0.00     0.283 C 
HETATM   12  O1  UNL     1      27.101  -3.144  15.072  1.00  0.00    -0.630 OA
HETATM   13  O2  UNL     1      25.844  -2.251  16.807  1.00  0.00    -0.630 OA
ATOM     14  H1  UNL     1      26.848  -0.034  15.825  1.00  0.00     0.165 HD
ENDBRANCH   9  10
ENDBRANCH   1   9
TORSDOF 2
ENDMDL
