MODEL 1
REMARK VINA RESULT: -7.996635463      0.000      0.000
REMARK  8 active torsions:
REMARK  status: ('A' for Active; 'I' for Inactive)
REMARK    1  A    between atoms: C2_2  and  C4_4 
REMARK    2  A    between atoms: C4_4  and  C5_5 
REMARK    3  A    between atoms: C5_5  and  N1_6 
REMARK    4  A    between atoms: N1_6  and  C6_8 
REMARK    5  A    between atoms: C6_8  and  N2_10 
REMARK    6  A    between atoms: N3_17  and  C12_18 
REMARK    7  A    between atoms: C12_18  and  C13_19 
REMARK    8  A    between atoms: C18_24  and  O2_25 
ROOT
HETATM    1  N2  UNL     1      23.474   6.706  10.998  1.00  0.00    -0.353 N 
HETATM    2  C7  UNL     1      23.780   5.414  11.561  1.00  0.00     0.151 C 
HETATM    3  C8  UNL     1      23.380   5.382  13.006  1.00  0.00     0.188 C 
HETATM    4  O1  UNL     1      23.995   6.419  13.673  1.00  0.00    -0.377 OA
HETATM    5  C9  UNL     1      23.527   7.663  13.284  1.00  0.00     0.080 C 
HETATM    6  C10 UNL     1      22.072   7.833  13.718  1.00  0.00     0.070 C 
HETATM    7  C11 UNL     1      22.092   7.475  15.168  1.00  0.00     0.275 C 
HETATM    8  N3  UNL     1      22.779   8.448  15.988  1.00  0.00     0.089 N 
HETATM    9  C19 UNL     1      23.915   9.039  15.388  1.00  0.00     0.275 C 
HETATM   10  C20 UNL     1      24.287   8.718  14.011  1.00  0.00     0.070 C 
HETATM   11  C21 UNL     1      23.598   7.881  11.805  1.00  0.00     0.163 C 
ENDROOT
BRANCH   1  12
HETATM   12  C6  UNL     1      23.038   6.757   9.634  1.00  0.00     0.169 C 
HETATM   13  S1  UNL     1      22.265   5.471   9.021  1.00  0.00    -0.041 SA
BRANCH  12  14
HETATM   14  N1  UNL     1      23.301   7.909   8.869  1.00  0.00    -0.367 N 
ATOM     15  H1  UNL     1      22.749   8.741   9.075  1.00  0.00     0.161 HD
BRANCH  14  16
HETATM   16  C5  UNL     1      24.285   8.014   7.814  1.00  0.00     0.122 C 
BRANCH  16  17
HETATM   17  C4  UNL     1      25.657   8.035   8.440  1.00  0.00     0.023 C 
BRANCH  17  18
HETATM   18  C2  UNL     1      26.640   8.130   7.270  1.00  0.00    -0.021 C 
HETATM   19  C1  UNL     1      27.897   7.414   7.672  1.00  0.00     0.009 C 
HETATM   20  C3  UNL     1      26.036   7.624   5.993  1.00  0.00     0.009 C 
ENDBRANCH  17  18
ENDBRANCH  16  17
ENDBRANCH  14  16
ENDBRANCH  12  14
ENDBRANCH   1  12
BRANCH   8  21
HETATM   21  C12 UNL     1      23.002   7.802  17.238  1.00  0.00     0.279 C 
BRANCH  21  22
HETATM   22  C13 UNL     1      24.241   7.008  17.424  1.00  0.00     0.043 C 
HETATM   23  C14 UNL     1      25.184   7.806  18.281  1.00  0.00     0.009 C 
HETATM   24  C15 UNL     1      25.951   7.021  19.292  1.00  0.00     0.001 C 
HETATM   25  C16 UNL     1      24.882   6.242  20.075  1.00  0.00     0.002 C 
HETATM   26  C17 UNL     1      24.459   5.142  19.130  1.00  0.00     0.032 C 
HETATM   27  C18 UNL     1      23.975   5.612  17.815  1.00  0.00     0.124 C 
BRANCH  27  28
HETATM   28  O2  UNL     1      24.433   4.670  16.859  1.00  0.00    -0.395 OA
ATOM     29  H2  UNL     1      24.435   3.778  17.187  1.00  0.00     0.210 HD
ENDBRANCH  27  28
ENDBRANCH  21  22
ENDBRANCH   8  21
TORSDOF 8
ENDMDL
MODEL 2
REMARK VINA RESULT: -7.920562074      2.123      3.511
REMARK  8 active torsions:
REMARK  status: ('A' for Active; 'I' for Inactive)
REMARK    1  A    between atoms: C2_2  and  C4_4 
REMARK    2  A    between atoms: C4_4  and  C5_5 
REMARK    3  A    between atoms: C5_5  and  N1_6 
REMARK    4  A    between atoms: N1_6  and  C6_8 
REMARK    5  A    between atoms: C6_8  and  N2_10 
REMARK    6  A    between atoms: N3_17  and  C12_18 
REMARK    7  A    between atoms: C12_18  and  C13_19 
REMARK    8  A    between atoms: C18_24  and  O2_25 
ROOT
HETATM    1  N2  UNL     1      21.487   6.131   7.962  1.00  0.00    -0.353 N 
HETATM    2  C7  UNL     1      20.527   6.995   8.604  1.00  0.00     0.151 C 
HETATM    3  C8  UNL     1      21.013   7.363   9.975  1.00  0.00     0.188 C 
HETATM    4  O1  UNL     1      21.268   6.215  10.692  1.00  0.00    -0.377 OA
HETATM    5  C9  UNL     1      22.346   5.500  10.200  1.00  0.00     0.080 C 
HETATM    6  C10 UNL     1      23.636   6.291  10.408  1.00  0.00     0.070 C 
HETATM    7  C11 UNL     1      23.596   6.657  11.855  1.00  0.00     0.275 C 
HETATM    8  N3  UNL     1      23.777   5.525  12.737  1.00  0.00     0.089 N 
HETATM    9  C19 UNL     1      23.181   4.322  12.294  1.00  0.00     0.275 C 
HETATM   10  C20 UNL     1      22.509   4.252  10.998  1.00  0.00     0.070 C 
HETATM   11  C21 UNL     1      22.226   5.185   8.741  1.00  0.00     0.163 C 
ENDROOT
BRANCH   1  12
HETATM   12  C6  UNL     1      21.671   6.267   6.548  1.00  0.00     0.169 C 
HETATM   13  S1  UNL     1      20.358   6.320   5.599  1.00  0.00    -0.041 SA
BRANCH  12  14
HETATM   14  N1  UNL     1      22.976   6.341   6.026  1.00  0.00    -0.367 N 
ATOM     15  H1  UNL     1      23.413   5.466   5.738  1.00  0.00     0.161 HD
BRANCH  14  16
HETATM   16  C5  UNL     1      23.752   7.551   5.862  1.00  0.00     0.122 C 
BRANCH  16  17
HETATM   17  C4  UNL     1      24.154   8.051   7.227  1.00  0.00     0.023 C 
BRANCH  17  18
HETATM   18  C2  UNL     1      25.648   8.370   7.124  1.00  0.00    -0.021 C 
HETATM   19  C1  UNL     1      26.275   8.041   8.447  1.00  0.00     0.009 C 
HETATM   20  C3  UNL     1      26.286   7.672   5.959  1.00  0.00     0.009 C 
ENDBRANCH  17  18
ENDBRANCH  16  17
ENDBRANCH  14  16
ENDBRANCH  12  14
ENDBRANCH   1  12
BRANCH   8  21
HETATM   21  C12 UNL     1      23.373   5.978  14.026  1.00  0.00     0.279 C 
BRANCH  21  22
HETATM   22  C13 UNL     1      24.383   6.051  15.110  1.00  0.00     0.043 C 
HETATM   23  C14 UNL     1      25.112   7.360  14.982  1.00  0.00     0.009 C 
HETATM   24  C15 UNL     1      25.426   8.046  16.270  1.00  0.00     0.001 C 
HETATM   25  C16 UNL     1      24.079   8.136  17.003  1.00  0.00     0.002 C 
HETATM   26  C17 UNL     1      23.829   6.728  17.492  1.00  0.00     0.032 C 
HETATM   27  C18 UNL     1      23.834   5.699  16.432  1.00  0.00     0.124 C 
BRANCH  27  28
HETATM   28  O2  UNL     1      24.439   4.546  16.995  1.00  0.00    -0.395 OA
ATOM     29  H2  UNL     1      24.931   4.733  17.787  1.00  0.00     0.210 HD
ENDBRANCH  27  28
ENDBRANCH  21  22
ENDBRANCH   8  21
TORSDOF 8
ENDMDL
MODEL 3
REMARK VINA RESULT: -7.645562036      3.716      9.131
REMARK  8 active torsions:
REMARK  status: ('A' for Active; 'I' for Inactive)
REMARK    1  A    between atoms: C2_2  and  C4_4 
REMARK    2  A    between atoms: C4_4  and  C5_5 
REMARK    3  A    between atoms: C5_5  and  N1_6 
REMARK    4  A    between atoms: N1_6  and  C6_8 
REMARK    5  A    between atoms: C6_8  and  N2_10 
REMARK    6  A    between atoms: N3_17  and  C12_18 
REMARK    7  A    between atoms: C12_18  and  C13_19 
REMARK    8  A    between atoms: C18_24  and  O2_25 
ROOT
HETATM    1  N2  UNL     1      24.642   6.987  18.466  1.00  0.00    -0.353 N 
HETATM    2  C7  UNL     1      24.166   8.343  18.349  1.00  0.00     0.151 C 
HETATM    3  C8  UNL     1      23.180   8.439  17.222  1.00  0.00     0.188 C 
HETATM    4  O1  UNL     1      23.764   7.973  16.064  1.00  0.00    -0.377 OA
HETATM    5  C9  UNL     1      24.013   6.611  16.097  1.00  0.00     0.080 C 
HETATM    6  C10 UNL     1      22.695   5.839  16.115  1.00  0.00     0.070 C 
HETATM    7  C11 UNL     1      21.930   6.419  14.972  1.00  0.00     0.275 C 
HETATM    8  N3  UNL     1      22.480   6.070  13.681  1.00  0.00     0.089 N 
HETATM    9  C19 UNL     1      23.892   6.006  13.630  1.00  0.00     0.275 C 
HETATM   10  C20 UNL     1      24.695   6.210  14.834  1.00  0.00     0.070 C 
HETATM   11  C21 UNL     1      24.814   6.189  17.290  1.00  0.00     0.163 C 
ENDROOT
BRANCH   1  12
HETATM   12  C6  UNL     1      24.917   6.482  19.778  1.00  0.00     0.169 C 
HETATM   13  S1  UNL     1      24.112   5.170  20.286  1.00  0.00    -0.041 SA
BRANCH  12  14
HETATM   14  N1  UNL     1      25.863   7.141  20.587  1.00  0.00    -0.367 N 
ATOM     15  H1  UNL     1      25.523   7.900  21.177  1.00  0.00     0.161 HD
BRANCH  14  16
HETATM   16  C5  UNL     1      27.275   6.835  20.653  1.00  0.00     0.122 C 
BRANCH  16  17
HETATM   17  C4  UNL     1      27.992   8.011  21.268  1.00  0.00     0.023 C 
BRANCH  17  18
HETATM   18  C2  UNL     1      29.154   7.412  22.064  1.00  0.00    -0.021 C 
HETATM   19  C1  UNL     1      30.133   8.516  22.341  1.00  0.00     0.009 C 
HETATM   20  C3  UNL     1      28.677   6.701  23.296  1.00  0.00     0.009 C 
ENDBRANCH  17  18
ENDBRANCH  16  17
ENDBRANCH  14  16
ENDBRANCH  12  14
ENDBRANCH   1  12
BRANCH   8  21
HETATM   21  C12 UNL     1      21.866   6.959  12.751  1.00  0.00     0.279 C 
BRANCH  21  22
HETATM   22  C13 UNL     1      21.224   6.397  11.539  1.00  0.00     0.043 C 
HETATM   23  C14 UNL     1      22.239   6.395  10.431  1.00  0.00     0.009 C 
HETATM   24  C15 UNL     1      22.218   5.193   9.545  1.00  0.00     0.001 C 
HETATM   25  C16 UNL     1      22.320   3.999  10.506  1.00  0.00     0.002 C 
HETATM   26  C17 UNL     1      20.948   3.908  11.131  1.00  0.00     0.032 C 
HETATM   27  C18 UNL     1      20.494   5.144  11.803  1.00  0.00     0.124 C 
BRANCH  27  28
HETATM   28  O2  UNL     1      19.102   5.248  11.554  1.00  0.00    -0.395 OA
ATOM     29  H2  UNL     1      18.714   4.431  11.263  1.00  0.00     0.210 HD
ENDBRANCH  27  28
ENDBRANCH  21  22
ENDBRANCH   8  21
TORSDOF 8
ENDMDL
MODEL 4
REMARK VINA RESULT: -7.632601625      1.760      2.292
REMARK  8 active torsions:
REMARK  status: ('A' for Active; 'I' for Inactive)
REMARK    1  A    between atoms: C2_2  and  C4_4 
REMARK    2  A    between atoms: C4_4  and  C5_5 
REMARK    3  A    between atoms: C5_5  and  N1_6 
REMARK    4  A    between atoms: N1_6  and  C6_8 
REMARK    5  A    between atoms: C6_8  and  N2_10 
REMARK    6  A    between atoms: N3_17  and  C12_18 
REMARK    7  A    between atoms: C12_18  and  C13_19 
REMARK    8  A    between atoms: C18_24  and  O2_25 
ROOT
HETATM    1  N2  UNL     1      21.787   4.948  10.114  1.00  0.00    -0.353 N 
HETATM    2  C7  UNL     1      20.629   4.865  10.968  1.00  0.00     0.151 C 
HETATM    3  C8  UNL     1      20.844   5.701  12.196  1.00  0.00     0.188 C 
HETATM    4  O1  UNL     1      22.004   5.301  12.822  1.00  0.00    -0.377 OA
HETATM    5  C9  UNL     1      23.141   5.593  12.088  1.00  0.00     0.080 C 
HETATM    6  C10 UNL     1      23.336   7.105  12.005  1.00  0.00     0.070 C 
HETATM    7  C11 UNL     1      23.245   7.552  13.427  1.00  0.00     0.275 C 
HETATM    8  N3  UNL     1      24.373   7.134  14.231  1.00  0.00     0.089 N 
HETATM    9  C19 UNL     1      24.885   5.853  13.921  1.00  0.00     0.275 C 
HETATM   10  C20 UNL     1      24.335   5.075  12.812  1.00  0.00     0.070 C 
HETATM   11  C21 UNL     1      23.093   5.055  10.692  1.00  0.00     0.163 C 
ENDROOT
BRANCH   1  12
HETATM   12  C6  UNL     1      21.578   4.931   8.696  1.00  0.00     0.169 C 
HETATM   13  S1  UNL     1      20.230   4.238   8.123  1.00  0.00    -0.041 SA
BRANCH  12  14
HETATM   14  N1  UNL     1      22.546   5.503   7.849  1.00  0.00    -0.367 N 
ATOM     15  H1  UNL     1      23.282   4.889   7.501  1.00  0.00     0.161 HD
BRANCH  14  16
HETATM   16  C5  UNL     1      22.587   6.886   7.428  1.00  0.00     0.122 C 
BRANCH  16  17
HETATM   17  C4  UNL     1      23.581   7.620   8.293  1.00  0.00     0.023 C 
BRANCH  17  18
HETATM   18  C2  UNL     1      24.507   8.354   7.319  1.00  0.00    -0.021 C 
HETATM   19  C1  UNL     1      25.920   8.117   7.768  1.00  0.00     0.009 C 
HETATM   20  C3  UNL     1      24.248   7.955   5.896  1.00  0.00     0.009 C 
ENDBRANCH  17  18
ENDBRANCH  16  17
ENDBRANCH  14  16
ENDBRANCH  12  14
ENDBRANCH   1  12
BRANCH   8  21
HETATM   21  C12 UNL     1      23.970   7.331  15.584  1.00  0.00     0.279 C 
BRANCH  21  22
HETATM   22  C13 UNL     1      24.748   6.679  16.665  1.00  0.00     0.043 C 
HETATM   23  C14 UNL     1      25.301   7.756  17.557  1.00  0.00     0.009 C 
HETATM   24  C15 UNL     1      25.280   7.451  19.017  1.00  0.00     0.001 C 
HETATM   25  C16 UNL     1      23.823   7.065  19.314  1.00  0.00     0.002 C 
HETATM   26  C17 UNL     1      23.683   5.675  18.739  1.00  0.00     0.032 C 
HETATM   27  C18 UNL     1      24.022   5.566  17.304  1.00  0.00     0.124 C 
BRANCH  27  28
HETATM   28  O2  UNL     1      24.667   4.314  17.138  1.00  0.00    -0.395 OA
ATOM     29  H2  UNL     1      24.411   3.674  17.792  1.00  0.00     0.210 HD
ENDBRANCH  27  28
ENDBRANCH  21  22
ENDBRANCH   8  21
TORSDOF 8
ENDMDL
MODEL 5
REMARK VINA RESULT: -7.553899345      2.185      3.644
REMARK  8 active torsions:
REMARK  status: ('A' for Active; 'I' for Inactive)
REMARK    1  A    between atoms: C2_2  and  C4_4 
REMARK    2  A    between atoms: C4_4  and  C5_5 
REMARK    3  A    between atoms: C5_5  and  N1_6 
REMARK    4  A    between atoms: N1_6  and  C6_8 
REMARK    5  A    between atoms: C6_8  and  N2_10 
REMARK    6  A    between atoms: N3_17  and  C12_18 
REMARK    7  A    between atoms: C12_18  and  C13_19 
REMARK    8  A    between atoms: C18_24  and  O2_25 
ROOT
HETATM    1  N2  UNL     1      21.528   6.192   7.984  1.00  0.00    -0.353 N 
HETATM    2  C7  UNL     1      20.667   7.205   8.542  1.00  0.00     0.151 C 
HETATM    3  C8  UNL     1      21.200   7.648   9.872  1.00  0.00     0.188 C 
HETATM    4  O1  UNL     1      21.344   6.552  10.694  1.00  0.00    -0.377 OA
HETATM    5  C9  UNL     1      22.340   5.688  10.271  1.00  0.00     0.080 C 
HETATM    6  C10 UNL     1      23.705   6.359  10.406  1.00  0.00     0.070 C 
HETATM    7  C11 UNL     1      23.716   6.861  11.812  1.00  0.00     0.275 C 
HETATM    8  N3  UNL     1      23.789   5.803  12.795  1.00  0.00     0.089 N 
HETATM    9  C19 UNL     1      23.070   4.631  12.466  1.00  0.00     0.275 C 
HETATM   10  C20 UNL     1      22.382   4.510  11.182  1.00  0.00     0.070 C 
HETATM   11  C21 UNL     1      22.175   5.253   8.849  1.00  0.00     0.163 C 
ENDROOT
BRANCH   1  12
HETATM   12  C6  UNL     1      21.712   6.177   6.563  1.00  0.00     0.169 C 
HETATM   13  S1  UNL     1      20.404   6.038   5.616  1.00  0.00    -0.041 SA
BRANCH  12  14
HETATM   14  N1  UNL     1      23.014   6.271   6.035  1.00  0.00    -0.367 N 
ATOM     15  H1  UNL     1      23.471   5.401   5.765  1.00  0.00     0.161 HD
BRANCH  14  16
HETATM   16  C5  UNL     1      23.758   7.496   5.841  1.00  0.00     0.122 C 
BRANCH  16  17
HETATM   17  C4  UNL     1      24.188   8.014   7.191  1.00  0.00     0.023 C 
BRANCH  17  18
HETATM   18  C2  UNL     1      25.678   8.339   7.050  1.00  0.00    -0.021 C 
HETATM   19  C1  UNL     1      26.341   8.009   8.355  1.00  0.00     0.009 C 
HETATM   20  C3  UNL     1      26.289   7.647   5.866  1.00  0.00     0.009 C 
ENDBRANCH  17  18
ENDBRANCH  16  17
ENDBRANCH  14  16
ENDBRANCH  12  14
ENDBRANCH   1  12
BRANCH   8  21
HETATM   21  C12 UNL     1      23.445   6.413  14.037  1.00  0.00     0.279 C 
BRANCH  21  22
HETATM   22  C13 UNL     1      24.324   7.477  14.581  1.00  0.00     0.043 C 
HETATM   23  C14 UNL     1      23.455   8.619  15.026  1.00  0.00     0.009 C 
HETATM   24  C15 UNL     1      23.870   9.282  16.297  1.00  0.00     0.001 C 
HETATM   25  C16 UNL     1      23.988   8.137  17.315  1.00  0.00     0.002 C 
HETATM   26  C17 UNL     1      25.271   7.435  16.935  1.00  0.00     0.032 C 
HETATM   27  C18 UNL     1      25.323   6.963  15.536  1.00  0.00     0.124 C 
BRANCH  27  28
HETATM   28  O2  UNL     1      26.659   7.153  15.098  1.00  0.00    -0.395 OA
ATOM     29  H2  UNL     1      27.175   6.355  15.122  1.00  0.00     0.210 HD
ENDBRANCH  27  28
ENDBRANCH  21  22
ENDBRANCH   8  21
TORSDOF 8
ENDMDL
