MODEL 1
REMARK VINA RESULT: -7.449453205      0.000      0.000
REMARK  5 active torsions:
REMARK  status: ('A' for Active; 'I' for Inactive)
REMARK    1  A    between atoms: C2_2  and  N1_4 
REMARK       I    between atoms: N1_4  and  C4_6 
REMARK    2  A    between atoms: C4_6  and  C5_8 
REMARK    3  A    between atoms: C8_11  and  C9_12 
REMARK    4  A    between atoms: C9_12  and  N2_13 
REMARK    5  A    between atoms: N4_24  and  C17_25 
ROOT
HETATM    1  C5  UNL     1      22.027   5.254  10.159  1.00  0.00     0.176 C 
HETATM    2  C6  UNL     1      23.172   4.722  11.011  1.00  0.00     0.035 C 
HETATM    3  C7  UNL     1      23.304   5.532  12.286  1.00  0.00     0.014 C 
HETATM    4  C8  UNL     1      22.025   5.445  13.080  1.00  0.00     0.052 C 
HETATM    5  C16 UNL     1      20.789   5.678  12.215  1.00  0.00     0.066 C 
HETATM    6  N4  UNL     1      20.844   5.197  10.916  1.00  0.00    -0.375 N 
ENDROOT
BRANCH   4   7
HETATM    7  C9  UNL     1      21.972   6.496  14.147  1.00  0.00     0.282 C 
BRANCH   7   8
HETATM    8  N2  UNL     1      23.000   6.291  15.108  1.00  0.00     0.097 N 
HETATM    9  C10 UNL     1      23.796   7.517  15.124  1.00  0.00     0.305 C 
HETATM   10  C11 UNL     1      24.920   7.388  16.092  1.00  0.00     0.210 C 
HETATM   11  C12 UNL     1      26.213   7.693  15.321  1.00  0.00     0.042 C 
HETATM   12  N3  UNL     1      25.058   6.079  16.661  1.00  0.00    -0.068 N 
HETATM   13  C13 UNL     1      23.850   5.551  17.211  1.00  0.00     0.268 C 
ATOM     14  H32 UNL     1      25.454   5.433  15.979  1.00  0.00     0.277 HD
ATOM     15  H31 UNL     1      25.803   6.070  17.360  1.00  0.00     0.277 HD
HETATM   16  C14 UNL     1      22.605   5.914  16.418  1.00  0.00     0.244 C 
HETATM   17  C15 UNL     1      21.860   7.018  17.150  1.00  0.00     0.045 C 
ENDBRANCH   7   8
ENDBRANCH   4   7
BRANCH   6  18
HETATM   18  C17 UNL     1      19.633   4.970  10.276  1.00  0.00     0.084 C 
HETATM   19  C18 UNL     1      19.293   3.550   9.948  1.00  0.00     0.025 C 
HETATM   20  C19 UNL     1      18.784   3.412   8.556  1.00  0.00     0.002 C 
HETATM   21  C20 UNL     1      17.576   4.208   8.238  1.00  0.00     0.000 C 
HETATM   22  C21 UNL     1      16.781   4.608   9.460  1.00  0.00     0.000 C 
HETATM   23  C22 UNL     1      17.290   5.843  10.110  1.00  0.00     0.002 C 
HETATM   24  C23 UNL     1      18.494   5.621  11.007  1.00  0.00     0.025 C 
ENDBRANCH   6  18
BRANCH   1  25
HETATM   25  C4  UNL     1      22.449   6.572   9.676  1.00  0.00     0.240 C 
HETATM   26  N1  UNL     1      23.605   6.677   8.865  1.00  0.00    -0.355 N 
ATOM     27  H1  UNL     1      24.117   5.825   8.637  1.00  0.00     0.162 HD
HETATM   28  O1  UNL     1      21.815   7.612   9.960  1.00  0.00    -0.271 OA
BRANCH  26  29
HETATM   29  C2  UNL     1      24.097   7.939   8.344  1.00  0.00     0.076 C 
HETATM   30  C1  UNL     1      25.581   7.991   8.491  1.00  0.00     0.032 C 
HETATM   31  C3  UNL     1      23.654   8.161   6.913  1.00  0.00     0.032 C 
ENDBRANCH  26  29
ENDBRANCH   1  25
TORSDOF 5
ENDMDL
MODEL 2
REMARK VINA RESULT: -7.381951800      2.956      5.125
REMARK  5 active torsions:
REMARK  status: ('A' for Active; 'I' for Inactive)
REMARK    1  A    between atoms: C2_2  and  N1_4 
REMARK       I    between atoms: N1_4  and  C4_6 
REMARK    2  A    between atoms: C4_6  and  C5_8 
REMARK    3  A    between atoms: C8_11  and  C9_12 
REMARK    4  A    between atoms: C9_12  and  N2_13 
REMARK    5  A    between atoms: N4_24  and  C17_25 
ROOT
HETATM    1  C5  UNL     1      23.666   8.322  13.541  1.00  0.00     0.176 C 
HETATM    2  C6  UNL     1      24.856   8.728  14.402  1.00  0.00     0.035 C 
HETATM    3  C7  UNL     1      24.493   8.659  15.872  1.00  0.00     0.014 C 
HETATM    4  C8  UNL     1      24.090   7.251  16.232  1.00  0.00     0.052 C 
HETATM    5  C16 UNL     1      23.105   6.656  15.230  1.00  0.00     0.066 C 
HETATM    6  N4  UNL     1      23.278   7.021  13.903  1.00  0.00    -0.375 N 
ENDROOT
BRANCH   4   7
HETATM    7  C9  UNL     1      23.391   7.205  17.558  1.00  0.00     0.282 C 
BRANCH   7   8
HETATM    8  N2  UNL     1      24.161   6.484  18.510  1.00  0.00     0.097 N 
HETATM    9  C10 UNL     1      24.767   7.482  19.388  1.00  0.00     0.305 C 
HETATM   10  C11 UNL     1      25.619   6.817  20.413  1.00  0.00     0.210 C 
HETATM   11  C12 UNL     1      27.015   7.449  20.315  1.00  0.00     0.042 C 
HETATM   12  N3  UNL     1      25.772   5.404  20.223  1.00  0.00    -0.068 N 
HETATM   13  C13 UNL     1      24.540   4.701  20.050  1.00  0.00     0.268 C 
ATOM     14  H32 UNL     1      26.405   5.215  19.446  1.00  0.00     0.277 HD
ATOM     15  H31 UNL     1      26.312   4.997  20.988  1.00  0.00     0.277 HD
HETATM   16  C14 UNL     1      23.500   5.472  19.255  1.00  0.00     0.244 C 
HETATM   17  C15 UNL     1      22.462   6.031  20.214  1.00  0.00     0.045 C 
ENDBRANCH   7   8
ENDBRANCH   4   7
BRANCH   6  18
HETATM   18  C17 UNL     1      22.739   6.175  12.942  1.00  0.00     0.084 C 
HETATM   19  C18 UNL     1      23.661   5.173  12.324  1.00  0.00     0.025 C 
HETATM   20  C19 UNL     1      23.516   5.129  10.843  1.00  0.00     0.002 C 
HETATM   21  C20 UNL     1      22.159   4.802  10.346  1.00  0.00     0.000 C 
HETATM   22  C21 UNL     1      21.303   4.082  11.364  1.00  0.00     0.000 C 
HETATM   23  C22 UNL     1      20.617   5.003  12.306  1.00  0.00     0.002 C 
HETATM   24  C23 UNL     1      21.495   5.498  13.441  1.00  0.00     0.025 C 
ENDBRANCH   6  18
BRANCH   1  25
HETATM   25  C4  UNL     1      22.667   9.384  13.690  1.00  0.00     0.240 C 
HETATM   26  N1  UNL     1      21.413   9.081  14.275  1.00  0.00    -0.355 N 
ATOM     27  H1  UNL     1      21.239   8.124  14.580  1.00  0.00     0.162 HD
HETATM   28  O1  UNL     1      22.889  10.556  13.315  1.00  0.00    -0.271 OA
BRANCH  26  29
HETATM   29  C2  UNL     1      20.365  10.067  14.461  1.00  0.00     0.076 C 
HETATM   30  C1  UNL     1      19.043   9.451  14.147  1.00  0.00     0.032 C 
HETATM   31  C3  UNL     1      20.403  10.665  15.851  1.00  0.00     0.032 C 
ENDBRANCH  26  29
ENDBRANCH   1  25
TORSDOF 5
ENDMDL
MODEL 3
REMARK VINA RESULT: -7.332321960      0.334      1.203
REMARK  5 active torsions:
REMARK  status: ('A' for Active; 'I' for Inactive)
REMARK    1  A    between atoms: C2_2  and  N1_4 
REMARK       I    between atoms: N1_4  and  C4_6 
REMARK    2  A    between atoms: C4_6  and  C5_8 
REMARK    3  A    between atoms: C8_11  and  C9_12 
REMARK    4  A    between atoms: C9_12  and  N2_13 
REMARK    5  A    between atoms: N4_24  and  C17_25 
ROOT
HETATM    1  C5  UNL     1      22.043   5.208  10.216  1.00  0.00     0.176 C 
HETATM    2  C6  UNL     1      23.183   4.679  11.076  1.00  0.00     0.035 C 
HETATM    3  C7  UNL     1      23.295   5.481  12.358  1.00  0.00     0.014 C 
HETATM    4  C8  UNL     1      22.008   5.376  13.138  1.00  0.00     0.052 C 
HETATM    5  C16 UNL     1      20.780   5.606  12.262  1.00  0.00     0.066 C 
HETATM    6  N4  UNL     1      20.853   5.135  10.959  1.00  0.00    -0.375 N 
ENDROOT
BRANCH   4   7
HETATM    7  C9  UNL     1      21.935   6.419  14.213  1.00  0.00     0.282 C 
BRANCH   7   8
HETATM    8  N2  UNL     1      22.989   6.249  15.152  1.00  0.00     0.097 N 
HETATM    9  C10 UNL     1      23.751   7.496  15.143  1.00  0.00     0.305 C 
HETATM   10  C11 UNL     1      24.899   7.405  16.087  1.00  0.00     0.210 C 
HETATM   11  C12 UNL     1      26.166   7.739  15.286  1.00  0.00     0.042 C 
HETATM   12  N3  UNL     1      25.085   6.105  16.662  1.00  0.00    -0.068 N 
HETATM   13  C13 UNL     1      23.903   5.548  17.242  1.00  0.00     0.268 C 
ATOM     14  H32 UNL     1      25.483   5.464  15.976  1.00  0.00     0.277 HD
ATOM     15  H31 UNL     1      25.843   6.121  17.345  1.00  0.00     0.277 HD
HETATM   16  C14 UNL     1      22.632   5.871  16.474  1.00  0.00     0.244 C 
HETATM   17  C15 UNL     1      21.873   6.960  17.213  1.00  0.00     0.045 C 
ENDBRANCH   7   8
ENDBRANCH   4   7
BRANCH   6  18
HETATM   18  C17 UNL     1      19.651   4.902  10.306  1.00  0.00     0.084 C 
HETATM   19  C18 UNL     1      18.748   6.078  10.102  1.00  0.00     0.025 C 
HETATM   20  C19 UNL     1      17.338   5.759  10.458  1.00  0.00     0.002 C 
HETATM   21  C20 UNL     1      16.729   4.638   9.704  1.00  0.00     0.000 C 
HETATM   22  C21 UNL     1      17.423   4.349   8.392  1.00  0.00     0.000 C 
HETATM   23  C22 UNL     1      18.606   3.464   8.539  1.00  0.00     0.002 C 
HETATM   24  C23 UNL     1      19.861   4.178   9.007  1.00  0.00     0.025 C 
ENDBRANCH   6  18
BRANCH   1  25
HETATM   25  C4  UNL     1      22.459   6.533   9.748  1.00  0.00     0.240 C 
HETATM   26  N1  UNL     1      23.563   6.644   8.868  1.00  0.00    -0.355 N 
ATOM     27  H1  UNL     1      24.043   5.791   8.582  1.00  0.00     0.162 HD
HETATM   28  O1  UNL     1      21.864   7.574  10.102  1.00  0.00    -0.271 OA
BRANCH  26  29
HETATM   29  C2  UNL     1      24.045   7.913   8.356  1.00  0.00     0.076 C 
HETATM   30  C1  UNL     1      25.527   7.983   8.519  1.00  0.00     0.032 C 
HETATM   31  C3  UNL     1      23.616   8.133   6.921  1.00  0.00     0.032 C 
ENDBRANCH  26  29
ENDBRANCH   1  25
TORSDOF 5
ENDMDL
MODEL 4
REMARK VINA RESULT: -7.206167255      1.770      6.868
REMARK  5 active torsions:
REMARK  status: ('A' for Active; 'I' for Inactive)
REMARK    1  A    between atoms: C2_2  and  N1_4 
REMARK       I    between atoms: N1_4  and  C4_6 
REMARK    2  A    between atoms: C4_6  and  C5_8 
REMARK    3  A    between atoms: C8_11  and  C9_12 
REMARK    4  A    between atoms: C9_12  and  N2_13 
REMARK    5  A    between atoms: N4_24  and  C17_25 
ROOT
HETATM    1  C5  UNL     1      22.765   7.992  11.641  1.00  0.00     0.176 C 
HETATM    2  C6  UNL     1      21.454   8.456  11.019  1.00  0.00     0.035 C 
HETATM    3  C7  UNL     1      20.632   7.265  10.568  1.00  0.00     0.014 C 
HETATM    4  C8  UNL     1      20.324   6.381  11.750  1.00  0.00     0.052 C 
HETATM    5  C16 UNL     1      21.558   6.108  12.606  1.00  0.00     0.066 C 
HETATM    6  N4  UNL     1      22.470   7.145  12.723  1.00  0.00    -0.375 N 
ENDROOT
BRANCH   4   7
HETATM    7  C9  UNL     1      19.834   5.033  11.311  1.00  0.00     0.282 C 
BRANCH   7   8
HETATM    8  N2  UNL     1      19.628   5.006   9.905  1.00  0.00     0.097 N 
HETATM    9  C10 UNL     1      20.771   4.295   9.337  1.00  0.00     0.305 C 
HETATM   10  C11 UNL     1      20.655   4.236   7.853  1.00  0.00     0.210 C 
HETATM   11  C12 UNL     1      21.951   4.825   7.277  1.00  0.00     0.042 C 
HETATM   12  N3  UNL     1      19.563   4.994   7.318  1.00  0.00    -0.068 N 
HETATM   13  C13 UNL     1      18.304   4.725   7.939  1.00  0.00     0.268 C 
ATOM     14  H32 UNL     1      19.771   5.992   7.350  1.00  0.00     0.277 HD
ATOM     15  H31 UNL     1      19.498   4.864   6.308  1.00  0.00     0.277 HD
HETATM   16  C14 UNL     1      18.400   4.469   9.434  1.00  0.00     0.244 C 
HETATM   17  C15 UNL     1      18.273   2.977   9.688  1.00  0.00     0.045 C 
ENDBRANCH   7   8
ENDBRANCH   4   7
BRANCH   6  18
HETATM   18  C17 UNL     1      23.321   7.115  13.820  1.00  0.00     0.084 C 
HETATM   19  C18 UNL     1      23.854   8.427  14.303  1.00  0.00     0.025 C 
HETATM   20  C19 UNL     1      25.317   8.364  14.569  1.00  0.00     0.002 C 
HETATM   21  C20 UNL     1      25.740   7.355  15.567  1.00  0.00     0.000 C 
HETATM   22  C21 UNL     1      24.629   6.930  16.501  1.00  0.00     0.000 C 
HETATM   23  C22 UNL     1      23.773   5.855  15.938  1.00  0.00     0.002 C 
HETATM   24  C23 UNL     1      22.720   6.347  14.961  1.00  0.00     0.025 C 
ENDBRANCH   6  18
BRANCH   1  25
HETATM   25  C4  UNL     1      23.563   7.428  10.549  1.00  0.00     0.240 C 
HETATM   26  N1  UNL     1      23.683   8.145   9.333  1.00  0.00    -0.355 N 
ATOM     27  H1  UNL     1      23.206   9.043   9.251  1.00  0.00     0.162 HD
HETATM   28  O1  UNL     1      24.146   6.327  10.658  1.00  0.00    -0.271 OA
BRANCH  26  29
HETATM   29  C2  UNL     1      24.450   7.664   8.200  1.00  0.00     0.076 C 
HETATM   30  C1  UNL     1      23.773   8.071   6.934  1.00  0.00     0.032 C 
HETATM   31  C3  UNL     1      25.887   8.137   8.259  1.00  0.00     0.032 C 
ENDBRANCH  26  29
ENDBRANCH   1  25
TORSDOF 5
ENDMDL
MODEL 5
REMARK VINA RESULT: -7.068350983      3.336      8.322
REMARK  5 active torsions:
REMARK  status: ('A' for Active; 'I' for Inactive)
REMARK    1  A    between atoms: C2_2  and  N1_4 
REMARK       I    between atoms: N1_4  and  C4_6 
REMARK    2  A    between atoms: C4_6  and  C5_8 
REMARK    3  A    between atoms: C8_11  and  C9_12 
REMARK    4  A    between atoms: C9_12  and  N2_13 
REMARK    5  A    between atoms: N4_24  and  C17_25 
ROOT
HETATM    1  C5  UNL     1      23.792   8.820  17.661  1.00  0.00     0.176 C 
HETATM    2  C6  UNL     1      24.906   8.843  16.623  1.00  0.00     0.035 C 
HETATM    3  C7  UNL     1      24.892   7.569  15.802  1.00  0.00     0.014 C 
HETATM    4  C8  UNL     1      23.568   7.435  15.092  1.00  0.00     0.052 C 
HETATM    5  C16 UNL     1      22.384   7.695  16.020  1.00  0.00     0.066 C 
HETATM    6  N4  UNL     1      22.565   8.665  16.995  1.00  0.00    -0.375 N 
ENDROOT
BRANCH   4   7
HETATM    7  C9  UNL     1      23.369   6.044  14.567  1.00  0.00     0.282 C 
BRANCH   7   8
HETATM    8  N2  UNL     1      22.413   6.035  13.515  1.00  0.00     0.097 N 
HETATM    9  C10 UNL     1      22.886   6.998  12.523  1.00  0.00     0.305 C 
HETATM   10  C11 UNL     1      21.930   7.076  11.384  1.00  0.00     0.210 C 
HETATM   11  C12 UNL     1      21.537   8.552  11.228  1.00  0.00     0.042 C 
HETATM   12  N3  UNL     1      20.722   6.328  11.578  1.00  0.00    -0.068 N 
HETATM   13  C13 UNL     1      20.932   4.971  11.975  1.00  0.00     0.268 C 
ATOM     14  H32 UNL     1      20.110   6.804  12.241  1.00  0.00     0.277 HD
ATOM     15  H31 UNL     1      20.138   6.369  10.742  1.00  0.00     0.277 HD
HETATM   16  C14 UNL     1      22.110   4.783  12.917  1.00  0.00     0.244 C 
HETATM   17  C15 UNL     1      23.278   4.205  12.136  1.00  0.00     0.045 C 
ENDBRANCH   7   8
ENDBRANCH   4   7
BRANCH   6  18
HETATM   18  C17 UNL     1      21.420   9.247  17.523  1.00  0.00     0.084 C 
HETATM   19  C18 UNL     1      21.043  10.599  17.005  1.00  0.00     0.025 C 
HETATM   20  C19 UNL     1      20.683  11.532  18.108  1.00  0.00     0.002 C 
HETATM   21  C20 UNL     1      19.562  11.094  18.971  1.00  0.00     0.000 C 
HETATM   22  C21 UNL     1      18.659  10.073  18.314  1.00  0.00     0.000 C 
HETATM   23  C22 UNL     1      19.160   8.681  18.445  1.00  0.00     0.002 C 
HETATM   24  C23 UNL     1      20.245   8.315  17.449  1.00  0.00     0.025 C 
ENDBRANCH   6  18
BRANCH   1  25
HETATM   25  C4  UNL     1      24.158   7.789  18.637  1.00  0.00     0.240 C 
HETATM   26  N1  UNL     1      25.505   7.681  19.061  1.00  0.00    -0.355 N 
ATOM     27  H1  UNL     1      26.189   8.330  18.673  1.00  0.00     0.162 HD
HETATM   28  O1  UNL     1      23.312   6.998  19.109  1.00  0.00    -0.271 OA
BRANCH  26  29
HETATM   29  C2  UNL     1      25.957   6.692  20.021  1.00  0.00     0.076 C 
HETATM   30  C1  UNL     1      26.192   5.394  19.322  1.00  0.00     0.032 C 
HETATM   31  C3  UNL     1      27.181   7.166  20.775  1.00  0.00     0.032 C 
ENDBRANCH  26  29
ENDBRANCH   1  25
TORSDOF 5
ENDMDL
