MODEL 1
REMARK VINA RESULT: -5.766278309      0.000      0.000
REMARK  5 active torsions:
REMARK  status: ('A' for Active; 'I' for Inactive)
REMARK    1  A    between atoms: C4_4  and  C5_5 
REMARK    2  A    between atoms: C5_5  and  N1_6 
REMARK    3  A    between atoms: N1_6  and  C6_9 
REMARK    4  A    between atoms: C6_9  and  C7_10 
REMARK    5  A    between atoms: C7_10  and  N2_11 
ROOT
HETATM    1  N1  UNL     1      10.570  -8.512  20.273  1.00  0.00    -0.071 N 
ATOM      2  H11 UNL     1       9.885  -7.757  20.309  1.00  0.00     0.277 HD
ATOM      3  H12 UNL     1      11.136  -8.192  19.488  1.00  0.00     0.277 HD
ENDROOT
BRANCH   1   4
HETATM    4  C5  UNL     1       9.934  -9.758  19.963  1.00  0.00     0.264 C 
BRANCH   4   5
HETATM    5  C4  UNL     1       8.459  -9.624  20.307  1.00  0.00     0.147 C 
HETATM    6  C3  UNL     1       8.089 -10.250  21.609  1.00  0.00     0.034 C 
HETATM    7  C2  UNL     1       7.249  -9.346  22.460  1.00  0.00     0.004 C 
HETATM    8  C1  UNL     1       6.248  -8.633  21.607  1.00  0.00     0.026 C 
HETATM    9  C12 UNL     1       6.792  -8.046  20.347  1.00  0.00     0.168 C 
HETATM   10  O1  UNL     1       8.164  -8.250  20.299  1.00  0.00    -0.384 OA
ENDBRANCH   4   5
ENDBRANCH   1   4
BRANCH   1  11
HETATM   11  C6  UNL     1      11.350  -8.546  21.482  1.00  0.00     0.252 C 
BRANCH  11  12
HETATM   12  C7  UNL     1      11.860  -9.957  21.784  1.00  0.00     0.149 C 
BRANCH  12  13
HETATM   13  N2  UNL     1      13.229  -9.970  21.775  1.00  0.00    -0.392 N 
HETATM   14  C8  UNL     1      14.012  -8.888  22.202  1.00  0.00     0.122 C 
HETATM   15  C9  UNL     1      15.207  -9.059  21.249  1.00  0.00     0.025 C 
HETATM   16  C10 UNL     1      15.415 -10.567  21.374  1.00  0.00     0.046 C 
HETATM   17  C11 UNL     1      13.990 -11.098  21.469  1.00  0.00     0.058 C 
ENDBRANCH  12  13
ENDBRANCH  11  12
ENDBRANCH   1  11
TORSDOF 5
ENDMDL
MODEL 2
REMARK VINA RESULT: -5.726777017      1.725      2.881
REMARK  5 active torsions:
REMARK  status: ('A' for Active; 'I' for Inactive)
REMARK    1  A    between atoms: C4_4  and  C5_5 
REMARK    2  A    between atoms: C5_5  and  N1_6 
REMARK    3  A    between atoms: N1_6  and  C6_9 
REMARK    4  A    between atoms: C6_9  and  C7_10 
REMARK    5  A    between atoms: C7_10  and  N2_11 
ROOT
HETATM    1  N1  UNL     1      13.160  -8.503  21.349  1.00  0.00    -0.071 N 
ATOM      2  H11 UNL     1      13.325  -7.573  20.964  1.00  0.00     0.277 HD
ATOM      3  H12 UNL     1      13.161  -9.048  20.487  1.00  0.00     0.277 HD
ENDROOT
BRANCH   1   4
HETATM    4  C5  UNL     1      11.879  -8.567  21.987  1.00  0.00     0.264 C 
BRANCH   4   5
HETATM    5  C4  UNL     1      10.940  -9.330  21.067  1.00  0.00     0.147 C 
HETATM    6  C3  UNL     1      10.821 -10.778  21.400  1.00  0.00     0.034 C 
HETATM    7  C2  UNL     1       9.396 -11.240  21.442  1.00  0.00     0.004 C 
HETATM    8  C1  UNL     1       8.627 -10.616  20.321  1.00  0.00     0.026 C 
HETATM    9  C12 UNL     1       8.847  -9.151  20.139  1.00  0.00     0.168 C 
HETATM   10  O1  UNL     1       9.693  -8.686  21.137  1.00  0.00    -0.384 OA
ENDBRANCH   4   5
ENDBRANCH   1   4
BRANCH   1  11
HETATM   11  C6  UNL     1      14.251  -8.900  22.200  1.00  0.00     0.252 C 
BRANCH  11  12
HETATM   12  C7  UNL     1      15.368  -9.578  21.405  1.00  0.00     0.149 C 
BRANCH  12  13
HETATM   13  N2  UNL     1      15.039 -10.884  21.158  1.00  0.00    -0.392 N 
HETATM   14  C8  UNL     1      15.456 -11.581  20.015  1.00  0.00     0.122 C 
HETATM   15  C9  UNL     1      14.235 -12.499  19.828  1.00  0.00     0.025 C 
HETATM   16  C10 UNL     1      14.040 -12.954  21.273  1.00  0.00     0.046 C 
HETATM   17  C11 UNL     1      14.368 -11.698  22.070  1.00  0.00     0.058 C 
ENDBRANCH  12  13
ENDBRANCH  11  12
ENDBRANCH   1  11
TORSDOF 5
ENDMDL
MODEL 3
REMARK VINA RESULT: -5.701011192      2.371      6.824
REMARK  5 active torsions:
REMARK  status: ('A' for Active; 'I' for Inactive)
REMARK    1  A    between atoms: C4_4  and  C5_5 
REMARK    2  A    between atoms: C5_5  and  N1_6 
REMARK    3  A    between atoms: N1_6  and  C6_9 
REMARK    4  A    between atoms: C6_9  and  C7_10 
REMARK    5  A    between atoms: C7_10  and  N2_11 
ROOT
HETATM    1  N1  UNL     1      13.008  -8.643  21.677  1.00  0.00    -0.071 N 
ATOM      2  H11 UNL     1      13.442  -9.018  20.834  1.00  0.00     0.277 HD
ATOM      3  H12 UNL     1      13.414  -7.707  21.677  1.00  0.00     0.277 HD
ENDROOT
BRANCH   1   4
HETATM    4  C5  UNL     1      13.430  -9.377  22.833  1.00  0.00     0.264 C 
BRANCH   4   5
HETATM    5  C4  UNL     1      14.823  -9.918  22.555  1.00  0.00     0.147 C 
HETATM    6  C3  UNL     1      14.913 -10.730  21.308  1.00  0.00     0.034 C 
HETATM    7  C2  UNL     1      16.081 -10.339  20.454  1.00  0.00     0.004 C 
HETATM    8  C1  UNL     1      17.273 -10.071  21.316  1.00  0.00     0.026 C 
HETATM    9  C12 UNL     1      17.011  -9.222  22.516  1.00  0.00     0.168 C 
HETATM   10  O1  UNL     1      15.686  -8.809  22.506  1.00  0.00    -0.384 OA
ENDBRANCH   4   5
ENDBRANCH   1   4
BRANCH   1  11
HETATM   11  C6  UNL     1      11.579  -8.575  21.525  1.00  0.00     0.252 C 
BRANCH  11  12
HETATM   12  C7  UNL     1      10.974  -9.957  21.266  1.00  0.00     0.149 C 
BRANCH  12  13
HETATM   13  N2  UNL     1       9.612  -9.859  21.164  1.00  0.00    -0.392 N 
HETATM   14  C8  UNL     1       8.923  -9.931  19.946  1.00  0.00     0.122 C 
HETATM   15  C9  UNL     1       7.759  -8.977  20.264  1.00  0.00     0.025 C 
HETATM   16  C10 UNL     1       7.397  -9.481  21.660  1.00  0.00     0.046 C 
HETATM   17  C11 UNL     1       8.756  -9.808  22.264  1.00  0.00     0.058 C 
ENDBRANCH  12  13
ENDBRANCH  11  12
ENDBRANCH   1  11
TORSDOF 5
ENDMDL
MODEL 4
REMARK VINA RESULT: -5.631135773      1.608      1.972
REMARK  5 active torsions:
REMARK  status: ('A' for Active; 'I' for Inactive)
REMARK    1  A    between atoms: C4_4  and  C5_5 
REMARK    2  A    between atoms: C5_5  and  N1_6 
REMARK    3  A    between atoms: N1_6  and  C6_9 
REMARK    4  A    between atoms: C6_9  and  C7_10 
REMARK    5  A    between atoms: C7_10  and  N2_11 
ROOT
HETATM    1  N1  UNL     1      10.401  -8.334  20.243  1.00  0.00    -0.071 N 
ATOM      2  H11 UNL     1       9.739  -7.679  20.660  1.00  0.00     0.277 HD
ATOM      3  H12 UNL     1      10.696  -7.785  19.435  1.00  0.00     0.277 HD
ENDROOT
BRANCH   1   4
HETATM    4  C5  UNL     1       9.735  -9.531  19.826  1.00  0.00     0.264 C 
BRANCH   4   5
HETATM    5  C4  UNL     1       8.256  -9.371  20.136  1.00  0.00     0.147 C 
HETATM    6  C3  UNL     1       7.832 -10.042  21.397  1.00  0.00     0.034 C 
HETATM    7  C2  UNL     1       6.993  -9.152  22.264  1.00  0.00     0.004 C 
HETATM    8  C1  UNL     1       6.036  -8.374  21.417  1.00  0.00     0.026 C 
HETATM    9  C12 UNL     1       6.631  -7.749  20.199  1.00  0.00     0.168 C 
HETATM   10  O1  UNL     1       7.998  -7.990  20.180  1.00  0.00    -0.384 OA
ENDBRANCH   4   5
ENDBRANCH   1   4
BRANCH   1  11
HETATM   11  C6  UNL     1      11.510  -8.567  21.130  1.00  0.00     0.252 C 
BRANCH  11  12
HETATM   12  C7  UNL     1      11.038  -8.892  22.549  1.00  0.00     0.149 C 
BRANCH  12  13
HETATM   13  N2  UNL     1      11.532 -10.109  22.937  1.00  0.00    -0.392 N 
HETATM   14  C8  UNL     1      12.747 -10.265  23.619  1.00  0.00     0.122 C 
HETATM   15  C9  UNL     1      13.176 -11.627  23.047  1.00  0.00     0.025 C 
HETATM   16  C10 UNL     1      11.850 -12.377  23.162  1.00  0.00     0.046 C 
HETATM   17  C11 UNL     1      10.825 -11.305  22.816  1.00  0.00     0.058 C 
ENDBRANCH  12  13
ENDBRANCH  11  12
ENDBRANCH   1  11
TORSDOF 5
ENDMDL
MODEL 5
REMARK VINA RESULT: -5.586032736      2.323      6.940
REMARK  5 active torsions:
REMARK  status: ('A' for Active; 'I' for Inactive)
REMARK    1  A    between atoms: C4_4  and  C5_5 
REMARK    2  A    between atoms: C5_5  and  N1_6 
REMARK    3  A    between atoms: N1_6  and  C6_9 
REMARK    4  A    between atoms: C6_9  and  C7_10 
REMARK    5  A    between atoms: C7_10  and  N2_11 
ROOT
HETATM    1  N1  UNL     1      13.162  -8.531  21.353  1.00  0.00    -0.071 N 
ATOM      2  H11 UNL     1      13.255  -9.104  20.514  1.00  0.00     0.277 HD
ATOM      3  H12 UNL     1      13.324  -7.609  20.948  1.00  0.00     0.277 HD
ENDROOT
BRANCH   1   4
HETATM    4  C5  UNL     1      14.184  -8.855  22.302  1.00  0.00     0.264 C 
BRANCH   4   5
HETATM    5  C4  UNL     1      15.414  -9.297  21.527  1.00  0.00     0.147 C 
HETATM    6  C3  UNL     1      16.681  -9.200  22.306  1.00  0.00     0.034 C 
HETATM    7  C2  UNL     1      17.512 -10.443  22.204  1.00  0.00     0.004 C 
HETATM    8  C1  UNL     1      17.480 -10.961  20.801  1.00  0.00     0.026 C 
HETATM    9  C12 UNL     1      16.126 -11.012  20.174  1.00  0.00     0.168 C 
HETATM   10  O1  UNL     1      15.174 -10.617  21.104  1.00  0.00    -0.384 OA
ENDBRANCH   4   5
ENDBRANCH   1   4
BRANCH   1  11
HETATM   11  C6  UNL     1      11.828  -8.625  21.885  1.00  0.00     0.252 C 
BRANCH  11  12
HETATM   12  C7  UNL     1      11.311 -10.065  21.860  1.00  0.00     0.149 C 
BRANCH  12  13
HETATM   13  N2  UNL     1       9.988 -10.079  21.507  1.00  0.00    -0.392 N 
HETATM   14  C8  UNL     1       9.533 -10.466  20.239  1.00  0.00     0.122 C 
HETATM   15  C9  UNL     1       8.308  -9.542  20.125  1.00  0.00     0.025 C 
HETATM   16  C10 UNL     1       7.711  -9.743  21.516  1.00  0.00     0.046 C 
HETATM   17  C11 UNL     1       8.946  -9.839  22.403  1.00  0.00     0.058 C 
ENDBRANCH  12  13
ENDBRANCH  11  12
ENDBRANCH   1  11
TORSDOF 5
ENDMDL
