MODEL 1
REMARK VINA RESULT: -6.134861844      0.000      0.000
REMARK  4 active torsions:
REMARK  status: ('A' for Active; 'I' for Inactive)
REMARK    1  A    between atoms: N1_1  and  N2_4 
REMARK    2  A    between atoms: N2_4  and  N3_5 
REMARK    3  A    between atoms: N3_5  and  C1_7 
REMARK    4  A    between atoms: C2_10  and  N5_11 
ROOT
HETATM    1  C1  UNL     1      17.520  -1.817   1.002  1.00  0.00     0.738 A 
HETATM    2  N4  UNL     1      16.361  -1.133   1.020  1.00  0.00    -0.018 N 
ATOM      3  H4  UNL     1      15.639  -1.236   1.734  1.00  0.00     0.203 HD
HETATM    4  C2  UNL     1      16.284  -0.305  -0.016  1.00  0.00     0.705 A 
HETATM    5  N6  UNL     1      17.418  -0.457  -0.719  1.00  0.00    -0.117 N 
ATOM      6  H6  UNL     1      17.666   0.040  -1.574  1.00  0.00     0.206 HD
HETATM    7  N7  UNL     1      18.154  -1.366  -0.101  1.00  0.00    -0.115 N 
ATOM      8  H7  UNL     1      19.072  -1.682  -0.415  1.00  0.00     0.206 HD
ENDROOT
BRANCH   1   9
HETATM    9  N3  UNL     1      17.935  -2.784   1.958  1.00  0.00    -0.044 N 
ATOM     10  H3  UNL     1      17.222  -3.263   2.507  1.00  0.00     0.223 HD
BRANCH   9  11
HETATM   11  N2  UNL     1      19.237  -3.100   2.172  1.00  0.00    -0.229 NA
BRANCH  11  12
HETATM   12  N1  UNL     1      20.313  -3.371   2.361  1.00  0.00    -0.260 N 
ATOM     13  H12 UNL     1      19.377  -3.404   2.765  1.00  0.00     0.193 HD
ATOM     14  H11 UNL     1      21.291  -3.612   2.520  1.00  0.00     0.193 HD
ENDBRANCH  11  12
ENDBRANCH   9  11
ENDBRANCH   1   9
BRANCH   4  15
HETATM   15  N5  UNL     1      15.339   0.524  -0.365  1.00  0.00    -0.233 N 
ATOM     16  H52 UNL     1      14.358   0.379  -0.125  1.00  0.00     0.174 HD
ATOM     17  H51 UNL     1      15.388   1.396  -0.894  1.00  0.00     0.174 HD
ENDBRANCH   4  15
TORSDOF 4
ENDMDL
MODEL 2
REMARK VINA RESULT: -5.981596192      9.368     10.477
REMARK  4 active torsions:
REMARK  status: ('A' for Active; 'I' for Inactive)
REMARK    1  A    between atoms: N1_1  and  N2_4 
REMARK    2  A    between atoms: N2_4  and  N3_5 
REMARK    3  A    between atoms: N3_5  and  C1_7 
REMARK    4  A    between atoms: C2_10  and  N5_11 
ROOT
HETATM    1  C1  UNL     1      21.994   2.287   9.347  1.00  0.00     0.738 A 
HETATM    2  N4  UNL     1      20.806   1.768   9.709  1.00  0.00    -0.018 N 
ATOM      3  H4  UNL     1      20.201   2.157  10.432  1.00  0.00     0.203 HD
HETATM    4  C2  UNL     1      20.527   0.683   8.996  1.00  0.00     0.705 A 
HETATM    5  N6  UNL     1      21.556   0.495   8.155  1.00  0.00    -0.117 N 
ATOM      6  H6  UNL     1      21.645  -0.257   7.472  1.00  0.00     0.206 HD
HETATM    7  N7  UNL     1      22.433   1.462   8.372  1.00  0.00    -0.115 N 
ATOM      8  H7  UNL     1      23.316   1.569   7.873  1.00  0.00     0.206 HD
ENDROOT
BRANCH   1   9
HETATM    9  N3  UNL     1      22.604   3.446   9.898  1.00  0.00    -0.044 N 
ATOM     10  H3  UNL     1      22.038   4.062  10.482  1.00  0.00     0.223 HD
BRANCH   9  11
HETATM   11  N2  UNL     1      23.903   3.771   9.683  1.00  0.00    -0.229 NA
BRANCH  11  12
HETATM   12  N1  UNL     1      24.985   4.025   9.505  1.00  0.00    -0.260 N 
ATOM     13  H12 UNL     1      24.293   3.860  10.235  1.00  0.00     0.193 HD
ATOM     14  H11 UNL     1      25.963   4.255   9.328  1.00  0.00     0.193 HD
ENDBRANCH  11  12
ENDBRANCH   9  11
ENDBRANCH   1   9
BRANCH   4  15
HETATM   15  N5  UNL     1      19.489  -0.108   9.035  1.00  0.00    -0.233 N 
ATOM     16  H52 UNL     1      18.794  -0.074   9.780  1.00  0.00     0.174 HD
ATOM     17  H51 UNL     1      19.196  -0.843   8.390  1.00  0.00     0.174 HD
ENDBRANCH   4  15
TORSDOF 4
ENDMDL
MODEL 3
REMARK VINA RESULT: -5.958937178      9.914     11.148
REMARK  4 active torsions:
REMARK  status: ('A' for Active; 'I' for Inactive)
REMARK    1  A    between atoms: N1_1  and  N2_4 
REMARK    2  A    between atoms: N2_4  and  N3_5 
REMARK    3  A    between atoms: N3_5  and  C1_7 
REMARK    4  A    between atoms: C2_10  and  N5_11 
ROOT
HETATM    1  C1  UNL     1      23.139   2.777   8.924  1.00  0.00     0.738 A 
HETATM    2  N4  UNL     1      22.281   2.084   8.152  1.00  0.00    -0.018 N 
ATOM      3  H4  UNL     1      22.200   2.186   7.140  1.00  0.00     0.203 HD
HETATM    4  C2  UNL     1      21.554   1.248   8.886  1.00  0.00     0.705 A 
HETATM    5  N6  UNL     1      21.951   1.404  10.159  1.00  0.00    -0.117 N 
ATOM      6  H6  UNL     1      21.584   0.903  10.968  1.00  0.00     0.206 HD
HETATM    7  N7  UNL     1      22.902   2.323  10.173  1.00  0.00    -0.115 N 
ATOM      8  H7  UNL     1      23.388   2.643  11.011  1.00  0.00     0.206 HD
ENDROOT
BRANCH   1   9
HETATM    9  N3  UNL     1      24.067   3.754   8.473  1.00  0.00    -0.044 N 
ATOM     10  H3  UNL     1      23.879   4.233   7.593  1.00  0.00     0.223 HD
BRANCH   9  11
HETATM   11  N2  UNL     1      25.191   4.077   9.159  1.00  0.00    -0.229 NA
BRANCH  11  12
HETATM   12  N1  UNL     1      26.128   4.357   9.718  1.00  0.00    -0.260 N 
ATOM     13  H12 UNL     1      25.464   3.599   9.561  1.00  0.00     0.193 HD
ATOM     14  H11 UNL     1      26.976   4.624  10.218  1.00  0.00     0.193 HD
ENDBRANCH  11  12
ENDBRANCH   9  11
ENDBRANCH   1   9
BRANCH   4  15
HETATM   15  N5  UNL     1      20.619   0.409   8.532  1.00  0.00    -0.233 N 
ATOM     16  H52 UNL     1      19.962   0.599   7.775  1.00  0.00     0.174 HD
ATOM     17  H51 UNL     1      20.385  -0.512   8.903  1.00  0.00     0.174 HD
ENDBRANCH   4  15
TORSDOF 4
ENDMDL
MODEL 4
REMARK VINA RESULT: -5.952511836      9.877     11.009
REMARK  4 active torsions:
REMARK  status: ('A' for Active; 'I' for Inactive)
REMARK    1  A    between atoms: N1_1  and  N2_4 
REMARK    2  A    between atoms: N2_4  and  N3_5 
REMARK    3  A    between atoms: N3_5  and  C1_7 
REMARK    4  A    between atoms: C2_10  and  N5_11 
ROOT
HETATM    1  C1  UNL     1      21.998   1.969   9.224  1.00  0.00     0.738 A 
HETATM    2  N4  UNL     1      22.945   2.564   9.972  1.00  0.00    -0.018 N 
ATOM      3  H4  UNL     1      23.017   2.484  10.987  1.00  0.00     0.203 HD
HETATM    4  C2  UNL     1      23.774   3.271   9.212  1.00  0.00     0.705 A 
HETATM    5  N6  UNL     1      23.355   3.129   7.945  1.00  0.00    -0.117 N 
ATOM      6  H6  UNL     1      23.782   3.550   7.119  1.00  0.00     0.206 HD
HETATM    7  N7  UNL     1      22.289   2.346   7.960  1.00  0.00    -0.115 N 
ATOM      8  H7  UNL     1      21.761   2.067   7.133  1.00  0.00     0.206 HD
ENDROOT
BRANCH   1   9
HETATM    9  N3  UNL     1      20.952   1.136   9.705  1.00  0.00    -0.044 N 
ATOM     10  H3  UNL     1      21.013   0.132   9.536  1.00  0.00     0.223 HD
BRANCH   9  11
HETATM   11  N2  UNL     1      19.877   1.616  10.379  1.00  0.00    -0.229 NA
BRANCH  11  12
HETATM   12  N1  UNL     1      18.979   2.020  10.924  1.00  0.00    -0.260 N 
ATOM     13  H12 UNL     1      19.953   1.742  11.044  1.00  0.00     0.193 HD
ATOM     14  H11 UNL     1      18.158   2.387  11.405  1.00  0.00     0.193 HD
ENDBRANCH  11  12
ENDBRANCH   9  11
ENDBRANCH   1   9
BRANCH   4  15
HETATM   15  N5  UNL     1      24.812   3.992   9.540  1.00  0.00    -0.233 N 
ATOM     16  H52 UNL     1      25.757   3.783   9.215  1.00  0.00     0.174 HD
ATOM     17  H51 UNL     1      24.878   4.824  10.126  1.00  0.00     0.174 HD
ENDBRANCH   4  15
TORSDOF 4
ENDMDL
MODEL 5
REMARK VINA RESULT: -5.873032624      9.219     10.506
REMARK  4 active torsions:
REMARK  status: ('A' for Active; 'I' for Inactive)
REMARK    1  A    between atoms: N1_1  and  N2_4 
REMARK    2  A    between atoms: N2_4  and  N3_5 
REMARK    3  A    between atoms: N3_5  and  C1_7 
REMARK    4  A    between atoms: C2_10  and  N5_11 
ROOT
HETATM    1  C1  UNL     1      23.580   3.265   7.317  1.00  0.00     0.738 A 
HETATM    2  N4  UNL     1      22.763   2.462   8.023  1.00  0.00    -0.018 N 
ATOM      3  H4  UNL     1      22.046   1.862   7.615  1.00  0.00     0.203 HD
HETATM    4  C2  UNL     1      23.018   2.554   9.324  1.00  0.00     0.705 A 
HETATM    5  N6  UNL     1      24.020   3.436   9.462  1.00  0.00    -0.117 N 
ATOM      6  H6  UNL     1      24.449   3.727  10.340  1.00  0.00     0.206 HD
HETATM    7  N7  UNL     1      24.352   3.858   8.253  1.00  0.00    -0.115 N 
ATOM      8  H7  UNL     1      25.089   4.536   8.056  1.00  0.00     0.206 HD
ENDROOT
BRANCH   1   9
HETATM    9  N3  UNL     1      23.588   3.416   5.904  1.00  0.00    -0.044 N 
ATOM     10  H3  UNL     1      24.338   3.960   5.477  1.00  0.00     0.223 HD
BRANCH   9  11
HETATM   11  N2  UNL     1      22.645   2.869   5.097  1.00  0.00    -0.229 NA
BRANCH  11  12
HETATM   12  N1  UNL     1      21.866   2.426   4.416  1.00  0.00    -0.260 N 
ATOM     13  H12 UNL     1      22.094   2.600   5.394  1.00  0.00     0.193 HD
ATOM     14  H11 UNL     1      21.168   2.029   3.787  1.00  0.00     0.193 HD
ENDBRANCH  11  12
ENDBRANCH   9  11
ENDBRANCH   1   9
BRANCH   4  15
HETATM   15  N5  UNL     1      22.458   1.952  10.338  1.00  0.00    -0.233 N 
ATOM     16  H52 UNL     1      21.811   1.171  10.230  1.00  0.00     0.174 HD
ATOM     17  H51 UNL     1      22.549   2.124  11.340  1.00  0.00     0.174 HD
ENDBRANCH   4  15
TORSDOF 4
ENDMDL
