MODEL 1
REMARK VINA RESULT: -6.281318022      0.000      0.000
REMARK  2 active torsions:
REMARK  status: ('A' for Active; 'I' for Inactive)
REMARK       I    between atoms: N1_1  and  C1_5 
REMARK       I    between atoms: C1_5  and  N2_6 
REMARK       I    between atoms: C1_5  and  N3_10 
REMARK    1  A    between atoms: N3_10  and  N4_12 
REMARK    2  A    between atoms: C2_14  and  C3_15 
ROOT
HETATM    1  N1  UNL     1      12.173   3.283  21.866  1.00  0.00    -0.032 N 
ATOM      2  H11 UNL     1      11.880   2.798  21.017  1.00  0.00     0.279 HD
ATOM      3  H12 UNL     1      12.900   2.788  22.382  1.00  0.00     0.279 HD
ATOM      4  H13 UNL     1      12.703   4.134  21.680  1.00  0.00     0.279 HD
HETATM    5  C1  UNL     1      10.957   3.519  22.658  1.00  0.00     0.494 C 
HETATM    6  N2  UNL     1      11.369   4.202  23.851  1.00  0.00    -0.032 N 
ATOM      7  H21 UNL     1      10.526   4.366  24.402  1.00  0.00     0.279 HD
ATOM      8  H22 UNL     1      11.900   5.052  23.666  1.00  0.00     0.279 HD
ATOM      9  H23 UNL     1      12.096   3.707  24.368  1.00  0.00     0.279 HD
HETATM   10  N3  UNL     1      10.386   2.209  22.932  1.00  0.00    -0.284 N 
ATOM     11  H3  UNL     1      10.259   1.877  23.889  1.00  0.00     0.184 HD
ENDROOT
BRANCH  10  12
HETATM   12  N4  UNL     1      10.022   1.430  21.851  1.00  0.00    -0.311 N 
HETATM   13  C2  UNL     1       9.265   1.826  20.882  1.00  0.00     0.139 C 
ATOM     14  H4  UNL     1      10.377   0.474  21.814  1.00  0.00     0.185 HD
BRANCH  13  15
HETATM   15  C3  UNL     1       8.989   0.868  19.830  1.00  0.00     0.083 A 
HETATM   16  C4  UNL     1       9.921   0.024  19.276  1.00  0.00     0.141 A 
HETATM   17  N5  UNL     1       9.294  -0.721  18.325  1.00  0.00    -0.295 N 
HETATM   18  N6  UNL     1       8.013  -0.346  18.297  1.00  0.00    -0.243 N 
ATOM     19  H5  UNL     1       9.725  -1.437  17.741  1.00  0.00     0.187 HD
HETATM   20  N7  UNL     1       7.834   0.603  19.196  1.00  0.00    -0.284 N 
ATOM     21  H6  UNL     1       7.295  -0.728  17.683  1.00  0.00     0.208 HD
ATOM     22  H7  UNL     1       6.946   1.068  19.383  1.00  0.00     0.188 HD
ENDBRANCH  13  15
ENDBRANCH  10  12
TORSDOF 2
ENDMDL
MODEL 2
REMARK VINA RESULT: -6.223553039      0.567      1.085
REMARK  2 active torsions:
REMARK  status: ('A' for Active; 'I' for Inactive)
REMARK       I    between atoms: N1_1  and  C1_5 
REMARK       I    between atoms: C1_5  and  N2_6 
REMARK       I    between atoms: C1_5  and  N3_10 
REMARK    1  A    between atoms: N3_10  and  N4_12 
REMARK    2  A    between atoms: C2_14  and  C3_15 
ROOT
HETATM    1  N1  UNL     1      12.173   3.291  21.888  1.00  0.00    -0.032 N 
ATOM      2  H11 UNL     1      11.900   2.798  21.037  1.00  0.00     0.279 HD
ATOM      3  H12 UNL     1      12.892   2.803  22.422  1.00  0.00     0.279 HD
ATOM      4  H13 UNL     1      12.702   4.143  21.707  1.00  0.00     0.279 HD
HETATM    5  C1  UNL     1      10.940   3.526  22.654  1.00  0.00     0.494 C 
HETATM    6  N2  UNL     1      11.324   4.219  23.850  1.00  0.00    -0.032 N 
ATOM      7  H21 UNL     1      10.469   4.382  24.382  1.00  0.00     0.279 HD
ATOM      8  H22 UNL     1      11.854   5.071  23.669  1.00  0.00     0.279 HD
ATOM      9  H23 UNL     1      12.043   3.732  24.385  1.00  0.00     0.279 HD
HETATM   10  N3  UNL     1      10.370   2.214  22.926  1.00  0.00    -0.284 N 
ATOM     11  H3  UNL     1      10.226   1.889  23.882  1.00  0.00     0.184 HD
ENDROOT
BRANCH  10  12
HETATM   12  N4  UNL     1      10.032   1.427  21.843  1.00  0.00    -0.311 N 
HETATM   13  C2  UNL     1       9.265   1.800  20.873  1.00  0.00     0.139 C 
ATOM     14  H4  UNL     1      10.417   0.482  21.806  1.00  0.00     0.185 HD
BRANCH  13  15
HETATM   15  C3  UNL     1       9.020   0.835  19.820  1.00  0.00     0.083 A 
HETATM   16  C4  UNL     1       7.817   0.665  19.178  1.00  0.00     0.141 A 
HETATM   17  N5  UNL     1       7.973  -0.325  18.258  1.00  0.00    -0.295 N 
HETATM   18  N6  UNL     1       9.237  -0.749  18.331  1.00  0.00    -0.243 N 
ATOM     19  H5  UNL     1       7.255  -0.678  17.625  1.00  0.00     0.187 HD
HETATM   20  N7  UNL     1       9.860  -0.055  19.264  1.00  0.00    -0.284 N 
ATOM     21  H6  UNL     1       9.650  -1.487  17.761  1.00  0.00     0.208 HD
ATOM     22  H7  UNL     1      10.837  -0.177  19.526  1.00  0.00     0.188 HD
ENDBRANCH  13  15
ENDBRANCH  10  12
TORSDOF 2
ENDMDL
MODEL 3
REMARK VINA RESULT: -5.805982579      2.529      3.193
REMARK  2 active torsions:
REMARK  status: ('A' for Active; 'I' for Inactive)
REMARK       I    between atoms: N1_1  and  C1_5 
REMARK       I    between atoms: C1_5  and  N2_6 
REMARK       I    between atoms: C1_5  and  N3_10 
REMARK    1  A    between atoms: N3_10  and  N4_12 
REMARK    2  A    between atoms: C2_14  and  C3_15 
ROOT
HETATM    1  N1  UNL     1      10.236   2.104  22.899  1.00  0.00    -0.032 N 
ATOM      2  H11 UNL     1       9.634   1.821  22.126  1.00  0.00     0.279 HD
ATOM      3  H12 UNL     1       9.786   2.023  23.811  1.00  0.00     0.279 HD
ATOM      4  H13 UNL     1      10.999   1.450  23.074  1.00  0.00     0.279 HD
HETATM    5  C1  UNL     1      10.697   3.467  22.599  1.00  0.00     0.494 C 
HETATM    6  N2  UNL     1      11.545   3.864  23.687  1.00  0.00    -0.032 N 
ATOM      7  H21 UNL     1      11.866   4.810  23.480  1.00  0.00     0.279 HD
ATOM      8  H22 UNL     1      12.308   3.210  23.862  1.00  0.00     0.279 HD
ATOM      9  H23 UNL     1      11.095   3.783  24.599  1.00  0.00     0.279 HD
HETATM   10  N3  UNL     1       9.502   4.290  22.493  1.00  0.00    -0.284 N 
ATOM     11  H3  UNL     1       9.353   5.088  23.111  1.00  0.00     0.184 HD
ENDROOT
BRANCH  10  12
HETATM   12  N4  UNL     1       8.576   3.951  21.525  1.00  0.00    -0.311 N 
HETATM   13  C2  UNL     1       8.784   4.022  20.252  1.00  0.00     0.139 C 
ATOM     14  H4  UNL     1       7.663   3.622  21.838  1.00  0.00     0.185 HD
BRANCH  13  15
HETATM   15  C3  UNL     1       7.693   3.625  19.385  1.00  0.00     0.083 A 
HETATM   16  C4  UNL     1       6.381   3.995  19.558  1.00  0.00     0.141 A 
HETATM   17  N5  UNL     1       5.655   3.433  18.554  1.00  0.00    -0.295 N 
HETATM   18  N6  UNL     1       6.497   2.738  17.786  1.00  0.00    -0.243 N 
ATOM     19  H5  UNL     1       4.648   3.526  18.414  1.00  0.00     0.187 HD
HETATM   20  N7  UNL     1       7.713   2.854  18.284  1.00  0.00    -0.284 N 
ATOM     21  H6  UNL     1       6.242   2.206  16.954  1.00  0.00     0.208 HD
ATOM     22  H7  UNL     1       8.548   2.422  17.890  1.00  0.00     0.188 HD
ENDBRANCH  13  15
ENDBRANCH  10  12
TORSDOF 2
ENDMDL
MODEL 4
REMARK VINA RESULT: -5.778027645      1.057      1.668
REMARK  2 active torsions:
REMARK  status: ('A' for Active; 'I' for Inactive)
REMARK       I    between atoms: N1_1  and  C1_5 
REMARK       I    between atoms: C1_5  and  N2_6 
REMARK       I    between atoms: C1_5  and  N3_10 
REMARK    1  A    between atoms: N3_10  and  N4_12 
REMARK    2  A    between atoms: C2_14  and  C3_15 
ROOT
HETATM    1  N1  UNL     1       9.415   3.678  22.689  1.00  0.00    -0.032 N 
ATOM      2  H11 UNL     1       8.896   2.909  22.265  1.00  0.00     0.279 HD
ATOM      3  H12 UNL     1       9.433   4.519  22.113  1.00  0.00     0.279 HD
ATOM      4  H13 UNL     1       8.943   4.085  23.496  1.00  0.00     0.279 HD
HETATM    5  C1  UNL     1      10.755   3.161  23.001  1.00  0.00     0.494 C 
HETATM    6  N2  UNL     1      11.486   4.243  23.599  1.00  0.00    -0.032 N 
ATOM      7  H21 UNL     1      12.416   3.884  23.815  1.00  0.00     0.279 HD
ATOM      8  H22 UNL     1      11.014   4.650  24.406  1.00  0.00     0.279 HD
ATOM      9  H23 UNL     1      11.503   5.084  23.022  1.00  0.00     0.279 HD
HETATM   10  N3  UNL     1      11.333   2.729  21.736  1.00  0.00    -0.284 N 
ATOM     11  H3  UNL     1      12.196   3.140  21.381  1.00  0.00     0.184 HD
ENDROOT
BRANCH  10  12
HETATM   12  N4  UNL     1      10.668   1.741  21.035  1.00  0.00    -0.311 N 
HETATM   13  C2  UNL     1      10.539   1.712  19.750  1.00  0.00     0.139 C 
ATOM     14  H4  UNL     1      10.250   0.980  21.571  1.00  0.00     0.185 HD
BRANCH  13  15
HETATM   15  C3  UNL     1       9.806   0.595  19.189  1.00  0.00     0.083 A 
HETATM   16  C4  UNL     1       8.458   0.596  18.923  1.00  0.00     0.141 A 
HETATM   17  N5  UNL     1       8.135  -0.619  18.406  1.00  0.00    -0.295 N 
HETATM   18  N6  UNL     1       9.252  -1.347  18.354  1.00  0.00    -0.243 N 
ATOM     19  H5  UNL     1       7.206  -0.920  18.111  1.00  0.00     0.187 HD
HETATM   20  N7  UNL     1      10.249  -0.620  18.821  1.00  0.00    -0.284 N 
ATOM     21  H6  UNL     1       9.323  -2.305  18.010  1.00  0.00     0.208 HD
ATOM     22  H7  UNL     1      11.216  -0.935  18.894  1.00  0.00     0.188 HD
ENDBRANCH  13  15
ENDBRANCH  10  12
TORSDOF 2
ENDMDL
MODEL 5
REMARK VINA RESULT: -5.611076536      1.254      1.657
REMARK  2 active torsions:
REMARK  status: ('A' for Active; 'I' for Inactive)
REMARK       I    between atoms: N1_1  and  C1_5 
REMARK       I    between atoms: C1_5  and  N2_6 
REMARK       I    between atoms: C1_5  and  N3_10 
REMARK    1  A    between atoms: N3_10  and  N4_12 
REMARK    2  A    between atoms: C2_14  and  C3_15 
ROOT
HETATM    1  N1  UNL     1      11.940   3.399  21.589  1.00  0.00    -0.032 N 
ATOM      2  H11 UNL     1      12.072   2.861  20.733  1.00  0.00     0.279 HD
ATOM      3  H12 UNL     1      12.552   3.103  22.350  1.00  0.00     0.279 HD
ATOM      4  H13 UNL     1      12.279   4.358  21.518  1.00  0.00     0.279 HD
HETATM    5  C1  UNL     1      10.512   3.312  21.927  1.00  0.00     0.494 C 
HETATM    6  N2  UNL     1      10.327   4.069  23.132  1.00  0.00    -0.032 N 
ATOM      7  H21 UNL     1       9.336   4.009  23.367  1.00  0.00     0.279 HD
ATOM      8  H22 UNL     1      10.666   5.029  23.061  1.00  0.00     0.279 HD
ATOM      9  H23 UNL     1      10.939   3.773  23.893  1.00  0.00     0.279 HD
HETATM   10  N3  UNL     1      10.219   1.897  22.106  1.00  0.00    -0.284 N 
ATOM     11  H3  UNL     1       9.867   1.538  22.993  1.00  0.00     0.184 HD
ENDROOT
BRANCH  10  12
HETATM   12  N4  UNL     1      10.434   1.059  21.029  1.00  0.00    -0.311 N 
HETATM   13  C2  UNL     1       9.681   0.999  19.982  1.00  0.00     0.139 C 
ATOM     14  H4  UNL     1      11.247   0.443  21.064  1.00  0.00     0.185 HD
BRANCH  13  15
HETATM   15  C3  UNL     1      10.063   0.056  18.950  1.00  0.00     0.083 A 
HETATM   16  C4  UNL     1      10.930   0.331  17.920  1.00  0.00     0.141 A 
HETATM   17  N5  UNL     1      11.041  -0.791  17.159  1.00  0.00    -0.295 N 
HETATM   18  N6  UNL     1      10.266  -1.729  17.707  1.00  0.00    -0.243 N 
ATOM     19  H5  UNL     1      11.614  -0.896  16.321  1.00  0.00     0.187 HD
HETATM   20  N7  UNL     1       9.683  -1.222  18.776  1.00  0.00    -0.284 N 
ATOM     21  H6  UNL     1      10.144  -2.680  17.357  1.00  0.00     0.208 HD
ATOM     22  H7  UNL     1       9.037  -1.726  19.382  1.00  0.00     0.188 HD
ENDBRANCH  13  15
ENDBRANCH  10  12
TORSDOF 2
ENDMDL
