MODEL 1
REMARK VINA RESULT: -5.976299231      0.000      0.000
REMARK  2 active torsions:
REMARK  status: ('A' for Active; 'I' for Inactive)
REMARK       I    between atoms: N1_1  and  C1_5 
REMARK       I    between atoms: C1_5  and  N2_6 
REMARK       I    between atoms: C1_5  and  N3_10 
REMARK    1  A    between atoms: N3_10  and  N4_12 
REMARK    2  A    between atoms: C2_14  and  C3_15 
ROOT
HETATM    1  N1  UNL     1      11.667   3.674  21.709  1.00  0.00    -0.032 N 
ATOM      2  H11 UNL     1      11.817   2.846  21.131  1.00  0.00     0.279 HD
ATOM      3  H12 UNL     1      12.502   4.256  21.780  1.00  0.00     0.279 HD
ATOM      4  H13 UNL     1      11.057   4.357  21.261  1.00  0.00     0.279 HD
HETATM    5  C1  UNL     1      11.171   3.253  23.011  1.00  0.00     0.494 C 
HETATM    6  N2  UNL     1      10.961   4.415  23.822  1.00  0.00    -0.032 N 
ATOM      7  H21 UNL     1      10.613   4.120  24.734  1.00  0.00     0.279 HD
ATOM      8  H22 UNL     1      10.350   5.098  23.374  1.00  0.00     0.279 HD
ATOM      9  H23 UNL     1      11.796   4.997  23.893  1.00  0.00     0.279 HD
HETATM   10  N3  UNL     1       9.911   2.542  22.746  1.00  0.00    -0.284 N 
ATOM     11  H3  UNL     1       9.030   2.867  23.145  1.00  0.00     0.184 HD
ENDROOT
BRANCH  10  12
HETATM   12  N4  UNL     1       9.957   1.410  21.931  1.00  0.00    -0.311 N 
HETATM   13  C2  UNL     1       9.206   1.218  20.921  1.00  0.00     0.137 C 
ATOM     14  H4  UNL     1      10.640   0.688  22.161  1.00  0.00     0.185 HD
BRANCH  13  15
HETATM   15  C3  UNL     1       8.211   2.190  20.523  1.00  0.00     0.066 A 
HETATM   16  C4  UNL     1       8.353   3.355  19.815  1.00  0.00     0.051 A 
HETATM   17  C5  UNL     1       7.123   3.968  19.671  1.00  0.00     0.109 A 
HETATM   18  N5  UNL     1       6.254   3.153  20.300  1.00  0.00    -0.311 N 
HETATM   19  N6  UNL     1       6.878   2.115  20.800  1.00  0.00    -0.300 N 
ATOM     20  H5  UNL     1       5.250   3.320  20.376  1.00  0.00     0.186 HD
ATOM     21  H6  UNL     1       6.432   1.361  21.322  1.00  0.00     0.187 HD
ENDBRANCH  13  15
ENDBRANCH  10  12
TORSDOF 2
ENDMDL
MODEL 2
REMARK VINA RESULT: -5.571464741      2.442      3.385
REMARK  2 active torsions:
REMARK  status: ('A' for Active; 'I' for Inactive)
REMARK       I    between atoms: N1_1  and  C1_5 
REMARK       I    between atoms: C1_5  and  N2_6 
REMARK       I    between atoms: C1_5  and  N3_10 
REMARK    1  A    between atoms: N3_10  and  N4_12 
REMARK    2  A    between atoms: C2_14  and  C3_15 
ROOT
HETATM    1  N1  UNL     1       9.088   3.986  22.298  1.00  0.00    -0.032 N 
ATOM      2  H11 UNL     1       8.542   4.365  21.524  1.00  0.00     0.279 HD
ATOM      3  H12 UNL     1       9.795   4.640  22.634  1.00  0.00     0.279 HD
ATOM      4  H13 UNL     1       8.546   3.911  23.159  1.00  0.00     0.279 HD
HETATM    5  C1  UNL     1       9.659   2.711  21.887  1.00  0.00     0.494 C 
HETATM    6  N2  UNL     1      10.426   2.178  22.973  1.00  0.00    -0.032 N 
ATOM      7  H21 UNL     1      10.826   1.285  22.685  1.00  0.00     0.279 HD
ATOM      8  H22 UNL     1       9.883   2.103  23.834  1.00  0.00     0.279 HD
ATOM      9  H23 UNL     1      11.133   2.832  23.309  1.00  0.00     0.279 HD
HETATM   10  N3  UNL     1       8.514   1.849  21.558  1.00  0.00    -0.284 N 
ATOM     11  H3  UNL     1       8.354   0.973  22.057  1.00  0.00     0.184 HD
ENDROOT
BRANCH  10  12
HETATM   12  N4  UNL     1       7.651   2.267  20.544  1.00  0.00    -0.311 N 
HETATM   13  C2  UNL     1       7.639   1.786  19.364  1.00  0.00     0.137 C 
ATOM     14  H4  UNL     1       6.986   3.008  20.761  1.00  0.00     0.185 HD
BRANCH  13  15
HETATM   15  C3  UNL     1       8.549   0.732  18.969  1.00  0.00     0.066 A 
HETATM   16  C4  UNL     1       9.902   0.773  18.753  1.00  0.00     0.051 A 
HETATM   17  C5  UNL     1      10.355  -0.480  18.386  1.00  0.00     0.109 A 
HETATM   18  N5  UNL     1       9.257  -1.261  18.391  1.00  0.00    -0.311 N 
HETATM   19  N6  UNL     1       8.200  -0.564  18.728  1.00  0.00    -0.300 N 
ATOM     20  H5  UNL     1       9.250  -2.255  18.163  1.00  0.00     0.186 HD
ATOM     21  H6  UNL     1       7.254  -0.936  18.800  1.00  0.00     0.187 HD
ENDBRANCH  13  15
ENDBRANCH  10  12
TORSDOF 2
ENDMDL
MODEL 3
REMARK VINA RESULT: -5.465899474      2.073      2.879
REMARK  2 active torsions:
REMARK  status: ('A' for Active; 'I' for Inactive)
REMARK       I    between atoms: N1_1  and  C1_5 
REMARK       I    between atoms: C1_5  and  N2_6 
REMARK       I    between atoms: C1_5  and  N3_10 
REMARK    1  A    between atoms: N3_10  and  N4_12 
REMARK    2  A    between atoms: C2_14  and  C3_15 
ROOT
HETATM    1  N1  UNL     1       9.733   4.238  22.934  1.00  0.00    -0.032 N 
ATOM      2  H11 UNL     1       8.775   4.073  22.624  1.00  0.00     0.279 HD
ATOM      3  H12 UNL     1       9.999   5.221  22.874  1.00  0.00     0.279 HD
ATOM      4  H13 UNL     1       9.843   4.124  23.941  1.00  0.00     0.279 HD
HETATM    5  C1  UNL     1      10.626   3.373  22.175  1.00  0.00     0.494 C 
HETATM    6  N2  UNL     1      11.971   3.605  22.609  1.00  0.00    -0.032 N 
ATOM      7  H21 UNL     1      12.596   2.999  22.077  1.00  0.00     0.279 HD
ATOM      8  H22 UNL     1      12.081   3.491  23.617  1.00  0.00     0.279 HD
ATOM      9  H23 UNL     1      12.236   4.588  22.549  1.00  0.00     0.279 HD
HETATM   10  N3  UNL     1      10.191   1.999  22.466  1.00  0.00    -0.284 N 
ATOM     11  H3  UNL     1      10.826   1.327  22.897  1.00  0.00     0.184 HD
ENDROOT
BRANCH  10  12
HETATM   12  N4  UNL     1       8.883   1.643  22.135  1.00  0.00    -0.311 N 
HETATM   13  C2  UNL     1       8.502   1.307  20.967  1.00  0.00     0.137 C 
ATOM     14  H4  UNL     1       8.185   1.652  22.878  1.00  0.00     0.185 HD
BRANCH  13  15
HETATM   15  C3  UNL     1       9.424   1.267  19.853  1.00  0.00     0.066 A 
HETATM   16  C4  UNL     1      10.290   0.277  19.463  1.00  0.00     0.051 A 
HETATM   17  C5  UNL     1      10.980   0.678  18.335  1.00  0.00     0.109 A 
HETATM   18  N5  UNL     1      10.513   1.912  18.062  1.00  0.00    -0.311 N 
HETATM   19  N6  UNL     1       9.607   2.264  18.942  1.00  0.00    -0.300 N 
ATOM     20  H5  UNL     1      10.822   2.491  17.281  1.00  0.00     0.186 HD
ATOM     21  H6  UNL     1       9.111   3.155  18.944  1.00  0.00     0.187 HD
ENDBRANCH  13  15
ENDBRANCH  10  12
TORSDOF 2
ENDMDL
MODEL 4
REMARK VINA RESULT: -5.438074244      1.400      4.291
REMARK  2 active torsions:
REMARK  status: ('A' for Active; 'I' for Inactive)
REMARK       I    between atoms: N1_1  and  C1_5 
REMARK       I    between atoms: C1_5  and  N2_6 
REMARK       I    between atoms: C1_5  and  N3_10 
REMARK    1  A    between atoms: N3_10  and  N4_12 
REMARK    2  A    between atoms: C2_14  and  C3_15 
ROOT
HETATM    1  N1  UNL     1       5.744   3.920  18.552  1.00  0.00    -0.032 N 
ATOM      2  H11 UNL     1       6.214   3.191  18.015  1.00  0.00     0.279 HD
ATOM      3  H12 UNL     1       5.575   4.762  18.002  1.00  0.00     0.279 HD
ATOM      4  H13 UNL     1       4.772   3.689  18.758  1.00  0.00     0.279 HD
HETATM    5  C1  UNL     1       6.520   4.188  19.755  1.00  0.00     0.494 C 
HETATM    6  N2  UNL     1       5.861   5.212  20.509  1.00  0.00    -0.032 N 
ATOM      7  H21 UNL     1       6.404   5.400  21.351  1.00  0.00     0.279 HD
ATOM      8  H22 UNL     1       4.889   4.981  20.715  1.00  0.00     0.279 HD
ATOM      9  H23 UNL     1       5.691   6.055  19.959  1.00  0.00     0.279 HD
HETATM   10  N3  UNL     1       6.564   2.917  20.491  1.00  0.00    -0.284 N 
ATOM     11  H3  UNL     1       6.185   2.842  21.435  1.00  0.00     0.184 HD
ENDROOT
BRANCH  10  12
HETATM   12  N4  UNL     1       7.142   1.815  19.859  1.00  0.00    -0.311 N 
HETATM   13  C2  UNL     1       8.295   1.348  20.135  1.00  0.00     0.137 C 
ATOM     14  H4  UNL     1       6.605   1.352  19.126  1.00  0.00     0.185 HD
BRANCH  13  15
HETATM   15  C3  UNL     1       9.124   1.941  21.162  1.00  0.00     0.066 A 
HETATM   16  C4  UNL     1      10.104   2.895  21.058  1.00  0.00     0.051 A 
HETATM   17  C5  UNL     1      10.633   3.158  22.307  1.00  0.00     0.109 A 
HETATM   18  N5  UNL     1       9.956   2.352  23.148  1.00  0.00    -0.311 N 
HETATM   19  N6  UNL     1       9.076   1.639  22.490  1.00  0.00    -0.300 N 
ATOM     20  H5  UNL     1      10.108   2.303  24.156  1.00  0.00     0.186 HD
ATOM     21  H6  UNL     1       8.446   0.956  22.910  1.00  0.00     0.187 HD
ENDBRANCH  13  15
ENDBRANCH  10  12
TORSDOF 2
ENDMDL
MODEL 5
REMARK VINA RESULT: -5.268108886      1.436      4.373
REMARK  2 active torsions:
REMARK  status: ('A' for Active; 'I' for Inactive)
REMARK       I    between atoms: N1_1  and  C1_5 
REMARK       I    between atoms: C1_5  and  N2_6 
REMARK       I    between atoms: C1_5  and  N3_10 
REMARK    1  A    between atoms: N3_10  and  N4_12 
REMARK    2  A    between atoms: C2_14  and  C3_15 
ROOT
HETATM    1  N1  UNL     1       5.552   3.046  20.522  1.00  0.00    -0.032 N 
ATOM      2  H11 UNL     1       5.850   2.240  19.972  1.00  0.00     0.279 HD
ATOM      3  H12 UNL     1       4.538   3.090  20.630  1.00  0.00     0.279 HD
ATOM      4  H13 UNL     1       5.796   2.959  21.508  1.00  0.00     0.279 HD
HETATM    5  C1  UNL     1       6.099   4.253  19.917  1.00  0.00     0.494 C 
HETATM    6  N2  UNL     1       5.680   5.385  20.688  1.00  0.00    -0.032 N 
ATOM      7  H21 UNL     1       6.063   6.230  20.264  1.00  0.00     0.279 HD
ATOM      8  H22 UNL     1       5.924   5.298  21.674  1.00  0.00     0.279 HD
ATOM      9  H23 UNL     1       4.666   5.429  20.797  1.00  0.00     0.279 HD
HETATM   10  N3  UNL     1       7.560   4.087  19.950  1.00  0.00    -0.284 N 
ATOM     11  H3  UNL     1       8.154   4.748  20.450  1.00  0.00     0.184 HD
ENDROOT
BRANCH  10  12
HETATM   12  N4  UNL     1       8.109   2.996  19.274  1.00  0.00    -0.311 N 
HETATM   13  C2  UNL     1       9.050   2.266  19.727  1.00  0.00     0.137 C 
ATOM     14  H4  UNL     1       7.731   2.767  18.355  1.00  0.00     0.185 HD
BRANCH  13  15
HETATM   15  C3  UNL     1       9.645   2.519  21.022  1.00  0.00     0.066 A 
HETATM   16  C4  UNL     1      10.712   3.311  21.361  1.00  0.00     0.051 A 
HETATM   17  C5  UNL     1      10.926   3.247  22.724  1.00  0.00     0.109 A 
HETATM   18  N5  UNL     1       9.975   2.413  23.187  1.00  0.00    -0.311 N 
HETATM   19  N6  UNL     1       9.224   1.983  22.203  1.00  0.00    -0.300 N 
ATOM     20  H5  UNL     1       9.857   2.152  24.166  1.00  0.00     0.186 HD
ATOM     21  H6  UNL     1       8.439   1.340  22.305  1.00  0.00     0.187 HD
ENDBRANCH  13  15
ENDBRANCH  10  12
TORSDOF 2
ENDMDL
