MODEL 1
REMARK VINA RESULT: -5.358805000      0.000      0.000
REMARK  6 active torsions:
REMARK  status: ('A' for Active; 'I' for Inactive)
REMARK    1  A    between atoms: N1_1  and  C1_4 
REMARK    2  A    between atoms: C2_7  and  C3_8 
REMARK    3  A    between atoms: C3_8  and  C4_9 
REMARK    4  A    between atoms: C4_9  and  N3_10 
REMARK    5  A    between atoms: C4_9  and  C5_14 
REMARK    6  A    between atoms: C5_14  and  N4_15 
ROOT
HETATM    1  C3  UNL     1       8.554   3.320  19.614  1.00  0.00     0.121 C 
ENDROOT
BRANCH   1   2
HETATM    2  C2  UNL     1       9.225   3.135  20.928  1.00  0.00     0.164 A 
HETATM    3  N2  UNL     1      10.181   3.937  21.471  1.00  0.00    -0.171 N 
HETATM    4  C1  UNL     1      10.538   3.446  22.659  1.00  0.00     0.697 A 
ATOM      5  H2  UNL     1      10.564   4.778  21.038  1.00  0.00     0.186 HD
HETATM    6  N5  UNL     1       9.800   2.339  22.854  1.00  0.00    -0.090 N 
HETATM    7  O1  UNL     1       9.039   2.190  21.811  1.00  0.00    -0.209 OA
ATOM      8  H5  UNL     1       9.833   1.729  23.670  1.00  0.00     0.213 HD
BRANCH   4   9
HETATM    9  N1  UNL     1      11.403   3.881  23.513  1.00  0.00    -0.233 N 
ATOM     10  H12 UNL     1      12.342   4.183  23.255  1.00  0.00     0.174 HD
ATOM     11  H11 UNL     1      11.328   3.996  24.523  1.00  0.00     0.174 HD
ENDBRANCH   4   9
ENDBRANCH   1   2
BRANCH   1  12
HETATM   12  C4  UNL     1       7.051   3.399  19.784  1.00  0.00     0.216 C 
BRANCH  12  13
HETATM   13  N3  UNL     1       6.541   2.259  20.522  1.00  0.00    -0.073 N 
ATOM     14  H33 UNL     1       7.153   1.448  20.428  1.00  0.00     0.274 HD
ATOM     15  H32 UNL     1       6.619   2.399  21.529  1.00  0.00     0.274 HD
ATOM     16  H31 UNL     1       5.584   2.037  20.248  1.00  0.00     0.274 HD
ENDBRANCH  12  13
BRANCH  12  17
HETATM   17  C5  UNL     1       6.663   4.629  20.578  1.00  0.00     0.262 C 
BRANCH  17  18
HETATM   18  N4  UNL     1       5.552   5.329  19.960  1.00  0.00    -0.077 N 
ATOM     19  H43 UNL     1       5.876   6.065  19.333  1.00  0.00     0.274 HD
ATOM     20  H42 UNL     1       5.072   4.742  19.278  1.00  0.00     0.274 HD
ATOM     21  H41 UNL     1       4.905   5.693  20.661  1.00  0.00     0.274 HD
ENDBRANCH  17  18
ENDBRANCH  12  17
ENDBRANCH   1  12
TORSDOF 6
ENDMDL
MODEL 2
REMARK VINA RESULT: -5.199221856      2.552      3.368
REMARK  6 active torsions:
REMARK  status: ('A' for Active; 'I' for Inactive)
REMARK    1  A    between atoms: N1_1  and  C1_4 
REMARK    2  A    between atoms: C2_7  and  C3_8 
REMARK    3  A    between atoms: C3_8  and  C4_9 
REMARK    4  A    between atoms: C4_9  and  N3_10 
REMARK    5  A    between atoms: C4_9  and  C5_14 
REMARK    6  A    between atoms: C5_14  and  N4_15 
ROOT
HETATM    1  C3  UNL     1       9.430   2.415  19.403  1.00  0.00     0.121 C 
ENDROOT
BRANCH   1   2
HETATM    2  C2  UNL     1       9.757   2.613  20.840  1.00  0.00     0.164 A 
HETATM    3  N2  UNL     1      10.689   3.462  21.351  1.00  0.00    -0.171 N 
HETATM    4  C1  UNL     1      10.690   3.357  22.682  1.00  0.00     0.697 A 
ATOM      5  H2  UNL     1      11.289   4.080  20.805  1.00  0.00     0.186 HD
HETATM    6  N5  UNL     1       9.758   2.441  22.995  1.00  0.00    -0.090 N 
HETATM    7  O1  UNL     1       9.230   2.026  21.883  1.00  0.00    -0.209 OA
ATOM      8  H5  UNL     1       9.510   2.130  23.934  1.00  0.00     0.213 HD
BRANCH   4   9
HETATM    9  N1  UNL     1      11.406   3.970  23.564  1.00  0.00    -0.233 N 
ATOM     10  H12 UNL     1      11.854   3.498  24.349  1.00  0.00     0.174 HD
ATOM     11  H11 UNL     1      11.644   4.958  23.645  1.00  0.00     0.174 HD
ENDBRANCH   4   9
ENDBRANCH   1   2
BRANCH   1  12
HETATM   12  C4  UNL     1       9.939   1.076  18.915  1.00  0.00     0.216 C 
BRANCH  12  13
HETATM   13  N3  UNL     1      10.637   0.360  19.967  1.00  0.00    -0.073 N 
ATOM     14  H33 UNL     1      11.585   0.714  20.094  1.00  0.00     0.274 HD
ATOM     15  H32 UNL     1      10.260   0.586  20.887  1.00  0.00     0.274 HD
ATOM     16  H31 UNL     1      10.634  -0.645  19.798  1.00  0.00     0.274 HD
ENDBRANCH  12  13
BRANCH  12  17
HETATM   17  C5  UNL     1       8.790   0.186  18.486  1.00  0.00     0.262 C 
BRANCH  17  18
HETATM   18  N4  UNL     1       9.178  -1.212  18.474  1.00  0.00    -0.077 N 
ATOM     19  H43 UNL     1       8.572  -1.764  17.868  1.00  0.00     0.274 HD
ATOM     20  H42 UNL     1      10.061  -1.351  17.982  1.00  0.00     0.274 HD
ATOM     21  H41 UNL     1       9.212  -1.597  19.419  1.00  0.00     0.274 HD
ENDBRANCH  17  18
ENDBRANCH  12  17
ENDBRANCH   1  12
TORSDOF 6
ENDMDL
MODEL 3
REMARK VINA RESULT: -5.147086521      2.863      3.544
REMARK  6 active torsions:
REMARK  status: ('A' for Active; 'I' for Inactive)
REMARK    1  A    between atoms: N1_1  and  C1_4 
REMARK    2  A    between atoms: C2_7  and  C3_8 
REMARK    3  A    between atoms: C3_8  and  C4_9 
REMARK    4  A    between atoms: C4_9  and  N3_10 
REMARK    5  A    between atoms: C4_9  and  C5_14 
REMARK    6  A    between atoms: C5_14  and  N4_15 
ROOT
HETATM    1  C3  UNL     1       8.908   1.352  20.784  1.00  0.00     0.121 C 
ENDROOT
BRANCH   1   2
HETATM    2  C2  UNL     1       9.931   2.245  21.392  1.00  0.00     0.164 A 
HETATM    3  N2  UNL     1       9.976   2.664  22.686  1.00  0.00    -0.171 N 
HETATM    4  C1  UNL     1      11.040   3.453  22.851  1.00  0.00     0.697 A 
ATOM      5  H2  UNL     1       9.305   2.415  23.413  1.00  0.00     0.186 HD
HETATM    6  N5  UNL     1      11.654   3.522  21.658  1.00  0.00    -0.090 N 
HETATM    7  O1  UNL     1      10.970   2.797  20.824  1.00  0.00    -0.209 OA
ATOM      8  H5  UNL     1      12.502   4.048  21.446  1.00  0.00     0.213 HD
BRANCH   4   9
HETATM    9  N1  UNL     1      11.466   4.065  23.905  1.00  0.00    -0.233 N 
ATOM     10  H12 UNL     1      11.230   3.777  24.854  1.00  0.00     0.174 HD
ATOM     11  H11 UNL     1      12.067   4.884  23.990  1.00  0.00     0.174 HD
ENDBRANCH   4   9
ENDBRANCH   1   2
BRANCH   1  12
HETATM   12  C4  UNL     1       9.286   0.992  19.364  1.00  0.00     0.216 C 
BRANCH  12  13
HETATM   13  N3  UNL     1      10.575   0.328  19.311  1.00  0.00    -0.073 N 
ATOM     14  H33 UNL     1      10.706  -0.298  20.106  1.00  0.00     0.274 HD
ATOM     15  H32 UNL     1      10.611  -0.363  18.561  1.00  0.00     0.274 HD
ATOM     16  H31 UNL     1      11.337   1.001  19.236  1.00  0.00     0.274 HD
ENDBRANCH  12  13
BRANCH  12  17
HETATM   17  C5  UNL     1       8.284   0.024  18.768  1.00  0.00     0.262 C 
BRANCH  17  18
HETATM   18  N4  UNL     1       8.870  -1.289  18.570  1.00  0.00    -0.077 N 
ATOM     19  H43 UNL     1       8.787  -1.593  17.600  1.00  0.00     0.274 HD
ATOM     20  H42 UNL     1       9.888  -1.259  18.638  1.00  0.00     0.274 HD
ATOM     21  H41 UNL     1       8.473  -1.975  19.212  1.00  0.00     0.274 HD
ENDBRANCH  17  18
ENDBRANCH  12  17
ENDBRANCH   1  12
TORSDOF 6
ENDMDL
MODEL 4
REMARK VINA RESULT: -5.102491150      2.343      3.313
REMARK  6 active torsions:
REMARK  status: ('A' for Active; 'I' for Inactive)
REMARK    1  A    between atoms: N1_1  and  C1_4 
REMARK    2  A    between atoms: C2_7  and  C3_8 
REMARK    3  A    between atoms: C3_8  and  C4_9 
REMARK    4  A    between atoms: C4_9  and  N3_10 
REMARK    5  A    between atoms: C4_9  and  C5_14 
REMARK    6  A    between atoms: C5_14  and  N4_15 
ROOT
HETATM    1  C3  UNL     1      10.004   1.886  19.512  1.00  0.00     0.121 C 
ENDROOT
BRANCH   1   2
HETATM    2  C2  UNL     1      10.046   2.592  20.821  1.00  0.00     0.164 A 
HETATM    3  N2  UNL     1      11.151   2.837  21.577  1.00  0.00    -0.171 N 
HETATM    4  C1  UNL     1      10.786   3.492  22.681  1.00  0.00     0.697 A 
ATOM      5  H2  UNL     1      12.104   2.564  21.337  1.00  0.00     0.186 HD
HETATM    6  N5  UNL     1       9.454   3.653  22.609  1.00  0.00    -0.090 N 
HETATM    7  O1  UNL     1       9.055   3.109  21.499  1.00  0.00    -0.209 OA
ATOM      8  H5  UNL     1       8.865   4.118  23.300  1.00  0.00     0.213 HD
BRANCH   4   9
HETATM    9  N1  UNL     1      11.501   3.921  23.667  1.00  0.00    -0.233 N 
ATOM     10  H12 UNL     1      12.045   3.307  24.274  1.00  0.00     0.174 HD
ATOM     11  H11 UNL     1      11.649   4.871  24.006  1.00  0.00     0.174 HD
ENDBRANCH   4   9
ENDBRANCH   1   2
BRANCH   1  12
HETATM   12  C4  UNL     1       9.000   0.754  19.544  1.00  0.00     0.216 C 
BRANCH  12  13
HETATM   13  N3  UNL     1       7.641   1.255  19.643  1.00  0.00    -0.073 N 
ATOM     14  H33 UNL     1       7.387   1.811  18.827  1.00  0.00     0.274 HD
ATOM     15  H32 UNL     1       6.957   0.505  19.541  1.00  0.00     0.274 HD
ATOM     16  H31 UNL     1       7.499   1.775  20.508  1.00  0.00     0.274 HD
ENDBRANCH  12  13
BRANCH  12  17
HETATM   17  C5  UNL     1       9.062  -0.058  18.267  1.00  0.00     0.262 C 
BRANCH  17  18
HETATM   18  N4  UNL     1       9.605  -1.382  18.508  1.00  0.00    -0.077 N 
ATOM     19  H43 UNL     1       9.289  -1.759  19.401  1.00  0.00     0.274 HD
ATOM     20  H42 UNL     1       9.186  -2.077  17.888  1.00  0.00     0.274 HD
ATOM     21  H41 UNL     1      10.622  -1.386  18.439  1.00  0.00     0.274 HD
ENDBRANCH  17  18
ENDBRANCH  12  17
ENDBRANCH   1  12
TORSDOF 6
ENDMDL
MODEL 5
REMARK VINA RESULT: -5.073318361      1.301      1.657
REMARK  6 active torsions:
REMARK  status: ('A' for Active; 'I' for Inactive)
REMARK    1  A    between atoms: N1_1  and  C1_4 
REMARK    2  A    between atoms: C2_7  and  C3_8 
REMARK    3  A    between atoms: C3_8  and  C4_9 
REMARK    4  A    between atoms: C4_9  and  N3_10 
REMARK    5  A    between atoms: C4_9  and  C5_14 
REMARK    6  A    between atoms: C5_14  and  N4_15 
ROOT
HETATM    1  C3  UNL     1      10.043   2.666  19.307  1.00  0.00     0.121 C 
ENDROOT
BRANCH   1   2
HETATM    2  C2  UNL     1      10.281   2.725  20.774  1.00  0.00     0.164 A 
HETATM    3  N2  UNL     1      10.988   3.676  21.444  1.00  0.00    -0.171 N 
HETATM    4  C1  UNL     1      10.980   3.387  22.747  1.00  0.00     0.697 A 
ATOM      5  H2  UNL     1      11.449   4.481  21.018  1.00  0.00     0.186 HD
HETATM    6  N5  UNL     1      10.267   2.256  22.884  1.00  0.00    -0.090 N 
HETATM    7  O1  UNL     1       9.873   1.897  21.699  1.00  0.00    -0.209 OA
ATOM      8  H5  UNL     1      10.072   1.769  23.759  1.00  0.00     0.213 HD
BRANCH   4   9
HETATM    9  N1  UNL     1      11.519   4.011  23.740  1.00  0.00    -0.233 N 
ATOM     10  H12 UNL     1      12.366   3.691  24.210  1.00  0.00     0.174 HD
ATOM     11  H11 UNL     1      11.231   4.868  24.211  1.00  0.00     0.174 HD
ENDBRANCH   4   9
ENDBRANCH   1   2
BRANCH   1  12
HETATM   12  C4  UNL     1       8.614   2.263  19.011  1.00  0.00     0.216 C 
BRANCH  12  13
HETATM   13  N3  UNL     1       8.323   0.935  19.520  1.00  0.00    -0.073 N 
ATOM     14  H33 UNL     1       7.710   0.972  20.334  1.00  0.00     0.274 HD
ATOM     15  H32 UNL     1       7.712   0.417  18.887  1.00  0.00     0.274 HD
ATOM     16  H31 UNL     1       9.179   0.418  19.719  1.00  0.00     0.274 HD
ENDBRANCH  12  13
BRANCH  12  17
HETATM   17  C5  UNL     1       7.637   3.201  19.688  1.00  0.00     0.262 C 
BRANCH  17  18
HETATM   18  N4  UNL     1       6.818   2.502  20.661  1.00  0.00    -0.077 N 
ATOM     19  H43 UNL     1       5.872   2.349  20.313  1.00  0.00     0.274 HD
ATOM     20  H42 UNL     1       7.107   1.528  20.763  1.00  0.00     0.274 HD
ATOM     21  H41 UNL     1       6.813   2.985  21.559  1.00  0.00     0.274 HD
ENDBRANCH  17  18
ENDBRANCH  12  17
ENDBRANCH   1  12
TORSDOF 6
ENDMDL
