MODEL 1
REMARK VINA RESULT: -7.877083858      0.000      0.000
REMARK  19 active torsions:
REMARK  status: ('A' for Active; 'I' for Inactive)
REMARK    1  A    between atoms: C2_2  and  C4_4 
REMARK    2  A    between atoms: C4_4  and  N1_5 
REMARK       I    between atoms: N1_5  and  C5_6 
REMARK    3  A    between atoms: C5_6  and  C6_8 
REMARK    4  A    between atoms: C10_12  and  C11_13 
REMARK       I    between atoms: C11_13  and  N2_15 
REMARK    5  A    between atoms: N2_15  and  C12_17 
REMARK    6  A    between atoms: C12_17  and  C13_18 
REMARK    7  A    between atoms: C12_17  and  C34_46 
REMARK    8  A    between atoms: C13_18  and  O3_19 
REMARK    9  A    between atoms: C13_18  and  N3_21 
REMARK   10  A    between atoms: N3_21  and  C15_23 
REMARK   11  A    between atoms: C15_23  and  C16_24 
REMARK   12  A    between atoms: C15_23  and  C23_31 
REMARK   13  A    between atoms: C16_24  and  C17_25 
REMARK   14  A    between atoms: C23_31  and  N4_32 
REMARK   15  A    between atoms: C23_31  and  C30_42 
REMARK   16  A    between atoms: N4_32  and  C24_34 
REMARK   17  A    between atoms: C24_34  and  C25_35 
REMARK   18  A    between atoms: C24_34  and  C29_39 
REMARK   19  A    between atoms: C25_35  and  C26_36 
ROOT
HETATM    1  N3  UNL     1     -12.900  13.635   4.419  1.00  0.00    -0.361 N 
HETATM    2  C14 UNL     1     -13.670  14.810   4.624  1.00  0.00     0.152 C 
ENDROOT
BRANCH   1   3
HETATM    3  C13 UNL     1     -12.299  13.395   3.156  1.00  0.00     0.137 C 
BRANCH   3   4
HETATM    4  C12 UNL     1     -12.710  13.793   1.807  1.00  0.00     0.162 C 
BRANCH   4   5
HETATM    5  N2  UNL     1     -11.515  13.709   0.907  1.00  0.00    -0.348 N 
HETATM    6  C11 UNL     1     -11.151  14.769   0.074  1.00  0.00     0.223 C 
HETATM    7  O2  UNL     1     -11.765  15.866   0.029  1.00  0.00    -0.273 OA
ATOM      8  H2  UNL     1     -10.953  12.858   0.903  1.00  0.00     0.163 HD
BRANCH   6   9
HETATM    9  C10 UNL     1      -9.954  14.637  -0.856  1.00  0.00     0.092 A 
HETATM   10  C6  UNL     1      -8.861  15.558  -0.392  1.00  0.00     0.106 A 
HETATM   11  C7  UNL     1      -8.560  16.555  -1.448  1.00  0.00     0.016 A 
HETATM   12  C8  UNL     1      -9.466  16.240  -2.626  1.00  0.00     0.002 A 
HETATM   13  C9  UNL     1     -10.289  15.031  -2.250  1.00  0.00     0.015 A 
BRANCH  10  14
HETATM   14  C5  UNL     1      -7.641  14.825   0.120  1.00  0.00     0.295 C 
HETATM   15  N1  UNL     1      -6.463  15.507   0.315  1.00  0.00    -0.387 NA
HETATM   16  O1  UNL     1      -7.837  13.612   0.322  1.00  0.00    -0.257 OA
BRANCH  15  17
HETATM   17  C4  UNL     1      -5.300  16.180   0.509  1.00  0.00     0.163 C 
BRANCH  17  18
HETATM   18  C2  UNL     1      -4.869  17.168  -0.559  1.00  0.00     0.030 C 
HETATM   19  C1  UNL     1      -4.947  16.549  -1.941  1.00  0.00     0.016 C 
HETATM   20  C3  UNL     1      -5.615  18.450  -0.574  1.00  0.00     0.016 C 
ENDBRANCH  17  18
ENDBRANCH  15  17
ENDBRANCH  10  14
ENDBRANCH   6   9
ENDBRANCH   4   5
BRANCH   4  21
HETATM   21  C34 UNL     1     -13.610  12.727   1.145  1.00  0.00     0.008 C 
HETATM   22  C35 UNL     1     -14.694  13.310   0.297  1.00  0.00     0.012 C 
HETATM   23  C36 UNL     1     -12.950  11.566   0.559  1.00  0.00     0.012 C 
ENDBRANCH   4  21
ENDBRANCH   3   4
BRANCH   3  24
HETATM   24  O3  UNL     1     -11.201  12.698   3.207  1.00  0.00    -0.348 OA
ATOM     25  H3  UNL     1     -10.404  13.206   3.101  1.00  0.00     0.219 HD
ENDBRANCH   3  24
ENDBRANCH   1   3
BRANCH   1  26
HETATM   26  C15 UNL     1     -12.681  12.617   5.495  1.00  0.00     0.109 C 
BRANCH  26  27
HETATM   27  C16 UNL     1     -14.044  11.949   5.542  1.00  0.00     0.032 C 
BRANCH  27  28
HETATM   28  C17 UNL     1     -14.503  10.976   4.565  1.00  0.00    -0.013 C 
HETATM   29  C18 UNL     1     -15.106   9.782   5.386  1.00  0.00     0.005 C 
HETATM   30  C19 UNL     1     -16.361   9.252   4.824  1.00  0.00     0.000 C 
HETATM   31  C20 UNL     1     -16.232   9.019   3.345  1.00  0.00     0.000 C 
HETATM   32  C21 UNL     1     -15.940  10.305   2.643  1.00  0.00     0.000 C 
HETATM   33  C22 UNL     1     -15.672  11.373   3.709  1.00  0.00     0.005 C 
ENDBRANCH  27  28
ENDBRANCH  26  27
BRANCH  26  34
HETATM   34  C23 UNL     1     -12.045  13.077   6.716  1.00  0.00     0.107 C 
BRANCH  34  35
HETATM   35  N4  UNL     1     -10.632  13.296   6.328  1.00  0.00    -0.403 N 
ATOM     36  H4  UNL     1      -9.949  12.543   6.422  1.00  0.00     0.154 HD
BRANCH  35  37
HETATM   37  C24 UNL     1     -10.240  14.550   5.830  1.00  0.00     0.167 C 
BRANCH  37  38
HETATM   38  C25 UNL     1      -8.940  14.596   5.125  1.00  0.00     0.038 C 
BRANCH  38  39
HETATM   39  C26 UNL     1      -8.680  15.731   4.218  1.00  0.00    -0.020 C 
HETATM   40  C27 UNL     1      -9.827  16.084   3.287  1.00  0.00     0.009 C 
HETATM   41  C28 UNL     1      -7.997  16.935   4.726  1.00  0.00     0.009 C 
ENDBRANCH  38  39
ENDBRANCH  37  38
BRANCH  37  42
HETATM   42  C29 UNL     1     -10.049  15.364   7.111  1.00  0.00     0.253 C 
HETATM   43  N5  UNL     1      -8.877  15.288   7.884  1.00  0.00    -0.060 NA
HETATM   44  O4  UNL     1     -10.980  16.103   7.438  1.00  0.00    -0.275 OA
ENDBRANCH  37  42
ENDBRANCH  35  37
ENDBRANCH  34  35
BRANCH  34  45
HETATM   45  C30 UNL     1     -11.952  11.996   7.797  1.00  0.00    -0.029 C 
HETATM   46  C31 UNL     1     -13.147  11.991   8.725  1.00  0.00     0.016 C 
HETATM   47  C32 UNL     1     -11.684  10.608   7.409  1.00  0.00     0.016 C 
HETATM   48  C33 UNL     1     -10.779  12.379   8.742  1.00  0.00     0.016 C 
ENDBRANCH  34  45
ENDBRANCH  26  34
ENDBRANCH   1  26
TORSDOF 19
ENDMDL
MODEL 2
REMARK VINA RESULT: -7.821246558      1.702      2.748
REMARK  19 active torsions:
REMARK  status: ('A' for Active; 'I' for Inactive)
REMARK    1  A    between atoms: C2_2  and  C4_4 
REMARK    2  A    between atoms: C4_4  and  N1_5 
REMARK       I    between atoms: N1_5  and  C5_6 
REMARK    3  A    between atoms: C5_6  and  C6_8 
REMARK    4  A    between atoms: C10_12  and  C11_13 
REMARK       I    between atoms: C11_13  and  N2_15 
REMARK    5  A    between atoms: N2_15  and  C12_17 
REMARK    6  A    between atoms: C12_17  and  C13_18 
REMARK    7  A    between atoms: C12_17  and  C34_46 
REMARK    8  A    between atoms: C13_18  and  O3_19 
REMARK    9  A    between atoms: C13_18  and  N3_21 
REMARK   10  A    between atoms: N3_21  and  C15_23 
REMARK   11  A    between atoms: C15_23  and  C16_24 
REMARK   12  A    between atoms: C15_23  and  C23_31 
REMARK   13  A    between atoms: C16_24  and  C17_25 
REMARK   14  A    between atoms: C23_31  and  N4_32 
REMARK   15  A    between atoms: C23_31  and  C30_42 
REMARK   16  A    between atoms: N4_32  and  C24_34 
REMARK   17  A    between atoms: C24_34  and  C25_35 
REMARK   18  A    between atoms: C24_34  and  C29_39 
REMARK   19  A    between atoms: C25_35  and  C26_36 
ROOT
HETATM    1  N3  UNL     1     -12.943  13.546   4.436  1.00  0.00    -0.361 N 
HETATM    2  C14 UNL     1     -13.754  14.695   4.636  1.00  0.00     0.152 C 
ENDROOT
BRANCH   1   3
HETATM    3  C13 UNL     1     -12.274  13.360   3.199  1.00  0.00     0.137 C 
BRANCH   3   4
HETATM    4  C12 UNL     1     -12.573  13.873   1.860  1.00  0.00     0.162 C 
BRANCH   4   5
HETATM    5  N2  UNL     1     -11.278  14.221   1.190  1.00  0.00    -0.348 N 
HETATM    6  C11 UNL     1     -11.143  15.378   0.418  1.00  0.00     0.223 C 
HETATM    7  O2  UNL     1     -12.064  16.217   0.247  1.00  0.00    -0.273 OA
ATOM      8  H2  UNL     1     -10.478  13.600   1.300  1.00  0.00     0.163 HD
BRANCH   6   9
HETATM    9  C10 UNL     1      -9.825  15.683  -0.280  1.00  0.00     0.092 A 
HETATM   10  C6  UNL     1      -9.836  15.069  -1.650  1.00  0.00     0.106 A 
HETATM   11  C7  UNL     1      -8.745  14.070  -1.763  1.00  0.00     0.016 A 
HETATM   12  C8  UNL     1      -8.003  14.073  -0.438  1.00  0.00     0.002 A 
HETATM   13  C9  UNL     1      -8.666  15.102   0.446  1.00  0.00     0.015 A 
BRANCH  10  14
HETATM   14  C5  UNL     1      -9.842  16.092  -2.763  1.00  0.00     0.295 C 
HETATM   15  N1  UNL     1     -10.193  15.717  -4.039  1.00  0.00    -0.387 NA
HETATM   16  O1  UNL     1      -9.511  17.233  -2.392  1.00  0.00    -0.257 OA
BRANCH  15  17
HETATM   17  C4  UNL     1     -10.539  15.347  -5.299  1.00  0.00     0.163 C 
BRANCH  17  18
HETATM   18  C2  UNL     1      -9.450  15.325  -6.353  1.00  0.00     0.030 C 
HETATM   19  C1  UNL     1      -9.955  14.720  -7.650  1.00  0.00     0.016 C 
HETATM   20  C3  UNL     1      -8.833  16.640  -6.655  1.00  0.00     0.016 C 
ENDBRANCH  17  18
ENDBRANCH  15  17
ENDBRANCH  10  14
ENDBRANCH   6   9
ENDBRANCH   4   5
BRANCH   4  21
HETATM   21  C34 UNL     1     -13.063  12.754   0.915  1.00  0.00     0.008 C 
HETATM   22  C35 UNL     1     -14.337  13.090   0.208  1.00  0.00     0.012 C 
HETATM   23  C36 UNL     1     -12.064  12.106   0.073  1.00  0.00     0.012 C 
ENDBRANCH   4  21
ENDBRANCH   3   4
BRANCH   3  24
HETATM   24  O3  UNL     1     -11.220  12.599   3.268  1.00  0.00    -0.348 OA
ATOM     25  H3  UNL     1     -10.739  12.660   4.085  1.00  0.00     0.219 HD
ENDBRANCH   3  24
ENDBRANCH   1   3
BRANCH   1  26
HETATM   26  C15 UNL     1     -12.751  12.502   5.493  1.00  0.00     0.109 C 
BRANCH  26  27
HETATM   27  C16 UNL     1     -14.123  11.852   5.509  1.00  0.00     0.032 C 
BRANCH  27  28
HETATM   28  C17 UNL     1     -14.614  10.970   4.463  1.00  0.00    -0.013 C 
HETATM   29  C18 UNL     1     -15.485   9.880   5.182  1.00  0.00     0.005 C 
HETATM   30  C19 UNL     1     -16.734   9.558   4.472  1.00  0.00     0.000 C 
HETATM   31  C20 UNL     1     -16.477   9.318   3.010  1.00  0.00     0.000 C 
HETATM   32  C21 UNL     1     -15.911  10.547   2.377  1.00  0.00     0.000 C 
HETATM   33  C22 UNL     1     -15.603  11.553   3.493  1.00  0.00     0.005 C 
ENDBRANCH  27  28
ENDBRANCH  26  27
BRANCH  26  34
HETATM   34  C23 UNL     1     -12.124  12.927   6.731  1.00  0.00     0.107 C 
BRANCH  34  35
HETATM   35  N4  UNL     1     -10.707  13.152   6.361  1.00  0.00    -0.403 N 
ATOM     36  H4  UNL     1     -10.029  12.393   6.436  1.00  0.00     0.154 HD
BRANCH  35  37
HETATM   37  C24 UNL     1     -10.306  14.419   5.906  1.00  0.00     0.167 C 
BRANCH  37  38
HETATM   38  C25 UNL     1      -8.986  14.486   5.240  1.00  0.00     0.038 C 
BRANCH  38  39
HETATM   39  C26 UNL     1      -8.634  15.724   4.518  1.00  0.00    -0.020 C 
HETATM   40  C27 UNL     1      -9.724  16.270   3.611  1.00  0.00     0.009 C 
HETATM   41  C28 UNL     1      -7.913  16.803   5.218  1.00  0.00     0.009 C 
ENDBRANCH  38  39
ENDBRANCH  37  38
BRANCH  37  42
HETATM   42  C29 UNL     1     -10.155  15.201   7.212  1.00  0.00     0.253 C 
HETATM   43  N5  UNL     1      -9.104  14.963   8.115  1.00  0.00    -0.060 NA
HETATM   44  O4  UNL     1     -11.005  16.064   7.439  1.00  0.00    -0.275 OA
ENDBRANCH  37  42
ENDBRANCH  35  37
ENDBRANCH  34  35
BRANCH  34  45
HETATM   45  C30 UNL     1     -12.045  11.817   7.783  1.00  0.00    -0.029 C 
HETATM   46  C31 UNL     1     -13.224  11.821   8.730  1.00  0.00     0.016 C 
HETATM   47  C32 UNL     1     -11.821  10.432   7.357  1.00  0.00     0.016 C 
HETATM   48  C33 UNL     1     -10.846  12.144   8.717  1.00  0.00     0.016 C 
ENDBRANCH  34  45
ENDBRANCH  26  34
ENDBRANCH   1  26
TORSDOF 19
ENDMDL
MODEL 3
REMARK VINA RESULT: -7.762080434      4.253     12.551
REMARK  19 active torsions:
REMARK  status: ('A' for Active; 'I' for Inactive)
REMARK    1  A    between atoms: C2_2  and  C4_4 
REMARK    2  A    between atoms: C4_4  and  N1_5 
REMARK       I    between atoms: N1_5  and  C5_6 
REMARK    3  A    between atoms: C5_6  and  C6_8 
REMARK    4  A    between atoms: C10_12  and  C11_13 
REMARK       I    between atoms: C11_13  and  N2_15 
REMARK    5  A    between atoms: N2_15  and  C12_17 
REMARK    6  A    between atoms: C12_17  and  C13_18 
REMARK    7  A    between atoms: C12_17  and  C34_46 
REMARK    8  A    between atoms: C13_18  and  O3_19 
REMARK    9  A    between atoms: C13_18  and  N3_21 
REMARK   10  A    between atoms: N3_21  and  C15_23 
REMARK   11  A    between atoms: C15_23  and  C16_24 
REMARK   12  A    between atoms: C15_23  and  C23_31 
REMARK   13  A    between atoms: C16_24  and  C17_25 
REMARK   14  A    between atoms: C23_31  and  N4_32 
REMARK   15  A    between atoms: C23_31  and  C30_42 
REMARK   16  A    between atoms: N4_32  and  C24_34 
REMARK   17  A    between atoms: C24_34  and  C25_35 
REMARK   18  A    between atoms: C24_34  and  C29_39 
REMARK   19  A    between atoms: C25_35  and  C26_36 
ROOT
HETATM    1  N3  UNL     1      -5.329  18.048  -4.409  1.00  0.00    -0.361 N 
HETATM    2  C14 UNL     1      -6.028  19.262  -4.640  1.00  0.00     0.152 C 
ENDROOT
BRANCH   1   3
HETATM    3  C13 UNL     1      -5.392  17.427  -3.135  1.00  0.00     0.137 C 
BRANCH   3   4
HETATM    4  C12 UNL     1      -5.620  17.993  -1.802  1.00  0.00     0.162 C 
BRANCH   4   5
HETATM    5  N2  UNL     1      -6.005  16.878  -0.877  1.00  0.00    -0.348 N 
HETATM    6  C11 UNL     1      -7.174  16.933  -0.114  1.00  0.00     0.223 C 
HETATM    7  O2  UNL     1      -7.994  17.886  -0.158  1.00  0.00    -0.273 OA
ATOM      8  H2  UNL     1      -5.400  16.061  -0.804  1.00  0.00     0.163 HD
BRANCH   6   9
HETATM    9  C10 UNL     1      -7.517  15.802   0.844  1.00  0.00     0.092 A 
HETATM   10  C6  UNL     1      -8.930  15.356   0.599  1.00  0.00     0.106 A 
HETATM   11  C7  UNL     1      -9.744  15.567   1.821  1.00  0.00     0.016 A 
HETATM   12  C8  UNL     1      -8.814  16.135   2.880  1.00  0.00     0.002 A 
HETATM   13  C9  UNL     1      -7.439  16.236   2.263  1.00  0.00     0.015 A 
BRANCH  10  14
HETATM   14  C5  UNL     1      -9.025  13.954   0.039  1.00  0.00     0.295 C 
HETATM   15  N1  UNL     1     -10.250  13.338  -0.065  1.00  0.00    -0.387 NA
HETATM   16  O1  UNL     1      -7.924  13.473  -0.287  1.00  0.00    -0.257 OA
BRANCH  15  17
HETATM   17  C4  UNL     1     -11.461  12.731  -0.169  1.00  0.00     0.163 C 
BRANCH  17  18
HETATM   18  C2  UNL     1     -12.610  13.304   0.637  1.00  0.00     0.030 C 
HETATM   19  C1  UNL     1     -12.859  14.757   0.280  1.00  0.00     0.016 C 
HETATM   20  C3  UNL     1     -13.891  12.565   0.527  1.00  0.00     0.016 C 
ENDBRANCH  17  18
ENDBRANCH  15  17
ENDBRANCH  10  14
ENDBRANCH   6   9
ENDBRANCH   4   5
BRANCH   4  21
HETATM   21  C34 UNL     1      -4.299  18.438  -1.138  1.00  0.00     0.008 C 
HETATM   22  C35 UNL     1      -3.451  17.296  -0.680  1.00  0.00     0.012 C 
HETATM   23  C36 UNL     1      -3.556  19.514  -1.783  1.00  0.00     0.012 C 
ENDBRANCH   4  21
ENDBRANCH   3   4
BRANCH   3  24
HETATM   24  O3  UNL     1      -5.214  16.138  -3.155  1.00  0.00    -0.348 OA
ATOM     25  H3  UNL     1      -5.991  15.633  -3.368  1.00  0.00     0.219 HD
ENDBRANCH   3  24
ENDBRANCH   1   3
BRANCH   1  26
HETATM   26  C15 UNL     1      -4.514  17.372  -5.469  1.00  0.00     0.109 C 
BRANCH  26  27
HETATM   27  C16 UNL     1      -3.300  18.283  -5.524  1.00  0.00     0.032 C 
BRANCH  27  28
HETATM   28  C17 UNL     1      -1.950  17.853  -5.201  1.00  0.00    -0.013 C 
HETATM   29  C18 UNL     1      -1.203  19.123  -4.659  1.00  0.00     0.005 C 
HETATM   30  C19 UNL     1      -0.355  18.855  -3.486  1.00  0.00     0.000 C 
HETATM   31  C20 UNL     1       0.509  17.646  -3.711  1.00  0.00     0.000 C 
HETATM   32  C21 UNL     1      -0.341  16.437  -3.929  1.00  0.00     0.000 C 
HETATM   33  C22 UNL     1      -1.798  16.901  -4.049  1.00  0.00     0.005 C 
ENDBRANCH  27  28
ENDBRANCH  26  27
BRANCH  26  34
HETATM   34  C23 UNL     1      -5.204  16.992  -6.688  1.00  0.00     0.107 C 
BRANCH  34  35
HETATM   35  N4  UNL     1      -6.091  15.881  -6.271  1.00  0.00    -0.403 N 
ATOM     36  H4  UNL     1      -5.760  14.917  -6.308  1.00  0.00     0.154 HD
BRANCH  35  37
HETATM   37  C24 UNL     1      -7.392  16.167  -5.824  1.00  0.00     0.167 C 
BRANCH  37  38
HETATM   38  C25 UNL     1      -8.112  15.061  -5.156  1.00  0.00     0.038 C 
BRANCH  38  39
HETATM   39  C26 UNL     1      -9.236  15.401  -4.262  1.00  0.00    -0.020 C 
HETATM   40  C27 UNL     1      -8.981  16.570  -3.327  1.00  0.00     0.009 C 
HETATM   41  C28 UNL     1     -10.614  15.409  -4.786  1.00  0.00     0.009 C 
ENDBRANCH  38  39
ENDBRANCH  37  38
BRANCH  37  42
HETATM   42  C29 UNL     1      -8.138  16.421  -7.134  1.00  0.00     0.253 C 
HETATM   43  N5  UNL     1      -8.657  15.377  -7.920  1.00  0.00    -0.060 NA
HETATM   44  O4  UNL     1      -8.271  17.599  -7.474  1.00  0.00    -0.275 OA
ENDBRANCH  37  42
ENDBRANCH  35  37
ENDBRANCH  34  35
BRANCH  34  45
HETATM   45  C30 UNL     1      -4.287  16.343  -7.728  1.00  0.00    -0.029 C 
HETATM   46  C31 UNL     1      -3.653  17.352  -8.661  1.00  0.00     0.016 C 
HETATM   47  C32 UNL     1      -3.236  15.421  -7.289  1.00  0.00     0.016 C 
HETATM   48  C33 UNL     1      -5.183  15.502  -8.680  1.00  0.00     0.016 C 
ENDBRANCH  34  45
ENDBRANCH  26  34
ENDBRANCH   1  26
TORSDOF 19
ENDMDL
MODEL 4
REMARK VINA RESULT: -7.595695493      1.191      1.783
REMARK  19 active torsions:
REMARK  status: ('A' for Active; 'I' for Inactive)
REMARK    1  A    between atoms: C2_2  and  C4_4 
REMARK    2  A    between atoms: C4_4  and  N1_5 
REMARK       I    between atoms: N1_5  and  C5_6 
REMARK    3  A    between atoms: C5_6  and  C6_8 
REMARK    4  A    between atoms: C10_12  and  C11_13 
REMARK       I    between atoms: C11_13  and  N2_15 
REMARK    5  A    between atoms: N2_15  and  C12_17 
REMARK    6  A    between atoms: C12_17  and  C13_18 
REMARK    7  A    between atoms: C12_17  and  C34_46 
REMARK    8  A    between atoms: C13_18  and  O3_19 
REMARK    9  A    between atoms: C13_18  and  N3_21 
REMARK   10  A    between atoms: N3_21  and  C15_23 
REMARK   11  A    between atoms: C15_23  and  C16_24 
REMARK   12  A    between atoms: C15_23  and  C23_31 
REMARK   13  A    between atoms: C16_24  and  C17_25 
REMARK   14  A    between atoms: C23_31  and  N4_32 
REMARK   15  A    between atoms: C23_31  and  C30_42 
REMARK   16  A    between atoms: N4_32  and  C24_34 
REMARK   17  A    between atoms: C24_34  and  C25_35 
REMARK   18  A    between atoms: C24_34  and  C29_39 
REMARK   19  A    between atoms: C25_35  and  C26_36 
ROOT
HETATM    1  N3  UNL     1     -13.179  13.577   4.278  1.00  0.00    -0.361 N 
HETATM    2  C14 UNL     1     -14.064  14.661   4.523  1.00  0.00     0.152 C 
ENDROOT
BRANCH   1   3
HETATM    3  C13 UNL     1     -12.757  13.295   2.954  1.00  0.00     0.137 C 
BRANCH   3   4
HETATM    4  C12 UNL     1     -13.032  13.985   1.691  1.00  0.00     0.162 C 
BRANCH   4   5
HETATM    5  N2  UNL     1     -11.868  13.769   0.773  1.00  0.00    -0.348 N 
HETATM    6  C11 UNL     1     -11.202  14.840   0.171  1.00  0.00     0.223 C 
HETATM    7  O2  UNL     1     -11.500  16.047   0.366  1.00  0.00    -0.273 OA
ATOM      8  H2  UNL     1     -11.553  12.818   0.583  1.00  0.00     0.163 HD
BRANCH   6   9
HETATM    9  C10 UNL     1     -10.047  14.585  -0.786  1.00  0.00     0.092 A 
HETATM   10  C6  UNL     1      -8.912  15.509  -0.451  1.00  0.00     0.106 A 
HETATM   11  C7  UNL     1      -8.625  16.394  -1.606  1.00  0.00     0.016 A 
HETATM   12  C8  UNL     1      -9.586  16.001  -2.715  1.00  0.00     0.002 A 
HETATM   13  C9  UNL     1     -10.427  14.859  -2.197  1.00  0.00     0.015 A 
BRANCH  10  14
HETATM   14  C5  UNL     1      -7.694  14.788   0.081  1.00  0.00     0.295 C 
HETATM   15  N1  UNL     1      -6.529  15.484   0.310  1.00  0.00    -0.387 NA
HETATM   16  O1  UNL     1      -7.877  13.571   0.267  1.00  0.00    -0.257 OA
BRANCH  15  17
HETATM   17  C4  UNL     1      -5.380  16.171   0.537  1.00  0.00     0.163 C 
BRANCH  17  18
HETATM   18  C2  UNL     1      -4.924  17.153  -0.525  1.00  0.00     0.030 C 
HETATM   19  C1  UNL     1      -4.949  16.520  -1.904  1.00  0.00     0.016 C 
HETATM   20  C3  UNL     1      -5.681  18.427  -0.578  1.00  0.00     0.016 C 
ENDBRANCH  17  18
ENDBRANCH  15  17
ENDBRANCH  10  14
ENDBRANCH   6   9
ENDBRANCH   4   5
BRANCH   4  21
HETATM   21  C34 UNL     1     -14.138  13.275   0.881  1.00  0.00     0.008 C 
HETATM   22  C35 UNL     1     -13.640  12.102   0.099  1.00  0.00     0.012 C 
HETATM   23  C36 UNL     1     -15.415  13.051   1.548  1.00  0.00     0.012 C 
ENDBRANCH   4  21
ENDBRANCH   3   4
BRANCH   3  24
HETATM   24  O3  UNL     1     -12.001  12.241   2.844  1.00  0.00    -0.348 OA
ATOM     25  H3  UNL     1     -11.095  12.374   3.097  1.00  0.00     0.219 HD
ENDBRANCH   3  24
ENDBRANCH   1   3
BRANCH   1  26
HETATM   26  C15 UNL     1     -12.653  12.702   5.375  1.00  0.00     0.109 C 
BRANCH  26  27
HETATM   27  C16 UNL     1     -13.940  12.079   5.888  1.00  0.00     0.032 C 
BRANCH  27  28
HETATM   28  C17 UNL     1     -14.366  10.726   5.572  1.00  0.00    -0.013 C 
HETATM   29  C18 UNL     1     -15.421  10.857   4.417  1.00  0.00     0.005 C 
HETATM   30  C19 UNL     1     -15.268   9.844   3.359  1.00  0.00     0.000 C 
HETATM   31  C20 UNL     1     -15.123   8.468   3.947  1.00  0.00     0.000 C 
HETATM   32  C21 UNL     1     -13.902   8.400   4.805  1.00  0.00     0.000 C 
HETATM   33  C22 UNL     1     -13.343   9.821   4.944  1.00  0.00     0.005 C 
ENDBRANCH  27  28
ENDBRANCH  26  27
BRANCH  26  34
HETATM   34  C23 UNL     1     -11.707  13.301   6.298  1.00  0.00     0.107 C 
BRANCH  34  35
HETATM   35  N4  UNL     1     -10.398  13.156   5.620  1.00  0.00    -0.403 N 
ATOM     36  H4  UNL     1     -10.085  12.241   5.294  1.00  0.00     0.154 HD
BRANCH  35  37
HETATM   37  C24 UNL     1      -9.591  14.290   5.428  1.00  0.00     0.167 C 
BRANCH  37  38
HETATM   38  C25 UNL     1      -9.986  15.507   6.171  1.00  0.00     0.038 C 
BRANCH  38  39
HETATM   39  C26 UNL     1      -8.918  16.382   6.692  1.00  0.00    -0.020 C 
HETATM   40  C27 UNL     1      -8.189  15.846   7.913  1.00  0.00     0.009 C 
HETATM   41  C28 UNL     1      -7.998  17.055   5.758  1.00  0.00     0.009 C 
ENDBRANCH  38  39
ENDBRANCH  37  38
BRANCH  37  42
HETATM   42  C29 UNL     1      -9.824  14.609   3.950  1.00  0.00     0.253 C 
HETATM   43  N5  UNL     1     -10.390  15.823   3.522  1.00  0.00    -0.060 NA
HETATM   44  O4  UNL     1      -9.485  13.744   3.140  1.00  0.00    -0.275 OA
ENDBRANCH  37  42
ENDBRANCH  35  37
ENDBRANCH  34  35
BRANCH  34  45
HETATM   45  C30 UNL     1     -11.528  12.498   7.590  1.00  0.00    -0.029 C 
HETATM   46  C31 UNL     1     -12.754  12.531   8.475  1.00  0.00     0.016 C 
HETATM   47  C32 UNL     1     -11.067  11.108   7.519  1.00  0.00     0.016 C 
HETATM   48  C33 UNL     1     -10.458  13.228   8.449  1.00  0.00     0.016 C 
ENDBRANCH  34  45
ENDBRANCH  26  34
ENDBRANCH   1  26
TORSDOF 19
ENDMDL
MODEL 5
REMARK VINA RESULT: -7.590296971      2.561      6.016
REMARK  19 active torsions:
REMARK  status: ('A' for Active; 'I' for Inactive)
REMARK    1  A    between atoms: C2_2  and  C4_4 
REMARK    2  A    between atoms: C4_4  and  N1_5 
REMARK       I    between atoms: N1_5  and  C5_6 
REMARK    3  A    between atoms: C5_6  and  C6_8 
REMARK    4  A    between atoms: C10_12  and  C11_13 
REMARK       I    between atoms: C11_13  and  N2_15 
REMARK    5  A    between atoms: N2_15  and  C12_17 
REMARK    6  A    between atoms: C12_17  and  C13_18 
REMARK    7  A    between atoms: C12_17  and  C34_46 
REMARK    8  A    between atoms: C13_18  and  O3_19 
REMARK    9  A    between atoms: C13_18  and  N3_21 
REMARK   10  A    between atoms: N3_21  and  C15_23 
REMARK   11  A    between atoms: C15_23  and  C16_24 
REMARK   12  A    between atoms: C15_23  and  C23_31 
REMARK   13  A    between atoms: C16_24  and  C17_25 
REMARK   14  A    between atoms: C23_31  and  N4_32 
REMARK   15  A    between atoms: C23_31  and  C30_42 
REMARK   16  A    between atoms: N4_32  and  C24_34 
REMARK   17  A    between atoms: C24_34  and  C25_35 
REMARK   18  A    between atoms: C24_34  and  C29_39 
REMARK   19  A    between atoms: C25_35  and  C26_36 
ROOT
HETATM    1  N3  UNL     1     -11.443  14.563   1.587  1.00  0.00    -0.361 N 
HETATM    2  C14 UNL     1     -12.451  15.190   0.808  1.00  0.00     0.152 C 
ENDROOT
BRANCH   1   3
HETATM    3  C13 UNL     1     -10.187  14.255   1.003  1.00  0.00     0.137 C 
BRANCH   3   4
HETATM    4  C12 UNL     1      -8.987  15.076   0.819  1.00  0.00     0.162 C 
BRANCH   4   5
HETATM    5  N2  UNL     1      -8.674  15.130  -0.646  1.00  0.00    -0.348 N 
HETATM    6  C11 UNL     1      -7.361  15.246  -1.108  1.00  0.00     0.223 C 
HETATM    7  O2  UNL     1      -6.354  15.288  -0.354  1.00  0.00    -0.273 OA
ATOM      8  H2  UNL     1      -9.437  15.079  -1.320  1.00  0.00     0.163 HD
BRANCH   6   9
HETATM    9  C10 UNL     1      -7.079  15.336  -2.601  1.00  0.00     0.092 A 
HETATM   10  C6  UNL     1      -7.414  16.717  -3.087  1.00  0.00     0.106 A 
HETATM   11  C7  UNL     1      -8.490  16.645  -4.106  1.00  0.00     0.016 A 
HETATM   12  C8  UNL     1      -8.826  15.176  -4.292  1.00  0.00     0.002 A 
HETATM   13  C9  UNL     1      -7.917  14.387  -3.381  1.00  0.00     0.015 A 
BRANCH  10  14
HETATM   14  C5  UNL     1      -6.202  17.502  -3.536  1.00  0.00     0.295 C 
HETATM   15  N1  UNL     1      -5.066  17.512  -2.761  1.00  0.00    -0.387 NA
HETATM   16  O1  UNL     1      -6.364  18.092  -4.620  1.00  0.00    -0.257 OA
BRANCH  15  17
HETATM   17  C4  UNL     1      -3.943  17.522  -1.996  1.00  0.00     0.163 C 
BRANCH  17  18
HETATM   18  C2  UNL     1      -3.977  18.314  -0.704  1.00  0.00     0.030 C 
HETATM   19  C1  UNL     1      -5.391  18.739  -0.357  1.00  0.00     0.016 C 
HETATM   20  C3  UNL     1      -3.387  17.631   0.474  1.00  0.00     0.016 C 
ENDBRANCH  17  18
ENDBRANCH  15  17
ENDBRANCH  10  14
ENDBRANCH   6   9
ENDBRANCH   4   5
BRANCH   4  21
HETATM   21  C34 UNL     1      -9.273  16.571   1.079  1.00  0.00     0.008 C 
HETATM   22  C35 UNL     1      -8.243  17.231   1.939  1.00  0.00     0.012 C 
HETATM   23  C36 UNL     1      -9.708  17.376  -0.056  1.00  0.00     0.012 C 
ENDBRANCH   4  21
ENDBRANCH   3   4
BRANCH   3  24
HETATM   24  O3  UNL     1     -10.088  13.039   0.551  1.00  0.00    -0.348 OA
ATOM     25  H3  UNL     1     -10.094  12.966  -0.397  1.00  0.00     0.219 HD
ENDBRANCH   3  24
ENDBRANCH   1   3
BRANCH   1  26
HETATM   26  C15 UNL     1     -11.642  14.207   3.028  1.00  0.00     0.109 C 
BRANCH  26  27
HETATM   27  C16 UNL     1     -10.203  14.126   3.508  1.00  0.00     0.032 C 
BRANCH  27  28
HETATM   28  C17 UNL     1      -9.780  14.460   4.857  1.00  0.00    -0.013 C 
HETATM   29  C18 UNL     1      -8.344  15.081   4.725  1.00  0.00     0.005 C 
HETATM   30  C19 UNL     1      -8.128  16.260   5.580  1.00  0.00     0.000 C 
HETATM   31  C20 UNL     1      -8.590  15.997   6.987  1.00  0.00     0.000 C 
HETATM   32  C21 UNL     1     -10.055  15.701   7.001  1.00  0.00     0.000 C 
HETATM   33  C22 UNL     1     -10.523  15.568   5.548  1.00  0.00     0.005 C 
ENDBRANCH  27  28
ENDBRANCH  26  27
BRANCH  26  34
HETATM   34  C23 UNL     1     -12.575  13.134   3.318  1.00  0.00     0.107 C 
BRANCH  34  35
HETATM   35  N4  UNL     1     -13.162  12.798   2.000  1.00  0.00    -0.403 N 
ATOM     36  H4  UNL     1     -13.343  13.532   1.315  1.00  0.00     0.154 HD
BRANCH  35  37
HETATM   37  C24 UNL     1     -13.467  11.459   1.701  1.00  0.00     0.167 C 
BRANCH  37  38
HETATM   38  C25 UNL     1     -12.682  10.433   2.423  1.00  0.00     0.038 C 
BRANCH  38  39
HETATM   39  C26 UNL     1     -13.368   9.629   3.452  1.00  0.00    -0.020 C 
HETATM   40  C27 UNL     1     -14.885   9.705   3.420  1.00  0.00     0.009 C 
HETATM   41  C28 UNL     1     -12.894   8.266   3.756  1.00  0.00     0.009 C 
ENDBRANCH  38  39
ENDBRANCH  37  38
BRANCH  37  42
HETATM   42  C29 UNL     1     -13.049  11.350   0.234  1.00  0.00     0.253 C 
HETATM   43  N5  UNL     1     -13.969  11.468  -0.822  1.00  0.00    -0.060 NA
HETATM   44  O4  UNL     1     -11.851  11.155   0.015  1.00  0.00    -0.275 OA
ENDBRANCH  37  42
ENDBRANCH  35  37
ENDBRANCH  34  35
BRANCH  34  45
HETATM   45  C30 UNL     1     -13.785  13.586   4.141  1.00  0.00    -0.029 C 
HETATM   46  C31 UNL     1     -13.619  14.977   4.711  1.00  0.00     0.016 C 
HETATM   47  C32 UNL     1     -15.127  13.501   3.558  1.00  0.00     0.016 C 
HETATM   48  C33 UNL     1     -13.846  12.693   5.411  1.00  0.00     0.016 C 
ENDBRANCH  34  45
ENDBRANCH  26  34
ENDBRANCH   1  26
TORSDOF 19
ENDMDL
