MODEL 1
REMARK VINA RESULT: -5.846643123      0.000      0.000
REMARK  6 active torsions:
REMARK  status: ('A' for Active; 'I' for Inactive)
REMARK    1  A    between atoms: S1_2  and  C2_3 
REMARK    2  A    between atoms: C3_5  and  C5_7 
REMARK    3  A    between atoms: C5_7  and  O2_8 
REMARK    4  A    between atoms: C6_10  and  O3_11 
REMARK    5  A    between atoms: C7_13  and  O4_14 
REMARK    6  A    between atoms: C8_16  and  O5_17 
ROOT
HETATM    1  C2  UNL     1      73.491  58.738  36.249  1.00  0.00     0.215 C 
HETATM    2  O1  UNL     1      74.418  58.094  35.484  1.00  0.00    -0.357 OA
HETATM    3  C3  UNL     1      75.234  57.212  36.153  1.00  0.00     0.108 C 
HETATM    4  C4  UNL     1      76.491  57.041  35.327  1.00  0.00     0.051 C 
HETATM    5  C6  UNL     1      75.607  57.666  37.537  1.00  0.00     0.185 C 
HETATM    6  C7  UNL     1      75.473  59.161  37.707  1.00  0.00     0.182 C 
HETATM    7  C8  UNL     1      74.061  59.574  37.359  1.00  0.00     0.188 C 
ENDROOT
BRANCH   3   8
HETATM    8  C5  UNL     1      74.472  55.880  36.228  1.00  0.00     0.204 C 
BRANCH   8   9
HETATM    9  O2  UNL     1      74.767  55.185  37.370  1.00  0.00    -0.398 OA
ATOM     10  H2  UNL     1      75.523  54.621  37.256  1.00  0.00     0.209 HD
ENDBRANCH   8   9
ENDBRANCH   3   8
BRANCH   5  11
HETATM   11  O3  UNL     1      76.883  57.269  37.915  1.00  0.00    -0.390 OA
ATOM     12  H3  UNL     1      77.424  57.990  38.216  1.00  0.00     0.210 HD
ENDBRANCH   5  11
BRANCH   1  13
HETATM   13  S1  UNL     1      72.646  59.896  35.102  1.00  0.00    -0.139 SA
HETATM   14  C1  UNL     1      72.678  61.580  35.729  1.00  0.00     0.092 C 
ENDBRANCH   1  13
BRANCH   6  15
HETATM   15  O4  UNL     1      76.349  59.881  36.927  1.00  0.00    -0.390 OA
ATOM     16  H4  UNL     1      76.940  60.429  37.430  1.00  0.00     0.210 HD
ENDBRANCH   6  15
BRANCH   7  17
HETATM   17  O5  UNL     1      73.238  59.498  38.507  1.00  0.00    -0.389 OA
ATOM     18  H5  UNL     1      73.684  59.032  39.205  1.00  0.00     0.210 HD
ENDBRANCH   7  17
TORSDOF 6
ENDMDL
MODEL 2
REMARK VINA RESULT: -5.823444565      2.873      4.563
REMARK  6 active torsions:
REMARK  status: ('A' for Active; 'I' for Inactive)
REMARK    1  A    between atoms: S1_2  and  C2_3 
REMARK    2  A    between atoms: C3_5  and  C5_7 
REMARK    3  A    between atoms: C5_7  and  O2_8 
REMARK    4  A    between atoms: C6_10  and  O3_11 
REMARK    5  A    between atoms: C7_13  and  O4_14 
REMARK    6  A    between atoms: C8_16  and  O5_17 
ROOT
HETATM    1  C2  UNL     1      74.848  57.038  35.507  1.00  0.00     0.215 C 
HETATM    2  O1  UNL     1      74.872  56.063  34.555  1.00  0.00    -0.357 OA
HETATM    3  C3  UNL     1      73.646  55.669  34.073  1.00  0.00     0.108 C 
HETATM    4  C4  UNL     1      73.810  54.277  33.500  1.00  0.00     0.051 C 
HETATM    5  C6  UNL     1      72.565  55.652  35.117  1.00  0.00     0.185 C 
HETATM    6  C7  UNL     1      73.120  55.546  36.518  1.00  0.00     0.182 C 
HETATM    7  C8  UNL     1      74.089  56.683  36.754  1.00  0.00     0.188 C 
ENDROOT
BRANCH   3   8
HETATM    8  C5  UNL     1      73.277  56.655  32.954  1.00  0.00     0.204 C 
BRANCH   8   9
HETATM    9  O2  UNL     1      72.309  56.152  32.128  1.00  0.00    -0.398 OA
ATOM     10  H2  UNL     1      71.435  56.345  32.447  1.00  0.00     0.209 HD
ENDBRANCH   8   9
ENDBRANCH   3   8
BRANCH   5  11
HETATM   11  O3  UNL     1      71.627  54.649  34.914  1.00  0.00    -0.390 OA
ATOM     12  H3  UNL     1      71.990  53.776  35.000  1.00  0.00     0.210 HD
ENDBRANCH   5  11
BRANCH   1  13
HETATM   13  S1  UNL     1      76.600  57.263  36.008  1.00  0.00    -0.139 SA
HETATM   14  C1  UNL     1      77.726  56.745  34.706  1.00  0.00     0.092 C 
ENDBRANCH   1  13
BRANCH   6  15
HETATM   15  O4  UNL     1      73.768  54.356  36.761  1.00  0.00    -0.390 OA
ATOM     16  H4  UNL     1      73.181  53.609  36.807  1.00  0.00     0.210 HD
ENDBRANCH   6  15
BRANCH   7  17
HETATM   17  O5  UNL     1      73.398  57.812  37.250  1.00  0.00    -0.389 OA
ATOM     18  H5  UNL     1      72.787  57.554  37.932  1.00  0.00     0.210 HD
ENDBRANCH   7  17
TORSDOF 6
ENDMDL
MODEL 3
REMARK VINA RESULT: -5.792521230      2.023      3.572
REMARK  6 active torsions:
REMARK  status: ('A' for Active; 'I' for Inactive)
REMARK    1  A    between atoms: S1_2  and  C2_3 
REMARK    2  A    between atoms: C3_5  and  C5_7 
REMARK    3  A    between atoms: C5_7  and  O2_8 
REMARK    4  A    between atoms: C6_10  and  O3_11 
REMARK    5  A    between atoms: C7_13  and  O4_14 
REMARK    6  A    between atoms: C8_16  and  O5_17 
ROOT
HETATM    1  C2  UNL     1      75.339  56.803  35.537  1.00  0.00     0.215 C 
HETATM    2  O1  UNL     1      75.747  58.104  35.558  1.00  0.00    -0.357 OA
HETATM    3  C3  UNL     1      76.355  58.519  36.719  1.00  0.00     0.108 C 
HETATM    4  C4  UNL     1      76.222  60.026  36.786  1.00  0.00     0.051 C 
HETATM    5  C6  UNL     1      75.762  57.913  37.961  1.00  0.00     0.185 C 
HETATM    6  C7  UNL     1      74.350  57.424  37.744  1.00  0.00     0.182 C 
HETATM    7  C8  UNL     1      74.338  56.439  36.597  1.00  0.00     0.188 C 
ENDROOT
BRANCH   3   8
HETATM    8  C5  UNL     1      77.836  58.129  36.603  1.00  0.00     0.204 C 
BRANCH   8   9
HETATM    9  O2  UNL     1      78.247  57.359  37.656  1.00  0.00    -0.398 OA
ATOM     10  H2  UNL     1      77.523  57.118  38.222  1.00  0.00     0.209 HD
ENDBRANCH   8   9
ENDBRANCH   3   8
BRANCH   5  11
HETATM   11  O3  UNL     1      75.793  58.769  39.054  1.00  0.00    -0.390 OA
ATOM     12  H3  UNL     1      75.244  58.478  39.772  1.00  0.00     0.210 HD
ENDBRANCH   5  11
BRANCH   1  13
HETATM   13  S1  UNL     1      74.492  56.592  33.922  1.00  0.00    -0.139 SA
HETATM   14  C1  UNL     1      74.195  54.857  33.559  1.00  0.00     0.092 C 
ENDBRANCH   1  13
BRANCH   6  15
HETATM   15  O4  UNL     1      73.457  58.434  37.469  1.00  0.00    -0.390 OA
ATOM     16  H4  UNL     1      73.653  58.903  36.666  1.00  0.00     0.210 HD
ENDBRANCH   6  15
BRANCH   7  17
HETATM   17  O5  UNL     1      74.581  55.132  37.079  1.00  0.00    -0.389 OA
ATOM     18  H5  UNL     1      73.882  54.545  36.814  1.00  0.00     0.210 HD
ENDBRANCH   7  17
TORSDOF 6
ENDMDL
MODEL 4
REMARK VINA RESULT: -5.686368765      1.931      4.255
REMARK  6 active torsions:
REMARK  status: ('A' for Active; 'I' for Inactive)
REMARK    1  A    between atoms: S1_2  and  C2_3 
REMARK    2  A    between atoms: C3_5  and  C5_7 
REMARK    3  A    between atoms: C5_7  and  O2_8 
REMARK    4  A    between atoms: C6_10  and  O3_11 
REMARK    5  A    between atoms: C7_13  and  O4_14 
REMARK    6  A    between atoms: C8_16  and  O5_17 
ROOT
HETATM    1  C2  UNL     1      76.356  58.627  36.383  1.00  0.00     0.215 C 
HETATM    2  O1  UNL     1      75.385  59.440  35.879  1.00  0.00    -0.357 OA
HETATM    3  C3  UNL     1      74.614  60.096  36.809  1.00  0.00     0.108 C 
HETATM    4  C4  UNL     1      73.308  60.465  36.136  1.00  0.00     0.051 C 
HETATM    5  C6  UNL     1      74.325  59.279  38.038  1.00  0.00     0.185 C 
HETATM    6  C7  UNL     1      74.467  57.796  37.789  1.00  0.00     0.182 C 
HETATM    7  C8  UNL     1      75.855  57.514  37.259  1.00  0.00     0.188 C 
ENDROOT
BRANCH   3   8
HETATM    8  C5  UNL     1      75.381  61.370  37.195  1.00  0.00     0.204 C 
BRANCH   8   9
HETATM    9  O2  UNL     1      74.971  61.867  38.402  1.00  0.00    -0.398 OA
ATOM     10  H2  UNL     1      75.581  62.510  38.746  1.00  0.00     0.209 HD
ENDBRANCH   8   9
ENDBRANCH   3   8
BRANCH   5  11
HETATM   11  O3  UNL     1      73.077  59.540  38.585  1.00  0.00    -0.390 OA
ATOM     12  H3  UNL     1      72.982  60.435  38.890  1.00  0.00     0.210 HD
ENDBRANCH   5  11
BRANCH   1  13
HETATM   13  S1  UNL     1      77.127  57.834  34.918  1.00  0.00    -0.139 SA
HETATM   14  C1  UNL     1      76.255  56.335  34.449  1.00  0.00     0.092 C 
ENDBRANCH   1  13
BRANCH   6  15
HETATM   15  O4  UNL     1      73.543  57.300  36.897  1.00  0.00    -0.390 OA
ATOM     16  H4  UNL     1      73.237  56.429  37.117  1.00  0.00     0.210 HD
ENDBRANCH   6  15
BRANCH   7  17
HETATM   17  O5  UNL     1      76.746  57.289  38.332  1.00  0.00    -0.389 OA
ATOM     18  H5  UNL     1      77.642  57.452  38.060  1.00  0.00     0.210 HD
ENDBRANCH   7  17
TORSDOF 6
ENDMDL
MODEL 5
REMARK VINA RESULT: -5.625068035      1.421      1.752
REMARK  6 active torsions:
REMARK  status: ('A' for Active; 'I' for Inactive)
REMARK    1  A    between atoms: S1_2  and  C2_3 
REMARK    2  A    between atoms: C3_5  and  C5_7 
REMARK    3  A    between atoms: C5_7  and  O2_8 
REMARK    4  A    between atoms: C6_10  and  O3_11 
REMARK    5  A    between atoms: C7_13  and  O4_14 
REMARK    6  A    between atoms: C8_16  and  O5_17 
ROOT
HETATM    1  C2  UNL     1      73.297  59.189  36.179  1.00  0.00     0.215 C 
HETATM    2  O1  UNL     1      73.642  58.279  35.224  1.00  0.00    -0.357 OA
HETATM    3  C3  UNL     1      73.645  56.964  35.626  1.00  0.00     0.108 C 
HETATM    4  C4  UNL     1      74.551  56.203  34.681  1.00  0.00     0.051 C 
HETATM    5  C6  UNL     1      74.121  56.766  37.038  1.00  0.00     0.185 C 
HETATM    6  C7  UNL     1      74.971  57.915  37.525  1.00  0.00     0.182 C 
HETATM    7  C8  UNL     1      74.188  59.202  37.388  1.00  0.00     0.188 C 
ENDROOT
BRANCH   3   8
HETATM    8  C5  UNL     1      72.201  56.459  35.485  1.00  0.00     0.204 C 
BRANCH   8   9
HETATM    9  O2  UNL     1      71.789  55.770  36.593  1.00  0.00    -0.398 OA
ATOM     10  H2  UNL     1      71.990  56.238  37.396  1.00  0.00     0.209 HD
ENDBRANCH   8   9
ENDBRANCH   3   8
BRANCH   5  11
HETATM   11  O3  UNL     1      74.808  55.573  37.219  1.00  0.00    -0.390 OA
ATOM     12  H3  UNL     1      75.707  55.611  36.918  1.00  0.00     0.210 HD
ENDBRANCH   5  11
BRANCH   1  13
HETATM   13  S1  UNL     1      73.484  60.826  35.371  1.00  0.00    -0.139 SA
HETATM   14  C1  UNL     1      72.159  61.945  35.841  1.00  0.00     0.092 C 
ENDBRANCH   1  13
BRANCH   6  15
HETATM   15  O4  UNL     1      76.159  58.046  36.841  1.00  0.00    -0.390 OA
ATOM     16  H4  UNL     1      76.338  58.936  36.563  1.00  0.00     0.210 HD
ENDBRANCH   6  15
BRANCH   7  17
HETATM   17  O5  UNL     1      73.430  59.434  38.558  1.00  0.00    -0.389 OA
ATOM     18  H5  UNL     1      73.012  60.287  38.520  1.00  0.00     0.210 HD
ENDBRANCH   7  17
TORSDOF 6
ENDMDL
