MODEL 1
REMARK VINA RESULT: -8.593250198      0.000      0.000
REMARK  7 active torsions:
REMARK  status: ('A' for Active; 'I' for Inactive)
REMARK    1  A    between atoms: O1_1  and  N1_3 
REMARK    2  A    between atoms: C1_5  and  O2_6 
REMARK    3  A    between atoms: C1_5  and  C2_8 
REMARK    4  A    between atoms: C2_8  and  C3_9 
REMARK    5  A    between atoms: C3_9  and  S1_10 
REMARK    6  A    between atoms: S1_10  and  C4_11 
REMARK    7  A    between atoms: C5_14  and  C6_15 
ROOT
HETATM    1  C2  UNL     1      35.087   4.619  22.748  1.00  0.00     0.043 C 
HETATM    2  C10 UNL     1      35.240   3.215  22.197  1.00  0.00     0.004 C 
HETATM    3  C11 UNL     1      36.622   3.039  21.657  1.00  0.00     0.013 C 
HETATM    4  C12 UNL     1      37.695   3.283  22.710  1.00  0.00     0.021 C 
HETATM    5  C13 UNL     1      37.552   4.648  23.299  1.00  0.00     0.013 C 
HETATM    6  C14 UNL     1      36.106   4.797  23.809  1.00  0.00     0.004 C 
HETATM    7  C15 UNL     1      35.997   3.741  24.900  1.00  0.00     0.013 C 
HETATM    8  C16 UNL     1      36.141   2.361  24.352  1.00  0.00     0.021 C 
HETATM    9  C17 UNL     1      35.094   2.163  23.305  1.00  0.00     0.013 C 
HETATM   10  C18 UNL     1      37.520   2.198  23.750  1.00  0.00     0.178 C 
HETATM   11  F1  UNL     1      38.509   2.245  24.706  1.00  0.00    -0.249 F 
ENDROOT
BRANCH   1  12
HETATM   12  C1  UNL     1      35.302   5.553  21.614  1.00  0.00     0.145 C 
HETATM   13  N1  UNL     1      34.787   5.576  20.485  1.00  0.00    -0.250 N 
ATOM     14  H1  UNL     1      35.147   6.353  19.932  1.00  0.00     0.196 HD
BRANCH  13  15
HETATM   15  O1  UNL     1      33.901   4.871  19.800  1.00  0.00    -0.288 OA
ATOM     16  H1  UNL     1      32.958   4.763  19.776  1.00  0.00     0.244 HD
ENDBRANCH  13  15
BRANCH  12  17
HETATM   17  O2  UNL     1      36.246   6.572  21.897  1.00  0.00    -0.347 OA
ATOM     18  H2  UNL     1      35.919   7.464  21.888  1.00  0.00     0.219 HD
ENDBRANCH  12  17
ENDBRANCH   1  12
BRANCH   1  19
HETATM   19  C3  UNL     1      33.698   4.883  23.236  1.00  0.00     0.101 C 
BRANCH  19  20
HETATM   20  S1  UNL     1      33.480   6.086  24.463  1.00  0.00    -0.091 SA
BRANCH  20  21
HETATM   21  C4  UNL     1      33.782   7.755  24.260  1.00  0.00     0.160 A 
HETATM   22  N2  UNL     1      32.983   8.810  24.223  1.00  0.00    -0.319 N 
HETATM   23  C5  UNL     1      33.644   9.936  23.980  1.00  0.00     0.156 A 
ATOM     24  H2  UNL     1      31.974   8.764  24.365  1.00  0.00     0.169 HD
HETATM   25  N3  UNL     1      34.928   9.556  23.859  1.00  0.00    -0.281 N 
HETATM   26  N4  UNL     1      35.036   8.262  24.022  1.00  0.00    -0.278 N 
ATOM     27  H3  UNL     1      35.706  10.186  23.667  1.00  0.00     0.188 HD
ATOM     28  H4  UNL     1      35.901   7.724  23.980  1.00  0.00     0.189 HD
BRANCH  23  29
HETATM   29  C6  UNL     1      33.094  11.302  23.866  1.00  0.00     0.120 A 
HETATM   30  C7  UNL     1      33.808  12.458  23.902  1.00  0.00     0.043 A 
HETATM   31  C8  UNL     1      32.921  13.499  23.762  1.00  0.00     0.027 A 
HETATM   32  C9  UNL     1      31.681  12.897  23.646  1.00  0.00     0.142 A 
HETATM   33  O3  UNL     1      31.843  11.598  23.713  1.00  0.00    -0.319 OA
ENDBRANCH  23  29
ENDBRANCH  20  21
ENDBRANCH  19  20
ENDBRANCH   1  19
TORSDOF 7
ENDMDL
MODEL 2
REMARK VINA RESULT: -8.478839674      0.673      1.108
REMARK  7 active torsions:
REMARK  status: ('A' for Active; 'I' for Inactive)
REMARK    1  A    between atoms: O1_1  and  N1_3 
REMARK    2  A    between atoms: C1_5  and  O2_6 
REMARK    3  A    between atoms: C1_5  and  C2_8 
REMARK    4  A    between atoms: C2_8  and  C3_9 
REMARK    5  A    between atoms: C3_9  and  S1_10 
REMARK    6  A    between atoms: S1_10  and  C4_11 
REMARK    7  A    between atoms: C5_14  and  C6_15 
ROOT
HETATM    1  C2  UNL     1      35.106   4.681  22.546  1.00  0.00     0.043 C 
HETATM    2  C10 UNL     1      35.277   3.270  22.021  1.00  0.00     0.004 C 
HETATM    3  C11 UNL     1      36.665   3.099  21.493  1.00  0.00     0.013 C 
HETATM    4  C12 UNL     1      37.728   3.375  22.548  1.00  0.00     0.021 C 
HETATM    5  C13 UNL     1      37.567   4.749  23.110  1.00  0.00     0.013 C 
HETATM    6  C14 UNL     1      36.116   4.891  23.609  1.00  0.00     0.004 C 
HETATM    7  C15 UNL     1      36.012   3.854  24.719  1.00  0.00     0.013 C 
HETATM    8  C16 UNL     1      36.175   2.467  24.197  1.00  0.00     0.021 C 
HETATM    9  C17 UNL     1      35.137   2.237  23.148  1.00  0.00     0.013 C 
HETATM   10  C18 UNL     1      37.559   2.307  23.607  1.00  0.00     0.178 C 
HETATM   11  F1  UNL     1      38.542   2.384  24.568  1.00  0.00    -0.249 F 
ENDROOT
BRANCH   1  12
HETATM   12  C1  UNL     1      35.317   5.597  21.395  1.00  0.00     0.145 C 
HETATM   13  N1  UNL     1      34.824   5.582  20.257  1.00  0.00    -0.250 N 
ATOM     14  H1  UNL     1      35.173   6.357  19.694  1.00  0.00     0.196 HD
BRANCH  13  15
HETATM   15  O1  UNL     1      33.970   4.839  19.571  1.00  0.00    -0.288 OA
ATOM     16  H1  UNL     1      33.207   4.974  19.022  1.00  0.00     0.244 HD
ENDBRANCH  13  15
BRANCH  12  17
HETATM   17  O2  UNL     1      36.228   6.647  21.673  1.00  0.00    -0.347 OA
ATOM     18  H2  UNL     1      36.483   6.754  22.582  1.00  0.00     0.219 HD
ENDBRANCH  12  17
ENDBRANCH   1  12
BRANCH   1  19
HETATM   19  C3  UNL     1      33.711   4.939  23.020  1.00  0.00     0.101 C 
BRANCH  19  20
HETATM   20  S1  UNL     1      33.491   6.025  24.353  1.00  0.00    -0.091 SA
BRANCH  20  21
HETATM   21  C4  UNL     1      32.780   7.574  24.243  1.00  0.00     0.160 A 
HETATM   22  N2  UNL     1      33.295   8.789  24.137  1.00  0.00    -0.319 N 
HETATM   23  C5  UNL     1      32.363   9.735  24.142  1.00  0.00     0.156 A 
ATOM     24  H2  UNL     1      34.295   8.978  24.058  1.00  0.00     0.169 HD
HETATM   25  N3  UNL     1      31.202   9.067  24.259  1.00  0.00    -0.281 N 
HETATM   26  N4  UNL     1      31.424   7.779  24.321  1.00  0.00    -0.278 N 
ATOM     27  H3  UNL     1      30.281   9.502  24.295  1.00  0.00     0.188 HD
ATOM     28  H4  UNL     1      30.713   7.053  24.410  1.00  0.00     0.189 HD
BRANCH  23  29
HETATM   29  C6  UNL     1      32.556  11.196  24.043  1.00  0.00     0.120 A 
HETATM   30  C7  UNL     1      33.748  11.845  24.007  1.00  0.00     0.043 A 
HETATM   31  C8  UNL     1      33.487  13.191  23.912  1.00  0.00     0.027 A 
HETATM   32  C9  UNL     1      32.107  13.286  23.897  1.00  0.00     0.142 A 
HETATM   33  O3  UNL     1      31.608  12.076  23.976  1.00  0.00    -0.319 OA
ENDBRANCH  23  29
ENDBRANCH  20  21
ENDBRANCH  19  20
ENDBRANCH   1  19
TORSDOF 7
ENDMDL
MODEL 3
REMARK VINA RESULT: -8.243346358      1.269      1.673
REMARK  7 active torsions:
REMARK  status: ('A' for Active; 'I' for Inactive)
REMARK    1  A    between atoms: O1_1  and  N1_3 
REMARK    2  A    between atoms: C1_5  and  O2_6 
REMARK    3  A    between atoms: C1_5  and  C2_8 
REMARK    4  A    between atoms: C2_8  and  C3_9 
REMARK    5  A    between atoms: C3_9  and  S1_10 
REMARK    6  A    between atoms: S1_10  and  C4_11 
REMARK    7  A    between atoms: C5_14  and  C6_15 
ROOT
HETATM    1  C2  UNL     1      34.651   4.482  23.102  1.00  0.00     0.043 C 
HETATM    2  C10 UNL     1      34.967   3.193  22.370  1.00  0.00     0.004 C 
HETATM    3  C11 UNL     1      36.278   3.327  21.666  1.00  0.00     0.013 C 
HETATM    4  C12 UNL     1      37.420   3.656  22.618  1.00  0.00     0.021 C 
HETATM    5  C13 UNL     1      37.125   4.905  23.381  1.00  0.00     0.013 C 
HETATM    6  C14 UNL     1      35.753   4.735  24.059  1.00  0.00     0.004 C 
HETATM    7  C15 UNL     1      35.965   3.572  25.019  1.00  0.00     0.013 C 
HETATM    8  C16 UNL     1      36.269   2.305  24.294  1.00  0.00     0.021 C 
HETATM    9  C17 UNL     1      35.145   2.025  23.351  1.00  0.00     0.013 C 
HETATM   10  C18 UNL     1      37.567   2.457  23.531  1.00  0.00     0.178 C 
HETATM   11  F1  UNL     1      38.647   2.588  24.372  1.00  0.00    -0.249 F 
ENDROOT
BRANCH   1  12
HETATM   12  C1  UNL     1      34.556   5.550  22.073  1.00  0.00     0.145 C 
HETATM   13  N1  UNL     1      34.824   6.758  22.145  1.00  0.00    -0.250 N 
ATOM     14  H1  UNL     1      34.652   7.227  21.256  1.00  0.00     0.196 HD
BRANCH  13  15
HETATM   15  O1  UNL     1      35.271   7.609  23.055  1.00  0.00    -0.288 OA
ATOM     16  H1  UNL     1      34.946   8.367  23.526  1.00  0.00     0.244 HD
ENDBRANCH  13  15
BRANCH  12  17
HETATM   17  O2  UNL     1      34.087   5.081  20.820  1.00  0.00    -0.347 OA
ATOM     18  H2  UNL     1      34.602   4.400  20.404  1.00  0.00     0.219 HD
ENDBRANCH  12  17
ENDBRANCH   1  12
BRANCH   1  19
HETATM   19  C3  UNL     1      33.311   4.437  23.766  1.00  0.00     0.101 C 
BRANCH  19  20
HETATM   20  S1  UNL     1      33.024   5.513  25.094  1.00  0.00    -0.091 SA
BRANCH  20  21
HETATM   21  C4  UNL     1      32.829   7.204  24.957  1.00  0.00     0.160 A 
HETATM   22  N2  UNL     1      31.905   7.954  24.376  1.00  0.00    -0.319 N 
HETATM   23  C5  UNL     1      32.181   9.251  24.461  1.00  0.00     0.156 A 
ATOM     24  H2  UNL     1      31.076   7.579  23.916  1.00  0.00     0.169 HD
HETATM   25  N3  UNL     1      33.343   9.307  25.133  1.00  0.00    -0.281 N 
HETATM   26  N4  UNL     1      33.750   8.102  25.440  1.00  0.00    -0.278 N 
ATOM     27  H3  UNL     1      33.838  10.167  25.370  1.00  0.00     0.188 HD
ATOM     28  H4  UNL     1      34.602   7.869  25.951  1.00  0.00     0.189 HD
BRANCH  23  29
HETATM   29  C6  UNL     1      31.389  10.380  23.934  1.00  0.00     0.120 A 
HETATM   30  C7  UNL     1      31.882  11.568  23.495  1.00  0.00     0.043 A 
HETATM   31  C8  UNL     1      30.817  12.337  23.089  1.00  0.00     0.027 A 
HETATM   32  C9  UNL     1      29.703  11.547  23.313  1.00  0.00     0.142 A 
HETATM   33  O3  UNL     1      30.100  10.402  23.812  1.00  0.00    -0.319 OA
ENDBRANCH  23  29
ENDBRANCH  20  21
ENDBRANCH  19  20
ENDBRANCH   1  19
TORSDOF 7
ENDMDL
MODEL 4
REMARK VINA RESULT: -8.163579642      1.367      1.849
REMARK  7 active torsions:
REMARK  status: ('A' for Active; 'I' for Inactive)
REMARK    1  A    between atoms: O1_1  and  N1_3 
REMARK    2  A    between atoms: C1_5  and  O2_6 
REMARK    3  A    between atoms: C1_5  and  C2_8 
REMARK    4  A    between atoms: C2_8  and  C3_9 
REMARK    5  A    between atoms: C3_9  and  S1_10 
REMARK    6  A    between atoms: S1_10  and  C4_11 
REMARK    7  A    between atoms: C5_14  and  C6_15 
ROOT
HETATM    1  C2  UNL     1      35.740   4.372  23.496  1.00  0.00     0.043 C 
HETATM    2  C10 UNL     1      34.764   3.576  22.655  1.00  0.00     0.004 C 
HETATM    3  C11 UNL     1      35.518   2.656  21.750  1.00  0.00     0.013 C 
HETATM    4  C12 UNL     1      36.420   1.697  22.515  1.00  0.00     0.021 C 
HETATM    5  C13 UNL     1      37.375   2.450  23.381  1.00  0.00     0.013 C 
HETATM    6  C14 UNL     1      36.558   3.407  24.269  1.00  0.00     0.004 C 
HETATM    7  C15 UNL     1      35.705   2.474  25.117  1.00  0.00     0.013 C 
HETATM    8  C16 UNL     1      34.740   1.697  24.286  1.00  0.00     0.021 C 
HETATM    9  C17 UNL     1      33.890   2.665  23.530  1.00  0.00     0.013 C 
HETATM   10  C18 UNL     1      35.501   0.809  23.326  1.00  0.00     0.178 C 
HETATM   11  F1  UNL     1      36.198  -0.181  23.981  1.00  0.00    -0.249 F 
ENDROOT
BRANCH   1  12
HETATM   12  C1  UNL     1      36.569   5.169  22.555  1.00  0.00     0.145 C 
HETATM   13  N1  UNL     1      36.234   5.876  21.593  1.00  0.00    -0.250 N 
ATOM     14  H1  UNL     1      37.047   6.297  21.144  1.00  0.00     0.196 HD
BRANCH  13  15
HETATM   15  O1  UNL     1      35.114   6.236  20.987  1.00  0.00    -0.288 OA
ATOM     16  H1  UNL     1      34.659   6.036  20.177  1.00  0.00     0.244 HD
ENDBRANCH  13  15
BRANCH  12  17
HETATM   17  O2  UNL     1      37.958   5.093  22.828  1.00  0.00    -0.347 OA
ATOM     18  H2  UNL     1      38.371   4.250  22.682  1.00  0.00     0.219 HD
ENDBRANCH  12  17
ENDBRANCH   1  12
BRANCH   1  19
HETATM   19  C3  UNL     1      35.047   5.368  24.372  1.00  0.00     0.101 C 
BRANCH  19  20
HETATM   20  S1  UNL     1      33.400   5.765  24.007  1.00  0.00    -0.091 SA
BRANCH  20  21
HETATM   21  C4  UNL     1      32.746   7.342  24.040  1.00  0.00     0.160 A 
HETATM   22  N2  UNL     1      33.296   8.542  23.928  1.00  0.00    -0.319 N 
HETATM   23  C5  UNL     1      32.409   9.520  24.075  1.00  0.00     0.156 A 
ATOM     24  H2  UNL     1      34.288   8.697  23.750  1.00  0.00     0.169 HD
HETATM   25  N3  UNL     1      31.242   8.890  24.290  1.00  0.00    -0.281 N 
HETATM   26  N4  UNL     1      31.416   7.593  24.273  1.00  0.00    -0.278 N 
ATOM     27  H3  UNL     1      30.348   9.356  24.444  1.00  0.00     0.188 HD
ATOM     28  H4  UNL     1      30.689   6.890  24.409  1.00  0.00     0.189 HD
BRANCH  23  29
HETATM   29  C6  UNL     1      32.650  10.976  24.016  1.00  0.00     0.120 A 
HETATM   30  C7  UNL     1      33.864  11.586  23.981  1.00  0.00     0.043 A 
HETATM   31  C8  UNL     1      33.647  12.942  23.929  1.00  0.00     0.027 A 
HETATM   32  C9  UNL     1      32.271  13.083  23.937  1.00  0.00     0.142 A 
HETATM   33  O3  UNL     1      31.732  11.889  23.988  1.00  0.00    -0.319 OA
ENDBRANCH  23  29
ENDBRANCH  20  21
ENDBRANCH  19  20
ENDBRANCH   1  19
TORSDOF 7
ENDMDL
MODEL 5
REMARK VINA RESULT: -8.160550905      3.049      3.872
REMARK  7 active torsions:
REMARK  status: ('A' for Active; 'I' for Inactive)
REMARK    1  A    between atoms: O1_1  and  N1_3 
REMARK    2  A    between atoms: C1_5  and  O2_6 
REMARK    3  A    between atoms: C1_5  and  C2_8 
REMARK    4  A    between atoms: C2_8  and  C3_9 
REMARK    5  A    between atoms: C3_9  and  S1_10 
REMARK    6  A    between atoms: S1_10  and  C4_11 
REMARK    7  A    between atoms: C5_14  and  C6_15 
ROOT
HETATM    1  C2  UNL     1      33.861   5.193  24.963  1.00  0.00     0.043 C 
HETATM    2  C10 UNL     1      34.091   6.471  24.182  1.00  0.00     0.004 C 
HETATM    3  C11 UNL     1      35.554   6.774  24.139  1.00  0.00     0.013 C 
HETATM    4  C12 UNL     1      36.364   5.648  23.509  1.00  0.00     0.021 C 
HETATM    5  C13 UNL     1      36.134   4.364  24.237  1.00  0.00     0.013 C 
HETATM    6  C14 UNL     1      34.615   4.112  24.286  1.00  0.00     0.004 C 
HETATM    7  C15 UNL     1      34.225   3.962  22.823  1.00  0.00     0.013 C 
HETATM    8  C16 UNL     1      34.446   5.224  22.059  1.00  0.00     0.021 C 
HETATM    9  C17 UNL     1      33.661   6.312  22.716  1.00  0.00     0.013 C 
HETATM   10  C18 UNL     1      35.921   5.567  22.064  1.00  0.00     0.178 C 
HETATM   11  F1  UNL     1      36.665   4.652  21.355  1.00  0.00    -0.249 F 
ENDROOT
BRANCH   1  12
HETATM   12  C1  UNL     1      34.360   5.435  26.342  1.00  0.00     0.145 C 
HETATM   13  N1  UNL     1      34.661   4.633  27.239  1.00  0.00    -0.250 N 
ATOM     14  H1  UNL     1      34.975   5.119  28.078  1.00  0.00     0.196 HD
BRANCH  13  15
HETATM   15  O1  UNL     1      34.686   3.321  27.409  1.00  0.00    -0.288 OA
ATOM     16  H1  UNL     1      35.333   2.625  27.401  1.00  0.00     0.244 HD
ENDBRANCH  13  15
BRANCH  12  17
HETATM   17  O2  UNL     1      34.510   6.810  26.650  1.00  0.00    -0.347 OA
ATOM     18  H2  UNL     1      35.361   7.193  26.470  1.00  0.00     0.219 HD
ENDBRANCH  12  17
ENDBRANCH   1  12
BRANCH   1  19
HETATM   19  C3  UNL     1      32.406   4.876  25.107  1.00  0.00     0.101 C 
BRANCH  19  20
HETATM   20  S1  UNL     1      31.440   5.915  26.101  1.00  0.00    -0.091 SA
BRANCH  20  21
HETATM   21  C4  UNL     1      31.168   7.575  25.804  1.00  0.00     0.160 A 
HETATM   22  N2  UNL     1      30.971   8.263  24.690  1.00  0.00    -0.319 N 
HETATM   23  C5  UNL     1      30.859   9.567  24.916  1.00  0.00     0.156 A 
ATOM     24  H2  UNL     1      30.911   7.841  23.763  1.00  0.00     0.169 HD
HETATM   25  N3  UNL     1      30.995   9.694  26.247  1.00  0.00    -0.281 N 
HETATM   26  N4  UNL     1      31.179   8.522  26.798  1.00  0.00    -0.278 N 
ATOM     27  H3  UNL     1      30.959  10.578  26.755  1.00  0.00     0.188 HD
ATOM     28  H4  UNL     1      31.308   8.342  27.794  1.00  0.00     0.189 HD
BRANCH  23  29
HETATM   29  C6  UNL     1      30.637  10.642  23.926  1.00  0.00     0.120 A 
HETATM   30  C7  UNL     1      31.550  11.566  23.530  1.00  0.00     0.043 A 
HETATM   31  C8  UNL     1      30.944  12.378  22.600  1.00  0.00     0.027 A 
HETATM   32  C9  UNL     1      29.657  11.884  22.482  1.00  0.00     0.142 A 
HETATM   33  O3  UNL     1      29.531  10.858  23.289  1.00  0.00    -0.319 OA
ENDBRANCH  23  29
ENDBRANCH  20  21
ENDBRANCH  19  20
ENDBRANCH   1  19
TORSDOF 7
ENDMDL
