MODEL 1
REMARK VINA RESULT: -6.825444719      0.000      0.000
REMARK  7 active torsions:
REMARK  status: ('A' for Active; 'I' for Inactive)
REMARK    1  A    between atoms: O1_2  and  C2_3 
REMARK    2  A    between atoms: C2_3  and  C3_5 
REMARK    3  A    between atoms: C3_5  and  C4_6 
REMARK    4  A    between atoms: C3_5  and  N1_10 
REMARK    5  A    between atoms: C4_6  and  C5_7 
REMARK    6  A    between atoms: C5_7  and  S1_8 
REMARK       I    between atoms: N1_10  and  C7_12 
REMARK       I    between atoms: C7_12  and  N2_14 
REMARK    7  A    between atoms: N2_14  and  C9_16 
REMARK       I    between atoms: N3_19  and  C12_20 
ROOT
HETATM    1  C9  UNL     1       6.093   5.221  19.715  1.00  0.00     0.107 C 
HETATM    2  C10 UNL     1       5.604   5.878  18.470  1.00  0.00     0.046 C 
HETATM    3  C11 UNL     1       6.628   6.000  17.381  1.00  0.00     0.129 C 
HETATM    4  N3  UNL     1       7.111   4.652  17.110  1.00  0.00    -0.334 N 
HETATM    5  C12 UNL     1       7.191   4.242  15.771  1.00  0.00     0.216 C 
HETATM    6  C13 UNL     1       7.670   2.893  15.414  1.00  0.00     0.117 C 
HETATM    7  O4  UNL     1       6.836   5.073  14.865  1.00  0.00    -0.274 OA
HETATM    8  C14 UNL     1       7.495   3.758  18.161  1.00  0.00     0.210 C 
HETATM    9  C15 UNL     1       8.917   3.449  17.996  1.00  0.00     0.086 C 
HETATM   10  N4  UNL     1      10.065   3.204  17.888  1.00  0.00    -0.195 NA
HETATM   11  C16 UNL     1       7.243   4.275  19.542  1.00  0.00     0.118 C 
HETATM   12 BR1  UNL     1       7.104   2.749  20.734  1.00  0.00    -0.086 Br
ENDROOT
BRANCH   1  13
HETATM   13  N2  UNL     1       6.298   6.147  20.805  1.00  0.00    -0.333 N 
HETATM   14  C7  UNL     1       7.461   6.944  20.900  1.00  0.00     0.319 C 
HETATM   15  N1  UNL     1       7.666   7.854  21.969  1.00  0.00    -0.329 N 
HETATM   16  O3  UNL     1       8.388   6.889  20.032  1.00  0.00    -0.247 OA
ATOM     17  H1  UNL     1       6.951   7.938  22.691  1.00  0.00     0.165 HD
HETATM   18  C8  UNL     1       5.314   6.291  21.844  1.00  0.00     0.155 C 
BRANCH  15  19
HETATM   19  C3  UNL     1       8.863   8.668  22.064  1.00  0.00     0.186 C 
BRANCH  19  20
HETATM   20  C2  UNL     1       8.604  10.006  21.415  1.00  0.00     0.281 C 
HETATM   21  O2  UNL     1       8.089  10.936  22.075  1.00  0.00    -0.263 OA
BRANCH  20  22
HETATM   22  O1  UNL     1       8.927  10.223  20.093  1.00  0.00    -0.325 OA
HETATM   23  C1  UNL     1       7.976  10.301  19.048  1.00  0.00     0.213 C 
ENDBRANCH  20  22
ENDBRANCH  19  20
BRANCH  19  24
HETATM   24  C4  UNL     1       9.131   8.917  23.528  1.00  0.00     0.045 C 
BRANCH  24  25
HETATM   25  C5  UNL     1      10.573   9.196  23.777  1.00  0.00     0.076 C 
BRANCH  25  26
HETATM   26  S1  UNL     1      10.952   8.839  25.514  1.00  0.00    -0.173 SA
HETATM   27  C6  UNL     1       9.456   8.111  26.260  1.00  0.00     0.089 C 
ENDBRANCH  25  26
ENDBRANCH  24  25
ENDBRANCH  19  24
ENDBRANCH  15  19
ENDBRANCH   1  13
TORSDOF 7
ENDMDL
MODEL 2
REMARK VINA RESULT: -6.584071002      1.153      1.445
REMARK  7 active torsions:
REMARK  status: ('A' for Active; 'I' for Inactive)
REMARK    1  A    between atoms: O1_2  and  C2_3 
REMARK    2  A    between atoms: C2_3  and  C3_5 
REMARK    3  A    between atoms: C3_5  and  C4_6 
REMARK    4  A    between atoms: C3_5  and  N1_10 
REMARK    5  A    between atoms: C4_6  and  C5_7 
REMARK    6  A    between atoms: C5_7  and  S1_8 
REMARK       I    between atoms: N1_10  and  C7_12 
REMARK       I    between atoms: C7_12  and  N2_14 
REMARK    7  A    between atoms: N2_14  and  C9_16 
REMARK       I    between atoms: N3_19  and  C12_20 
ROOT
HETATM    1  C9  UNL     1       5.876   4.741  19.665  1.00  0.00     0.107 C 
HETATM    2  C10 UNL     1       5.347   5.099  18.319  1.00  0.00     0.046 C 
HETATM    3  C11 UNL     1       6.316   4.906  17.191  1.00  0.00     0.129 C 
HETATM    4  N3  UNL     1       6.739   3.512  17.237  1.00  0.00    -0.334 N 
HETATM    5  C12 UNL     1       6.735   2.787  16.037  1.00  0.00     0.216 C 
HETATM    6  C13 UNL     1       7.149   1.371  16.001  1.00  0.00     0.117 C 
HETATM    7  O4  UNL     1       6.363   3.389  14.971  1.00  0.00    -0.274 OA
HETATM    8  C14 UNL     1       7.145   2.882  18.458  1.00  0.00     0.210 C 
HETATM    9  C15 UNL     1       8.545   2.478  18.314  1.00  0.00     0.086 C 
HETATM   10  N4  UNL     1       9.677   2.162  18.222  1.00  0.00    -0.195 NA
HETATM   11  C16 UNL     1       6.983   3.730  19.680  1.00  0.00     0.118 C 
HETATM   12 BR1  UNL     1       6.853   2.546  21.213  1.00  0.00    -0.086 Br
ENDROOT
BRANCH   1  13
HETATM   13  N2  UNL     1       6.169   5.893  20.486  1.00  0.00    -0.333 N 
HETATM   14  C7  UNL     1       7.368   6.627  20.344  1.00  0.00     0.319 C 
HETATM   15  N1  UNL     1       7.659   7.759  21.149  1.00  0.00    -0.329 N 
HETATM   16  O3  UNL     1       8.253   6.314  19.487  1.00  0.00    -0.247 OA
ATOM     17  H1  UNL     1       6.981   8.054  21.852  1.00  0.00     0.165 HD
HETATM   18  C8  UNL     1       5.239   6.338  21.489  1.00  0.00     0.155 C 
BRANCH  15  19
HETATM   19  C3  UNL     1       8.893   8.508  21.002  1.00  0.00     0.186 C 
BRANCH  19  20
HETATM   20  C2  UNL     1       8.633   9.725  20.148  1.00  0.00     0.281 C 
HETATM   21  O2  UNL     1       8.688   9.642  18.901  1.00  0.00    -0.263 OA
BRANCH  20  22
HETATM   22  O1  UNL     1       8.334  10.940  20.725  1.00  0.00    -0.325 OA
HETATM   23  C1  UNL     1       7.947  12.089  19.996  1.00  0.00     0.213 C 
ENDBRANCH  20  22
ENDBRANCH  19  20
BRANCH  19  24
HETATM   24  C4  UNL     1       9.300   8.990  22.372  1.00  0.00     0.045 C 
BRANCH  24  25
HETATM   25  C5  UNL     1       8.385   8.471  23.427  1.00  0.00     0.076 C 
BRANCH  25  26
HETATM   26  S1  UNL     1       9.207   8.598  25.038  1.00  0.00    -0.173 SA
HETATM   27  C6  UNL     1      10.964   8.970  24.725  1.00  0.00     0.089 C 
ENDBRANCH  25  26
ENDBRANCH  24  25
ENDBRANCH  19  24
ENDBRANCH  15  19
ENDBRANCH   1  13
TORSDOF 7
ENDMDL
MODEL 3
REMARK VINA RESULT: -6.535508846      2.909      4.267
REMARK  7 active torsions:
REMARK  status: ('A' for Active; 'I' for Inactive)
REMARK    1  A    between atoms: O1_2  and  C2_3 
REMARK    2  A    between atoms: C2_3  and  C3_5 
REMARK    3  A    between atoms: C3_5  and  C4_6 
REMARK    4  A    between atoms: C3_5  and  N1_10 
REMARK    5  A    between atoms: C4_6  and  C5_7 
REMARK    6  A    between atoms: C5_7  and  S1_8 
REMARK       I    between atoms: N1_10  and  C7_12 
REMARK       I    between atoms: C7_12  and  N2_14 
REMARK    7  A    between atoms: N2_14  and  C9_16 
REMARK       I    between atoms: N3_19  and  C12_20 
ROOT
HETATM    1  C9  UNL     1       7.423   7.059  19.371  1.00  0.00     0.107 C 
HETATM    2  C10 UNL     1       8.256   5.889  18.977  1.00  0.00     0.046 C 
HETATM    3  C11 UNL     1       7.951   4.622  19.717  1.00  0.00     0.129 C 
HETATM    4  N3  UNL     1       6.533   4.351  19.514  1.00  0.00    -0.334 N 
HETATM    5  C12 UNL     1       6.162   3.050  19.146  1.00  0.00     0.216 C 
HETATM    6  C13 UNL     1       4.747   2.696  18.922  1.00  0.00     0.117 C 
HETATM    7  O4  UNL     1       7.086   2.175  19.009  1.00  0.00    -0.274 OA
HETATM    8  C14 UNL     1       5.536   5.367  19.677  1.00  0.00     0.210 C 
HETATM    9  C15 UNL     1       4.648   4.957  20.767  1.00  0.00     0.086 C 
HETATM   10  N4  UNL     1       3.934   4.651  21.654  1.00  0.00    -0.195 NA
HETATM   11  C16 UNL     1       6.078   6.734  19.948  1.00  0.00     0.118 C 
HETATM   12 BR1  UNL     1       4.734   8.026  19.407  1.00  0.00    -0.086 Br
ENDROOT
BRANCH   1  13
HETATM   13  N2  UNL     1       8.144   8.030  20.163  1.00  0.00    -0.333 N 
HETATM   14  C7  UNL     1       8.323   7.874  21.556  1.00  0.00     0.319 C 
HETATM   15  N1  UNL     1       9.029   8.825  22.337  1.00  0.00    -0.329 N 
HETATM   16  O3  UNL     1       7.861   6.872  22.187  1.00  0.00    -0.247 OA
ATOM     17  H1  UNL     1       9.423   9.647  21.878  1.00  0.00     0.165 HD
HETATM   18  C8  UNL     1       8.709   9.203  19.553  1.00  0.00     0.155 C 
BRANCH  15  19
HETATM   19  C3  UNL     1       9.209   8.662  23.766  1.00  0.00     0.186 C 
BRANCH  19  20
HETATM   20  C2  UNL     1      10.550   9.229  24.164  1.00  0.00     0.281 C 
HETATM   21  O2  UNL     1      11.323   9.687  23.293  1.00  0.00    -0.263 OA
BRANCH  20  22
HETATM   22  O1  UNL     1      10.943   9.250  25.485  1.00  0.00    -0.325 OA
HETATM   23  C1  UNL     1      11.020   8.102  26.307  1.00  0.00     0.213 C 
ENDBRANCH  20  22
ENDBRANCH  19  20
BRANCH  19  24
HETATM   24  C4  UNL     1       8.146   9.481  24.457  1.00  0.00     0.045 C 
BRANCH  24  25
HETATM   25  C5  UNL     1       7.014   8.627  24.916  1.00  0.00     0.076 C 
BRANCH  25  26
HETATM   26  S1  UNL     1       5.484   9.200  24.129  1.00  0.00    -0.173 SA
HETATM   27  C6  UNL     1       4.628   7.732  23.468  1.00  0.00     0.089 C 
ENDBRANCH  25  26
ENDBRANCH  24  25
ENDBRANCH  19  24
ENDBRANCH  15  19
ENDBRANCH   1  13
TORSDOF 7
ENDMDL
MODEL 4
REMARK VINA RESULT: -6.459436091      1.988      2.594
REMARK  7 active torsions:
REMARK  status: ('A' for Active; 'I' for Inactive)
REMARK    1  A    between atoms: O1_2  and  C2_3 
REMARK    2  A    between atoms: C2_3  and  C3_5 
REMARK    3  A    between atoms: C3_5  and  C4_6 
REMARK    4  A    between atoms: C3_5  and  N1_10 
REMARK    5  A    between atoms: C4_6  and  C5_7 
REMARK    6  A    between atoms: C5_7  and  S1_8 
REMARK       I    between atoms: N1_10  and  C7_12 
REMARK       I    between atoms: C7_12  and  N2_14 
REMARK    7  A    between atoms: N2_14  and  C9_16 
REMARK       I    between atoms: N3_19  and  C12_20 
ROOT
HETATM    1  C9  UNL     1       7.633   5.838  18.657  1.00  0.00     0.107 C 
HETATM    2  C10 UNL     1       8.643   4.743  18.637  1.00  0.00     0.046 C 
HETATM    3  C11 UNL     1       8.074   3.366  18.464  1.00  0.00     0.129 C 
HETATM    4  N3  UNL     1       7.296   3.388  17.232  1.00  0.00    -0.334 N 
HETATM    5  C12 UNL     1       7.487   2.341  16.319  1.00  0.00     0.216 C 
HETATM    6  C13 UNL     1       6.738   2.291  15.049  1.00  0.00     0.117 C 
HETATM    7  O4  UNL     1       8.332   1.428  16.618  1.00  0.00    -0.274 OA
HETATM    8  C14 UNL     1       6.364   4.436  16.942  1.00  0.00     0.210 C 
HETATM    9  C15 UNL     1       5.030   3.839  16.842  1.00  0.00     0.086 C 
HETATM   10  N4  UNL     1       3.947   3.378  16.775  1.00  0.00    -0.195 NA
HETATM   11  C16 UNL     1       6.349   5.551  17.940  1.00  0.00     0.118 C 
HETATM   12 BR1  UNL     1       5.651   7.132  17.056  1.00  0.00    -0.086 Br
ENDROOT
BRANCH   1  13
HETATM   13  N2  UNL     1       7.418   6.390  19.976  1.00  0.00    -0.333 N 
HETATM   14  C7  UNL     1       8.157   7.497  20.452  1.00  0.00     0.319 C 
HETATM   15  N1  UNL     1       7.949   8.041  21.746  1.00  0.00    -0.329 N 
HETATM   16  O3  UNL     1       9.049   8.066  19.748  1.00  0.00    -0.247 OA
ATOM     17  H1  UNL     1       7.242   7.623  22.351  1.00  0.00     0.165 HD
HETATM   18  C8  UNL     1       6.434   5.825  20.859  1.00  0.00     0.155 C 
BRANCH  15  19
HETATM   19  C3  UNL     1       8.711   9.176  22.232  1.00  0.00     0.186 C 
BRANCH  19  20
HETATM   20  C2  UNL     1       7.812  10.386  22.292  1.00  0.00     0.281 C 
HETATM   21  O2  UNL     1       6.632  10.274  22.694  1.00  0.00    -0.263 OA
BRANCH  20  22
HETATM   22  O1  UNL     1       8.273  11.627  21.909  1.00  0.00    -0.325 OA
HETATM   23  C1  UNL     1       7.643  12.441  20.938  1.00  0.00     0.213 C 
ENDBRANCH  20  22
ENDBRANCH  19  20
BRANCH  19  24
HETATM   24  C4  UNL     1       9.148   8.862  23.642  1.00  0.00     0.045 C 
BRANCH  24  25
HETATM   25  C5  UNL     1      10.569   9.248  23.870  1.00  0.00     0.076 C 
BRANCH  25  26
HETATM   26  S1  UNL     1      11.019   8.858  25.582  1.00  0.00    -0.173 SA
HETATM   27  C6  UNL     1       9.578   8.051  26.354  1.00  0.00     0.089 C 
ENDBRANCH  25  26
ENDBRANCH  24  25
ENDBRANCH  19  24
ENDBRANCH  15  19
ENDBRANCH   1  13
TORSDOF 7
ENDMDL
MODEL 5
REMARK VINA RESULT: -6.330963240      2.675      3.510
REMARK  7 active torsions:
REMARK  status: ('A' for Active; 'I' for Inactive)
REMARK    1  A    between atoms: O1_2  and  C2_3 
REMARK    2  A    between atoms: C2_3  and  C3_5 
REMARK    3  A    between atoms: C3_5  and  C4_6 
REMARK    4  A    between atoms: C3_5  and  N1_10 
REMARK    5  A    between atoms: C4_6  and  C5_7 
REMARK    6  A    between atoms: C5_7  and  S1_8 
REMARK       I    between atoms: N1_10  and  C7_12 
REMARK       I    between atoms: C7_12  and  N2_14 
REMARK    7  A    between atoms: N2_14  and  C9_16 
REMARK       I    between atoms: N3_19  and  C12_20 
ROOT
HETATM    1  C9  UNL     1       6.510   4.879  19.362  1.00  0.00     0.107 C 
HETATM    2  C10 UNL     1       6.109   5.240  17.973  1.00  0.00     0.046 C 
HETATM    3  C11 UNL     1       7.058   4.782  16.906  1.00  0.00     0.129 C 
HETATM    4  N3  UNL     1       7.191   3.339  17.057  1.00  0.00    -0.334 N 
HETATM    5  C12 UNL     1       7.083   2.547  15.905  1.00  0.00     0.216 C 
HETATM    6  C13 UNL     1       7.207   1.078  15.975  1.00  0.00     0.117 C 
HETATM    7  O4  UNL     1       6.874   3.135  14.788  1.00  0.00    -0.274 OA
HETATM    8  C14 UNL     1       7.422   2.728  18.332  1.00  0.00     0.210 C 
HETATM    9  C15 UNL     1       8.718   2.046  18.279  1.00  0.00     0.086 C 
HETATM   10  N4  UNL     1       9.766   1.508  18.259  1.00  0.00    -0.195 NA
HETATM   11  C16 UNL     1       7.392   3.674  19.491  1.00  0.00     0.118 C 
HETATM   12 BR1  UNL     1       6.977   2.648  21.086  1.00  0.00    -0.086 Br
ENDROOT
BRANCH   1  13
HETATM   13  N2  UNL     1       7.000   6.005  20.124  1.00  0.00    -0.333 N 
HETATM   14  C7  UNL     1       6.309   6.499  21.255  1.00  0.00     0.319 C 
HETATM   15  N1  UNL     1       6.786   7.605  22.005  1.00  0.00    -0.329 N 
HETATM   16  O3  UNL     1       5.223   5.980  21.661  1.00  0.00    -0.247 OA
ATOM     17  H1  UNL     1       7.656   8.057  21.722  1.00  0.00     0.165 HD
HETATM   18  C8  UNL     1       8.220   6.670  19.754  1.00  0.00     0.155 C 
BRANCH  15  19
HETATM   19  C3  UNL     1       6.074   8.110  23.163  1.00  0.00     0.186 C 
BRANCH  19  20
HETATM   20  C2  UNL     1       7.072   8.531  24.214  1.00  0.00     0.281 C 
HETATM   21  O2  UNL     1       6.911   9.601  24.842  1.00  0.00    -0.263 OA
BRANCH  20  22
HETATM   22  O1  UNL     1       8.170   7.748  24.496  1.00  0.00    -0.325 OA
HETATM   23  C1  UNL     1       9.180   8.105  25.421  1.00  0.00     0.213 C 
ENDBRANCH  20  22
ENDBRANCH  19  20
BRANCH  19  24
HETATM   24  C4  UNL     1       5.318   9.343  22.732  1.00  0.00     0.045 C 
BRANCH  24  25
HETATM   25  C5  UNL     1       3.853   9.086  22.657  1.00  0.00     0.076 C 
BRANCH  25  26
HETATM   26  S1  UNL     1       3.307   8.321  24.208  1.00  0.00    -0.173 SA
HETATM   27  C6  UNL     1       3.322   9.619  25.489  1.00  0.00     0.089 C 
ENDBRANCH  25  26
ENDBRANCH  24  25
ENDBRANCH  19  24
ENDBRANCH  15  19
ENDBRANCH   1  13
TORSDOF 7
ENDMDL
