MODEL 1
REMARK VINA RESULT: -8.519322961      0.000      0.000
REMARK  7 active torsions:
REMARK  status: ('A' for Active; 'I' for Inactive)
REMARK    1  A    between atoms: C3_3  and  C4_4 
REMARK    2  A    between atoms: C4_4  and  C5_5 
REMARK    3  A    between atoms: C8_8  and  C9_9 
REMARK       I    between atoms: C9_9  and  N1_11 
REMARK    4  A    between atoms: N1_11  and  C10_13 
REMARK    5  A    between atoms: C10_13  and  C11_14 
REMARK    6  A    between atoms: C16_22  and  O2_23 
REMARK    7  A    between atoms: N5_28  and  C19_29 
ROOT
HETATM    1  C5  UNL     1       6.424  10.503  20.534  1.00  0.00    -0.002 A 
HETATM    2  C6  UNL     1       6.129  11.805  20.197  1.00  0.00     0.015 A 
HETATM    3  C7  UNL     1       6.156  12.117  18.832  1.00  0.00     0.018 A 
HETATM    4  C8  UNL     1       6.462  11.176  17.876  1.00  0.00     0.034 A 
HETATM    5  C15 UNL     1       6.750   9.881  18.274  1.00  0.00     0.054 A 
HETATM    6  C16 UNL     1       6.730   9.552  19.595  1.00  0.00     0.079 A 
ENDROOT
BRANCH   1   7
HETATM    7  C4  UNL     1       6.403  10.150  21.941  1.00  0.00     0.029 C 
BRANCH   7   8
HETATM    8  C3  UNL     1       7.510  10.199  22.663  1.00  0.00     0.010 A 
HETATM    9  C2  UNL     1       7.972   9.208  23.532  1.00  0.00     0.059 A 
HETATM   10  C1  UNL     1       7.360   8.075  23.753  1.00  0.00     0.046 C 
HETATM   11  N5  UNL     1       9.131   9.619  24.086  1.00  0.00    -0.256 N 
HETATM   12  N4  UNL     1       9.396  10.811  23.596  1.00  0.00    -0.304 N 
HETATM   13  C18 UNL     1       8.452  11.201  22.738  1.00  0.00     0.121 A 
ATOM     14  H4  UNL     1      10.216  11.366  23.842  1.00  0.00     0.186 HD
BRANCH  11  15
HETATM   15  C19 UNL     1       9.905   8.882  25.022  1.00  0.00     0.072 A 
HETATM   16  C20 UNL     1       9.288   8.287  26.103  1.00  0.00     0.037 A 
HETATM   17  C21 UNL     1      10.006   7.561  27.040  1.00  0.00     0.064 A 
HETATM   18  C22 UNL     1      11.361   7.442  26.872  1.00  0.00     0.190 A 
HETATM   19  F1  UNL     1      12.075   6.737  27.778  1.00  0.00    -0.186 F 
HETATM   20  N6  UNL     1      11.976   8.014  25.829  1.00  0.00    -0.336 N 
HETATM   21  C23 UNL     1      13.408   7.859  25.695  1.00  0.00     0.158 C 
HETATM   22  C24 UNL     1      11.259   8.724  24.918  1.00  0.00     0.124 A 
ENDBRANCH  11  15
ENDBRANCH   7   8
ENDBRANCH   1   7
BRANCH   6  23
HETATM   23  O2  UNL     1       7.012   8.270  20.036  1.00  0.00    -0.355 OA
HETATM   24  C17 UNL     1       8.311   7.770  19.902  1.00  0.00     0.210 C 
ENDBRANCH   6  23
BRANCH   4  25
HETATM   25  C9  UNL     1       6.484  11.543  16.479  1.00  0.00     0.252 C 
HETATM   26  O1  UNL     1       5.503  12.162  15.939  1.00  0.00    -0.268 OA
HETATM   27  N1  UNL     1       7.582  11.235  15.654  1.00  0.00    -0.351 N 
ATOM     28  H1  UNL     1       8.377  10.741  16.057  1.00  0.00     0.163 HD
BRANCH  27  29
HETATM   29  C10 UNL     1       7.622  11.600  14.240  1.00  0.00     0.181 C 
BRANCH  29  30
HETATM   30  C11 UNL     1       7.488  10.383  13.432  1.00  0.00     0.043 A 
HETATM   31  C12 UNL     1       6.424  10.076  12.601  1.00  0.00     0.118 A 
HETATM   32  N2  UNL     1       6.639   8.880  12.018  1.00  0.00    -0.355 N 
HETATM   33  C13 UNL     1       5.805   8.178  11.092  1.00  0.00     0.156 C 
HETATM   34  C14 UNL     1       7.817   8.453  12.481  1.00  0.00     0.182 A 
HETATM   35  N3  UNL     1       8.338   9.358  13.337  1.00  0.00    -0.353 N 
ATOM     36  H3  UNL     1       9.228   9.273  13.827  1.00  0.00     0.166 HD
ENDBRANCH  29  30
ENDBRANCH  27  29
ENDBRANCH   4  25
TORSDOF 7
ENDMDL
MODEL 2
REMARK VINA RESULT: -8.396310496      5.381     10.229
REMARK  7 active torsions:
REMARK  status: ('A' for Active; 'I' for Inactive)
REMARK    1  A    between atoms: C3_3  and  C4_4 
REMARK    2  A    between atoms: C4_4  and  C5_5 
REMARK    3  A    between atoms: C8_8  and  C9_9 
REMARK       I    between atoms: C9_9  and  N1_11 
REMARK    4  A    between atoms: N1_11  and  C10_13 
REMARK    5  A    between atoms: C10_13  and  C11_14 
REMARK    6  A    between atoms: C16_22  and  O2_23 
REMARK    7  A    between atoms: N5_28  and  C19_29 
ROOT
HETATM    1  C5  UNL     1       6.725   6.213  19.668  1.00  0.00    -0.002 A 
HETATM    2  C6  UNL     1       7.869   6.914  19.360  1.00  0.00     0.015 A 
HETATM    3  C7  UNL     1       8.408   7.707  20.382  1.00  0.00     0.018 A 
HETATM    4  C8  UNL     1       7.827   7.784  21.627  1.00  0.00     0.034 A 
HETATM    5  C15 UNL     1       6.676   7.055  21.879  1.00  0.00     0.054 A 
HETATM    6  C16 UNL     1       6.133   6.277  20.903  1.00  0.00     0.079 A 
ENDROOT
BRANCH   1   7
HETATM    7  C4  UNL     1       6.145   5.382  18.629  1.00  0.00     0.029 C 
BRANCH   7   8
HETATM    8  C3  UNL     1       6.917   4.644  17.850  1.00  0.00     0.010 A 
HETATM    9  C2  UNL     1       7.557   3.456  18.211  1.00  0.00     0.059 A 
HETATM   10  C1  UNL     1       7.475   2.902  19.391  1.00  0.00     0.046 C 
HETATM   11  N5  UNL     1       8.252   2.995  17.151  1.00  0.00    -0.256 N 
HETATM   12  N4  UNL     1       8.068   3.847  16.164  1.00  0.00    -0.304 N 
HETATM   13  C18 UNL     1       7.274   4.852  16.536  1.00  0.00     0.121 A 
ATOM     14  H4  UNL     1       8.480   3.751  15.236  1.00  0.00     0.186 HD
BRANCH  11  15
HETATM   15  C19 UNL     1       9.033   1.809  17.128  1.00  0.00     0.072 A 
HETATM   16  C20 UNL     1      10.205   1.746  17.854  1.00  0.00     0.037 A 
HETATM   17  C21 UNL     1      10.996   0.608  17.859  1.00  0.00     0.064 A 
HETATM   18  C22 UNL     1      10.588  -0.471  17.118  1.00  0.00     0.190 A 
HETATM   19  F1  UNL     1      11.349  -1.588  17.113  1.00  0.00    -0.186 F 
HETATM   20  N6  UNL     1       9.454  -0.426  16.407  1.00  0.00    -0.336 N 
HETATM   21  C23 UNL     1       9.066  -1.592  15.643  1.00  0.00     0.158 C 
HETATM   22  C24 UNL     1       8.688   0.696  16.412  1.00  0.00     0.124 A 
ENDBRANCH  11  15
ENDBRANCH   7   8
ENDBRANCH   1   7
BRANCH   6  23
HETATM   23  O2  UNL     1       4.985   5.533  21.112  1.00  0.00    -0.355 OA
HETATM   24  C17 UNL     1       4.280   5.684  22.309  1.00  0.00     0.210 C 
ENDBRANCH   6  23
BRANCH   4  25
HETATM   25  C9  UNL     1       8.413   8.619  22.650  1.00  0.00     0.252 C 
HETATM   26  O1  UNL     1       9.132   9.633  22.348  1.00  0.00    -0.268 OA
HETATM   27  N1  UNL     1       8.220   8.353  24.018  1.00  0.00    -0.351 N 
ATOM     28  H1  UNL     1       7.652   7.550  24.288  1.00  0.00     0.163 HD
BRANCH  27  29
HETATM   29  C10 UNL     1       8.803   9.188  25.065  1.00  0.00     0.181 C 
BRANCH  29  30
HETATM   30  C11 UNL     1       9.904   8.454  25.699  1.00  0.00     0.043 A 
HETATM   31  C12 UNL     1      11.251   8.614  25.419  1.00  0.00     0.118 A 
HETATM   32  N2  UNL     1      11.972   7.776  26.190  1.00  0.00    -0.355 N 
HETATM   33  C13 UNL     1      13.392   7.606  26.232  1.00  0.00     0.156 C 
HETATM   34  C14 UNL     1      11.088   7.107  26.934  1.00  0.00     0.182 A 
HETATM   35  N3  UNL     1       9.833   7.513  26.643  1.00  0.00    -0.353 N 
ATOM     36  H3  UNL     1       8.977   7.160  27.070  1.00  0.00     0.166 HD
ENDBRANCH  29  30
ENDBRANCH  27  29
ENDBRANCH   4  25
TORSDOF 7
ENDMDL
MODEL 3
REMARK VINA RESULT: -8.313725935      4.719     10.015
REMARK  7 active torsions:
REMARK  status: ('A' for Active; 'I' for Inactive)
REMARK    1  A    between atoms: C3_3  and  C4_4 
REMARK    2  A    between atoms: C4_4  and  C5_5 
REMARK    3  A    between atoms: C8_8  and  C9_9 
REMARK       I    between atoms: C9_9  and  N1_11 
REMARK    4  A    between atoms: N1_11  and  C10_13 
REMARK    5  A    between atoms: C10_13  and  C11_14 
REMARK    6  A    between atoms: C16_22  and  O2_23 
REMARK    7  A    between atoms: N5_28  and  C19_29 
ROOT
HETATM    1  C5  UNL     1       5.627   7.238  20.794  1.00  0.00    -0.002 A 
HETATM    2  C6  UNL     1       6.762   8.017  20.770  1.00  0.00     0.015 A 
HETATM    3  C7  UNL     1       7.229   8.475  22.009  1.00  0.00     0.018 A 
HETATM    4  C8  UNL     1       6.590   8.167  23.188  1.00  0.00     0.034 A 
HETATM    5  C15 UNL     1       5.452   7.378  23.151  1.00  0.00     0.054 A 
HETATM    6  C16 UNL     1       4.978   6.920  21.959  1.00  0.00     0.079 A 
ENDROOT
BRANCH   1   7
HETATM    7  C4  UNL     1       5.120   6.747  19.526  1.00  0.00     0.029 C 
BRANCH   7   8
HETATM    8  C3  UNL     1       5.931   6.167  18.658  1.00  0.00     0.010 A 
HETATM    9  C2  UNL     1       6.534   4.915  18.803  1.00  0.00     0.059 A 
HETATM   10  C1  UNL     1       6.374   4.133  19.837  1.00  0.00     0.046 C 
HETATM   11  N5  UNL     1       7.290   4.666  17.713  1.00  0.00    -0.256 N 
HETATM   12  N4  UNL     1       7.176   5.705  16.914  1.00  0.00    -0.304 N 
HETATM   13  C18 UNL     1       6.371   6.632  17.438  1.00  0.00     0.121 A 
ATOM     14  H4  UNL     1       7.643   5.792  16.012  1.00  0.00     0.186 HD
BRANCH  11  15
HETATM   15  C19 UNL     1       8.058   3.492  17.492  1.00  0.00     0.072 A 
HETATM   16  C20 UNL     1       9.338   3.405  18.000  1.00  0.00     0.037 A 
HETATM   17  C21 UNL     1      10.120   2.278  17.807  1.00  0.00     0.064 A 
HETATM   18  C22 UNL     1       9.593   1.234  17.092  1.00  0.00     0.190 A 
HETATM   19  F1  UNL     1      10.345   0.128  16.895  1.00  0.00    -0.186 F 
HETATM   20  N6  UNL     1       8.353   1.302  16.592  1.00  0.00    -0.336 N 
HETATM   21  C23 UNL     1       7.841   0.174  15.845  1.00  0.00     0.158 C 
HETATM   22  C24 UNL     1       7.597   2.414  16.789  1.00  0.00     0.124 A 
ENDBRANCH  11  15
ENDBRANCH   7   8
ENDBRANCH   1   7
BRANCH   6  23
HETATM   23  O2  UNL     1       3.844   6.130  21.876  1.00  0.00    -0.355 OA
HETATM   24  C17 UNL     1       3.839   4.873  22.489  1.00  0.00     0.210 C 
ENDBRANCH   6  23
BRANCH   4  25
HETATM   25  C9  UNL     1       7.103   8.666  24.442  1.00  0.00     0.252 C 
HETATM   26  O1  UNL     1       6.570   9.673  25.024  1.00  0.00    -0.268 OA
HETATM   27  N1  UNL     1       8.209   8.069  25.076  1.00  0.00    -0.351 N 
ATOM     28  H1  UNL     1       8.655   7.266  24.634  1.00  0.00     0.163 HD
BRANCH  27  29
HETATM   29  C10 UNL     1       8.740   8.560  26.345  1.00  0.00     0.181 C 
BRANCH  29  30
HETATM   30  C11 UNL     1      10.107   8.055  26.515  1.00  0.00     0.043 A 
HETATM   31  C12 UNL     1      11.200   8.402  25.739  1.00  0.00     0.118 A 
HETATM   32  N2  UNL     1      12.291   7.746  26.181  1.00  0.00    -0.355 N 
HETATM   33  C13 UNL     1      13.628   7.803  25.677  1.00  0.00     0.156 C 
HETATM   34  C14 UNL     1      11.881   7.005  27.213  1.00  0.00     0.182 A 
HETATM   35  N3  UNL     1      10.559   7.188  27.422  1.00  0.00    -0.353 N 
ATOM     36  H3  UNL     1      10.002   6.739  28.149  1.00  0.00     0.166 HD
ENDBRANCH  29  30
ENDBRANCH  27  29
ENDBRANCH   4  25
TORSDOF 7
ENDMDL
MODEL 4
REMARK VINA RESULT: -8.186689106      3.638      4.637
REMARK  7 active torsions:
REMARK  status: ('A' for Active; 'I' for Inactive)
REMARK    1  A    between atoms: C3_3  and  C4_4 
REMARK    2  A    between atoms: C4_4  and  C5_5 
REMARK    3  A    between atoms: C8_8  and  C9_9 
REMARK       I    between atoms: C9_9  and  N1_11 
REMARK    4  A    between atoms: N1_11  and  C10_13 
REMARK    5  A    between atoms: C10_13  and  C11_14 
REMARK    6  A    between atoms: C16_22  and  O2_23 
REMARK    7  A    between atoms: N5_28  and  C19_29 
ROOT
HETATM    1  C5  UNL     1       6.220   8.868  20.679  1.00  0.00    -0.002 A 
HETATM    2  C6  UNL     1       7.196   9.014  19.719  1.00  0.00     0.015 A 
HETATM    3  C7  UNL     1       7.176   8.092  18.665  1.00  0.00     0.018 A 
HETATM    4  C8  UNL     1       6.234   7.094  18.588  1.00  0.00     0.034 A 
HETATM    5  C15 UNL     1       5.274   6.995  19.583  1.00  0.00     0.054 A 
HETATM    6  C16 UNL     1       5.272   7.879  20.619  1.00  0.00     0.079 A 
ENDROOT
BRANCH   1   7
HETATM    7  C4  UNL     1       6.215   9.809  21.784  1.00  0.00     0.029 C 
BRANCH   7   8
HETATM    8  C3  UNL     1       7.295   9.976  22.528  1.00  0.00     0.010 A 
HETATM    9  C2  UNL     1       7.853   9.034  23.395  1.00  0.00     0.059 A 
HETATM   10  C1  UNL     1       7.374   7.835  23.589  1.00  0.00     0.046 C 
HETATM   11  N5  UNL     1       8.946   9.569  23.976  1.00  0.00    -0.256 N 
HETATM   12  N4  UNL     1       9.078  10.791  23.506  1.00  0.00    -0.304 N 
HETATM   13  C18 UNL     1       8.111  11.081  22.633  1.00  0.00     0.121 A 
ATOM     14  H4  UNL     1       9.823  11.434  23.775  1.00  0.00     0.186 HD
BRANCH  11  15
HETATM   15  C19 UNL     1       9.783   8.916  24.919  1.00  0.00     0.072 A 
HETATM   16  C20 UNL     1       9.234   8.375  26.064  1.00  0.00     0.037 A 
HETATM   17  C21 UNL     1      10.015   7.730  27.009  1.00  0.00     0.064 A 
HETATM   18  C22 UNL     1      11.364   7.636  26.785  1.00  0.00     0.190 A 
HETATM   19  F1  UNL     1      12.138   7.009  27.698  1.00  0.00    -0.186 F 
HETATM   20  N6  UNL     1      11.913   8.156  25.680  1.00  0.00    -0.336 N 
HETATM   21  C23 UNL     1      13.342   8.029  25.488  1.00  0.00     0.158 C 
HETATM   22  C24 UNL     1      11.135   8.786  24.761  1.00  0.00     0.124 A 
ENDBRANCH  11  15
ENDBRANCH   7   8
ENDBRANCH   1   7
BRANCH   6  23
HETATM   23  O2  UNL     1       4.332   7.817  21.633  1.00  0.00    -0.355 OA
HETATM   24  C17 UNL     1       4.083   6.594  22.261  1.00  0.00     0.210 C 
ENDBRANCH   6  23
BRANCH   4  25
HETATM   25  C9  UNL     1       6.254   6.161  17.485  1.00  0.00     0.252 C 
HETATM   26  O1  UNL     1       6.490   6.551  16.290  1.00  0.00    -0.268 OA
HETATM   27  N1  UNL     1       6.015   4.788  17.677  1.00  0.00    -0.351 N 
ATOM     28  H1  UNL     1       5.822   4.449  18.620  1.00  0.00     0.163 HD
BRANCH  27  29
HETATM   29  C10 UNL     1       6.033   3.830  16.574  1.00  0.00     0.181 C 
BRANCH  29  30
HETATM   30  C11 UNL     1       7.355   3.195  16.518  1.00  0.00     0.043 A 
HETATM   31  C12 UNL     1       7.864   2.304  17.448  1.00  0.00     0.118 A 
HETATM   32  N2  UNL     1       9.103   1.926  17.076  1.00  0.00    -0.355 N 
HETATM   33  C13 UNL     1       9.994   1.023  17.737  1.00  0.00     0.156 C 
HETATM   34  C14 UNL     1       9.358   2.573  15.936  1.00  0.00     0.182 A 
HETATM   35  N3  UNL     1       8.303   3.344  15.592  1.00  0.00    -0.353 N 
ATOM     36  H3  UNL     1       8.242   3.937  14.765  1.00  0.00     0.166 HD
ENDBRANCH  29  30
ENDBRANCH  27  29
ENDBRANCH   4  25
TORSDOF 7
ENDMDL
MODEL 5
REMARK VINA RESULT: -8.129033248      4.393     11.100
REMARK  7 active torsions:
REMARK  status: ('A' for Active; 'I' for Inactive)
REMARK    1  A    between atoms: C3_3  and  C4_4 
REMARK    2  A    between atoms: C4_4  and  C5_5 
REMARK    3  A    between atoms: C8_8  and  C9_9 
REMARK       I    between atoms: C9_9  and  N1_11 
REMARK    4  A    between atoms: N1_11  and  C10_13 
REMARK    5  A    between atoms: C10_13  and  C11_14 
REMARK    6  A    between atoms: C16_22  and  O2_23 
REMARK    7  A    between atoms: N5_28  and  C19_29 
ROOT
HETATM    1  C5  UNL     1       6.770   5.685  19.423  1.00  0.00    -0.002 A 
HETATM    2  C6  UNL     1       7.940   6.334  19.100  1.00  0.00     0.015 A 
HETATM    3  C7  UNL     1       8.430   7.244  20.046  1.00  0.00     0.018 A 
HETATM    4  C8  UNL     1       7.779   7.479  21.235  1.00  0.00     0.034 A 
HETATM    5  C15 UNL     1       6.604   6.797  21.506  1.00  0.00     0.054 A 
HETATM    6  C16 UNL     1       6.107   5.907  20.603  1.00  0.00     0.079 A 
ENDROOT
BRANCH   1   7
HETATM    7  C4  UNL     1       6.239   4.736  18.463  1.00  0.00     0.029 C 
BRANCH   7   8
HETATM    8  C3  UNL     1       6.628   4.770  17.199  1.00  0.00     0.010 A 
HETATM    9  C2  UNL     1       6.089   5.574  16.192  1.00  0.00     0.059 A 
HETATM   10  C1  UNL     1       5.108   6.419  16.367  1.00  0.00     0.046 C 
HETATM   11  N5  UNL     1       6.745   5.329  15.039  1.00  0.00    -0.256 N 
HETATM   12  N4  UNL     1       7.656   4.415  15.297  1.00  0.00    -0.304 N 
HETATM   13  C18 UNL     1       7.624   4.049  16.580  1.00  0.00     0.121 A 
ATOM     14  H4  UNL     1       8.302   4.034  14.606  1.00  0.00     0.186 HD
BRANCH  11  15
HETATM   15  C19 UNL     1       6.484   5.954  13.791  1.00  0.00     0.072 A 
HETATM   16  C20 UNL     1       5.724   5.300  12.843  1.00  0.00     0.037 A 
HETATM   17  C21 UNL     1       5.446   5.873  11.613  1.00  0.00     0.064 A 
HETATM   18  C22 UNL     1       5.946   7.122  11.350  1.00  0.00     0.190 A 
HETATM   19  F1  UNL     1       5.683   7.695  10.154  1.00  0.00    -0.186 F 
HETATM   20  N6  UNL     1       6.686   7.771  12.258  1.00  0.00    -0.336 N 
HETATM   21  C23 UNL     1       7.190   9.087  11.932  1.00  0.00     0.158 C 
HETATM   22  C24 UNL     1       6.951   7.196  13.460  1.00  0.00     0.124 A 
ENDBRANCH  11  15
ENDBRANCH   7   8
ENDBRANCH   1   7
BRANCH   6  23
HETATM   23  O2  UNL     1       4.938   5.204  20.833  1.00  0.00    -0.355 OA
HETATM   24  C17 UNL     1       4.304   5.318  22.074  1.00  0.00     0.210 C 
ENDBRANCH   6  23
BRANCH   4  25
HETATM   25  C9  UNL     1       8.317   8.431  22.179  1.00  0.00     0.252 C 
HETATM   26  O1  UNL     1       9.063   9.398  21.797  1.00  0.00    -0.268 OA
HETATM   27  N1  UNL     1       8.045   8.335  23.557  1.00  0.00    -0.351 N 
ATOM     28  H1  UNL     1       7.455   7.574  23.890  1.00  0.00     0.163 HD
BRANCH  27  29
HETATM   29  C10 UNL     1       8.580   9.289  24.526  1.00  0.00     0.181 C 
BRANCH  29  30
HETATM   30  C11 UNL     1       9.596   8.617  25.343  1.00  0.00     0.043 A 
HETATM   31  C12 UNL     1      10.966   8.727  25.183  1.00  0.00     0.118 A 
HETATM   32  N2  UNL     1      11.589   7.972  26.109  1.00  0.00    -0.355 N 
HETATM   33  C13 UNL     1      12.993   7.790  26.311  1.00  0.00     0.156 C 
HETATM   34  C14 UNL     1      10.621   7.403  26.832  1.00  0.00     0.182 A 
HETATM   35  N3  UNL     1       9.410   7.790  26.374  1.00  0.00    -0.353 N 
ATOM     36  H3  UNL     1       8.509   7.499  26.751  1.00  0.00     0.166 HD
ENDBRANCH  29  30
ENDBRANCH  27  29
ENDBRANCH   4  25
TORSDOF 7
ENDMDL
