MODEL 1
REMARK VINA RESULT: -7.047301118      0.000      0.000
REMARK  4 active torsions:
REMARK  status: ('A' for Active; 'I' for Inactive)
REMARK    1  A    between atoms: C4_6  and  C5_7 
REMARK    2  A    between atoms: C5_7  and  N2_8 
REMARK    3  A    between atoms: N2_8  and  C6_10 
REMARK    4  A    between atoms: C12_16  and  N3_17 
REMARK       I    between atoms: N3_17  and  C13_19 
ROOT
HETATM    1  N1  UNL     1      18.173  30.655   0.331  1.00  0.00    -0.191 NA
HETATM    2  C1  UNL     1      17.781  30.685  -0.756  1.00  0.00     0.109 C 
HETATM    3  C2  UNL     1      17.328  30.755  -2.142  1.00  0.00     0.112 A 
HETATM    4  S1  UNL     1      18.088  31.695  -3.384  1.00  0.00    -0.088 SA
HETATM    5  C3  UNL     1      17.056  31.292  -4.667  1.00  0.00     0.062 A 
HETATM    6  C4  UNL     1      16.151  30.442  -4.101  1.00  0.00    -0.005 A 
HETATM    7  C12 UNL     1      16.293  30.162  -2.782  1.00  0.00     0.070 A 
ENDROOT
BRANCH   7   8
HETATM    8  N3  UNL     1      15.372  29.277  -2.088  1.00  0.00    -0.329 N 
HETATM    9  C13 UNL     1      14.168  29.633  -1.491  1.00  0.00     0.186 C 
HETATM   10  N4  UNL     1      14.092  29.904  -0.240  1.00  0.00    -0.373 N 
HETATM   11  N5  UNL     1      12.925  29.681  -2.224  1.00  0.00    -0.064 NA
ATOM     12  H42 UNL     1      14.970  29.870   0.277  1.00  0.00     0.158 HD
ATOM     13  H41 UNL     1      13.208  30.165   0.198  1.00  0.00     0.158 HD
ATOM     14  H3  UNL     1      15.636  28.294  -2.034  1.00  0.00     0.168 HD
ENDBRANCH   7   8
BRANCH   6  15
HETATM   15  C5  UNL     1      15.034  29.848  -4.951  1.00  0.00     0.156 C 
BRANCH  15  16
HETATM   16  N2  UNL     1      13.969  30.770  -5.088  1.00  0.00    -0.413 N 
ATOM     17  H2  UNL     1      13.478  31.148  -4.278  1.00  0.00     0.153 HD
BRANCH  16  18
HETATM   18  C6  UNL     1      13.623  31.136  -6.406  1.00  0.00     0.076 C 
HETATM   19  C7  UNL     1      14.023  30.127  -7.459  1.00  0.00     0.024 C 
HETATM   20  C8  UNL     1      13.944  30.779  -8.823  1.00  0.00     0.002 C 
HETATM   21  C9  UNL     1      13.035  31.986  -8.842  1.00  0.00     0.000 C 
HETATM   22  C10 UNL     1      11.801  31.613  -8.024  1.00  0.00     0.002 C 
HETATM   23  C11 UNL     1      12.174  31.554  -6.561  1.00  0.00     0.024 C 
ENDBRANCH  16  18
ENDBRANCH  15  16
ENDBRANCH   6  15
TORSDOF 4
ENDMDL
MODEL 2
REMARK VINA RESULT: -6.869997491      1.515      1.908
REMARK  4 active torsions:
REMARK  status: ('A' for Active; 'I' for Inactive)
REMARK    1  A    between atoms: C4_6  and  C5_7 
REMARK    2  A    between atoms: C5_7  and  N2_8 
REMARK    3  A    between atoms: N2_8  and  C6_10 
REMARK    4  A    between atoms: C12_16  and  N3_17 
REMARK       I    between atoms: N3_17  and  C13_19 
ROOT
HETATM    1  N1  UNL     1      15.160  29.527   1.650  1.00  0.00    -0.191 NA
HETATM    2  C1  UNL     1      15.380  29.796   0.547  1.00  0.00     0.109 C 
HETATM    3  C2  UNL     1      15.703  30.156  -0.829  1.00  0.00     0.112 A 
HETATM    4  S1  UNL     1      17.119  31.032  -1.315  1.00  0.00    -0.088 SA
HETATM    5  C3  UNL     1      16.827  31.069  -2.984  1.00  0.00     0.062 A 
HETATM    6  C4  UNL     1      15.644  30.404  -3.122  1.00  0.00    -0.005 A 
HETATM    7  C12 UNL     1      15.057  29.928  -1.996  1.00  0.00     0.070 A 
ENDROOT
BRANCH   7   8
HETATM    8  N3  UNL     1      13.789  29.218  -2.041  1.00  0.00    -0.329 N 
HETATM    9  C13 UNL     1      13.598  27.849  -1.901  1.00  0.00     0.186 C 
HETATM   10  N4  UNL     1      13.518  27.072  -2.918  1.00  0.00    -0.373 N 
HETATM   11  N5  UNL     1      13.437  27.217  -0.613  1.00  0.00    -0.064 NA
ATOM     12  H42 UNL     1      13.631  27.518  -3.828  1.00  0.00     0.158 HD
ATOM     13  H41 UNL     1      13.377  26.067  -2.816  1.00  0.00     0.158 HD
ATOM     14  H3  UNL     1      12.954  29.783  -2.191  1.00  0.00     0.168 HD
ENDBRANCH   7   8
BRANCH   6  15
HETATM   15  C5  UNL     1      15.032  30.223  -4.507  1.00  0.00     0.156 C 
BRANCH  15  16
HETATM   16  N2  UNL     1      14.168  31.300  -4.814  1.00  0.00    -0.413 N 
ATOM     17  H2  UNL     1      13.850  31.956  -4.100  1.00  0.00     0.153 HD
BRANCH  16  18
HETATM   18  C6  UNL     1      13.769  31.419  -6.162  1.00  0.00     0.076 C 
HETATM   19  C7  UNL     1      14.238  30.290  -7.053  1.00  0.00     0.024 C 
HETATM   20  C8  UNL     1      14.079  30.704  -8.500  1.00  0.00     0.002 C 
HETATM   21  C9  UNL     1      13.068  31.811  -8.684  1.00  0.00     0.000 C 
HETATM   22  C10 UNL     1      11.885  31.474  -7.779  1.00  0.00     0.002 C 
HETATM   23  C11 UNL     1      12.286  31.684  -6.338  1.00  0.00     0.024 C 
ENDBRANCH  16  18
ENDBRANCH  15  16
ENDBRANCH   6  15
TORSDOF 4
ENDMDL
MODEL 3
REMARK VINA RESULT: -6.782482098      2.025      3.062
REMARK  4 active torsions:
REMARK  status: ('A' for Active; 'I' for Inactive)
REMARK    1  A    between atoms: C4_6  and  C5_7 
REMARK    2  A    between atoms: C5_7  and  N2_8 
REMARK    3  A    between atoms: N2_8  and  C6_10 
REMARK    4  A    between atoms: C12_16  and  N3_17 
REMARK       I    between atoms: N3_17  and  C13_19 
ROOT
HETATM    1  N1  UNL     1      14.918  28.726   1.989  1.00  0.00    -0.191 NA
HETATM    2  C1  UNL     1      14.834  28.744   0.836  1.00  0.00     0.109 C 
HETATM    3  C2  UNL     1      14.699  28.725  -0.617  1.00  0.00     0.112 A 
HETATM    4  S1  UNL     1      13.857  27.503  -1.514  1.00  0.00    -0.088 SA
HETATM    5  C3  UNL     1      14.107  28.122  -3.072  1.00  0.00     0.062 A 
HETATM    6  C4  UNL     1      14.835  29.256  -2.858  1.00  0.00    -0.005 A 
HETATM    7  C12 UNL     1      15.144  29.570  -1.576  1.00  0.00     0.070 A 
ENDROOT
BRANCH   7   8
HETATM    8  N3  UNL     1      15.926  30.751  -1.249  1.00  0.00    -0.329 N 
HETATM    9  C13 UNL     1      17.303  30.814  -1.072  1.00  0.00     0.186 C 
HETATM   10  N4  UNL     1      17.837  30.730   0.091  1.00  0.00    -0.373 N 
HETATM   11  N5  UNL     1      18.216  31.018  -2.171  1.00  0.00    -0.064 NA
ATOM     12  H42 UNL     1      17.192  30.586   0.868  1.00  0.00     0.158 HD
ATOM     13  H41 UNL     1      18.848  30.776   0.221  1.00  0.00     0.158 HD
ATOM     14  H3  UNL     1      15.411  31.624  -1.137  1.00  0.00     0.168 HD
ENDBRANCH   7   8
BRANCH   6  15
HETATM   15  C5  UNL     1      15.268  30.114  -4.041  1.00  0.00     0.156 C 
BRANCH  15  16
HETATM   16  N2  UNL     1      14.260  31.050  -4.373  1.00  0.00    -0.413 N 
ATOM     17  H2  UNL     1      13.771  31.590  -3.659  1.00  0.00     0.153 HD
BRANCH  16  18
HETATM   18  C6  UNL     1      13.968  31.194  -5.746  1.00  0.00     0.076 C 
HETATM   19  C7  UNL     1      14.338  29.997  -6.592  1.00  0.00     0.024 C 
HETATM   20  C8  UNL     1      14.328  30.401  -8.051  1.00  0.00     0.002 C 
HETATM   21  C9  UNL     1      13.487  31.628  -8.311  1.00  0.00     0.000 C 
HETATM   22  C10 UNL     1      12.214  31.467  -7.483  1.00  0.00     0.002 C 
HETATM   23  C11 UNL     1      12.547  31.649  -6.021  1.00  0.00     0.024 C 
ENDBRANCH  16  18
ENDBRANCH  15  16
ENDBRANCH   6  15
TORSDOF 4
ENDMDL
MODEL 4
REMARK VINA RESULT: -6.653332864      2.179      2.941
REMARK  4 active torsions:
REMARK  status: ('A' for Active; 'I' for Inactive)
REMARK    1  A    between atoms: C4_6  and  C5_7 
REMARK    2  A    between atoms: C5_7  and  N2_8 
REMARK    3  A    between atoms: N2_8  and  C6_10 
REMARK    4  A    between atoms: C12_16  and  N3_17 
REMARK       I    between atoms: N3_17  and  C13_19 
ROOT
HETATM    1  N1  UNL     1      14.838  28.771   2.196  1.00  0.00    -0.191 NA
HETATM    2  C1  UNL     1      15.421  28.901   1.206  1.00  0.00     0.109 C 
HETATM    3  C2  UNL     1      16.201  29.068  -0.016  1.00  0.00     0.112 A 
HETATM    4  S1  UNL     1      17.912  29.346  -0.065  1.00  0.00    -0.088 SA
HETATM    5  C3  UNL     1      18.102  29.428  -1.748  1.00  0.00     0.062 A 
HETATM    6  C4  UNL     1      16.839  29.240  -2.226  1.00  0.00    -0.005 A 
HETATM    7  C12 UNL     1      15.846  29.053  -1.322  1.00  0.00     0.070 A 
ENDROOT
BRANCH   7   8
HETATM    8  N3  UNL     1      14.466  28.856  -1.735  1.00  0.00    -0.329 N 
HETATM    9  C13 UNL     1      13.795  27.645  -1.843  1.00  0.00     0.186 C 
HETATM   10  N4  UNL     1      13.712  27.018  -2.960  1.00  0.00    -0.373 N 
HETATM   11  N5  UNL     1      13.116  27.033  -0.726  1.00  0.00    -0.064 NA
ATOM     12  H42 UNL     1      14.192  27.450  -3.749  1.00  0.00     0.158 HD
ATOM     13  H41 UNL     1      13.220  26.128  -3.040  1.00  0.00     0.158 HD
ATOM     14  H3  UNL     1      13.936  29.695  -1.970  1.00  0.00     0.168 HD
ENDBRANCH   7   8
BRANCH   6  15
HETATM   15  C5  UNL     1      16.588  29.247  -3.730  1.00  0.00     0.156 C 
BRANCH  15  16
HETATM   16  N2  UNL     1      16.501  30.573  -4.214  1.00  0.00    -0.413 N 
ATOM     17  H2  UNL     1      16.868  31.365  -3.685  1.00  0.00     0.153 HD
BRANCH  16  18
HETATM   18  C6  UNL     1      15.878  30.743  -5.469  1.00  0.00     0.076 C 
HETATM   19  C7  UNL     1      14.507  30.114  -5.575  1.00  0.00     0.024 C 
HETATM   20  C8  UNL     1      14.110  30.035  -7.033  1.00  0.00     0.002 C 
HETATM   21  C9  UNL     1      14.863  31.020  -7.897  1.00  0.00     0.000 C 
HETATM   22  C10 UNL     1      14.915  32.331  -7.117  1.00  0.00     0.002 C 
HETATM   23  C11 UNL     1      15.867  32.180  -5.954  1.00  0.00     0.024 C 
ENDBRANCH  16  18
ENDBRANCH  15  16
ENDBRANCH   6  15
TORSDOF 4
ENDMDL
MODEL 5
REMARK VINA RESULT: -6.530771424      3.153      3.545
REMARK  4 active torsions:
REMARK  status: ('A' for Active; 'I' for Inactive)
REMARK    1  A    between atoms: C4_6  and  C5_7 
REMARK    2  A    between atoms: C5_7  and  N2_8 
REMARK    3  A    between atoms: N2_8  and  C6_10 
REMARK    4  A    between atoms: C12_16  and  N3_17 
REMARK       I    between atoms: N3_17  and  C13_19 
ROOT
HETATM    1  N1  UNL     1      15.543  37.338  -2.731  1.00  0.00    -0.191 NA
HETATM    2  C1  UNL     1      15.649  36.282  -3.189  1.00  0.00     0.109 C 
HETATM    3  C2  UNL     1      15.825  34.965  -3.792  1.00  0.00     0.112 A 
HETATM    4  S1  UNL     1      17.060  34.561  -4.940  1.00  0.00    -0.088 SA
HETATM    5  C3  UNL     1      16.657  32.932  -5.175  1.00  0.00     0.062 A 
HETATM    6  C4  UNL     1      15.579  32.743  -4.361  1.00  0.00    -0.005 A 
HETATM    7  C12 UNL     1      15.144  33.805  -3.639  1.00  0.00     0.070 A 
ENDROOT
BRANCH   7   8
HETATM    8  N3  UNL     1      13.996  33.705  -2.754  1.00  0.00    -0.329 N 
HETATM    9  C13 UNL     1      14.021  33.539  -1.375  1.00  0.00     0.186 C 
HETATM   10  N4  UNL     1      13.931  32.378  -0.835  1.00  0.00    -0.373 N 
HETATM   11  N5  UNL     1      14.110  34.653  -0.461  1.00  0.00    -0.064 NA
ATOM     12  H42 UNL     1      13.868  31.591  -1.480  1.00  0.00     0.158 HD
ATOM     13  H41 UNL     1      13.949  32.256   0.178  1.00  0.00     0.158 HD
ATOM     14  H3  UNL     1      13.076  33.763  -3.190  1.00  0.00     0.168 HD
ENDBRANCH   7   8
BRANCH   6  15
HETATM   15  C5  UNL     1      14.912  31.374  -4.290  1.00  0.00     0.156 C 
BRANCH  15  16
HETATM   16  N2  UNL     1      13.570  31.451  -4.732  1.00  0.00    -0.413 N 
ATOM     17  H2  UNL     1      12.787  31.444  -4.077  1.00  0.00     0.153 HD
BRANCH  16  18
HETATM   18  C6  UNL     1      13.373  31.536  -6.126  1.00  0.00     0.076 C 
HETATM   19  C7  UNL     1      14.016  30.420  -6.917  1.00  0.00     0.024 C 
HETATM   20  C8  UNL     1      14.059  30.810  -8.379  1.00  0.00     0.002 C 
HETATM   21  C9  UNL     1      13.040  31.869  -8.730  1.00  0.00     0.000 C 
HETATM   22  C10 UNL     1      11.751  31.489  -8.006  1.00  0.00     0.002 C 
HETATM   23  C11 UNL     1      11.923  31.733  -6.525  1.00  0.00     0.024 C 
ENDBRANCH  16  18
ENDBRANCH  15  16
ENDBRANCH   6  15
TORSDOF 4
ENDMDL
