MODEL 1
REMARK VINA RESULT: -5.274656208      0.000      0.000
REMARK  4 active torsions:
REMARK  status: ('A' for Active; 'I' for Inactive)
REMARK    1  A    between atoms: O1_1  and  C1_3 
REMARK    2  A    between atoms: C1_3  and  C2_4 
REMARK    3  A    between atoms: C8_11  and  C9_12 
REMARK    4  A    between atoms: C9_12  and  O3_13 
ROOT
HETATM    1  C2  UNL     1      37.693  22.070  23.455  1.00  0.00     0.139 C 
HETATM    2  C3  UNL     1      38.516  23.301  23.444  1.00  0.00     0.214 C 
HETATM    3  O2  UNL     1      38.809  23.845  22.244  1.00  0.00    -0.358 OA
HETATM    4  C4  UNL     1      37.909  23.704  21.244  1.00  0.00     0.264 C 
HETATM    5  C5  UNL     1      38.249  22.501  20.358  1.00  0.00     0.071 C 
HETATM    6  C6  UNL     1      37.358  21.454  21.044  1.00  0.00     0.061 C 
HETATM    7  C7  UNL     1      38.005  21.097  22.353  1.00  0.00     0.056 C 
HETATM    8  C8  UNL     1      36.152  22.320  21.362  1.00  0.00     0.224 C 
HETATM    9  O4  UNL     1      35.633  21.825  22.574  1.00  0.00    -0.197 OA
HETATM   10  O5  UNL     1      36.318  22.365  23.528  1.00  0.00    -0.222 OA
HETATM   11  O6  UNL     1      36.599  23.590  21.599  1.00  0.00    -0.320 OA
ENDROOT
BRANCH   1  12
HETATM   12  C1  UNL     1      37.991  21.343  24.775  1.00  0.00     0.207 C 
BRANCH  12  13
HETATM   13  O1  UNL     1      37.058  20.345  25.007  1.00  0.00    -0.398 OA
ATOM     14  H1  UNL     1      37.309  19.817  25.756  1.00  0.00     0.209 HD
ENDBRANCH  12  13
ENDBRANCH   1  12
BRANCH   8  15
HETATM   15  C9  UNL     1      35.079  22.202  20.335  1.00  0.00     0.236 C 
BRANCH  15  16
HETATM   16  O3  UNL     1      34.415  23.420  20.255  1.00  0.00    -0.395 OA
ATOM     17  H3  UNL     1      33.696  23.328  19.641  1.00  0.00     0.209 HD
ENDBRANCH  15  16
ENDBRANCH   8  15
TORSDOF 4
ENDMDL
MODEL 2
REMARK VINA RESULT: -5.147302751      1.752      3.499
REMARK  4 active torsions:
REMARK  status: ('A' for Active; 'I' for Inactive)
REMARK    1  A    between atoms: O1_1  and  C1_3 
REMARK    2  A    between atoms: C1_3  and  C2_4 
REMARK    3  A    between atoms: C8_11  and  C9_12 
REMARK    4  A    between atoms: C9_12  and  O3_13 
ROOT
HETATM    1  C2  UNL     1      37.793  22.362  20.593  1.00  0.00     0.139 C 
HETATM    2  C3  UNL     1      38.331  21.083  21.110  1.00  0.00     0.214 C 
HETATM    3  O2  UNL     1      38.394  20.929  22.449  1.00  0.00    -0.358 OA
HETATM    4  C4  UNL     1      37.459  21.548  23.207  1.00  0.00     0.264 C 
HETATM    5  C5  UNL     1      37.968  22.900  23.717  1.00  0.00     0.071 C 
HETATM    6  C6  UNL     1      37.384  23.795  22.613  1.00  0.00     0.061 C 
HETATM    7  C7  UNL     1      38.206  23.577  21.373  1.00  0.00     0.056 C 
HETATM    8  C8  UNL     1      36.055  23.093  22.399  1.00  0.00     0.224 C 
HETATM    9  O4  UNL     1      35.762  23.237  21.029  1.00  0.00    -0.197 OA
HETATM   10  O5  UNL     1      36.398  22.300  20.405  1.00  0.00    -0.222 OA
HETATM   11  O6  UNL     1      36.241  21.760  22.638  1.00  0.00    -0.320 OA
ENDROOT
BRANCH   1  12
HETATM   12  C1  UNL     1      38.354  22.543  19.175  1.00  0.00     0.207 C 
BRANCH  12  13
HETATM   13  O1  UNL     1      39.725  22.339  19.159  1.00  0.00    -0.398 OA
ATOM     14  H1  UNL     1      40.062  22.377  18.272  1.00  0.00     0.209 HD
ENDBRANCH  12  13
ENDBRANCH   1  12
BRANCH   8  15
HETATM   15  C9  UNL     1      34.944  23.730  23.161  1.00  0.00     0.236 C 
BRANCH  15  16
HETATM   16  O3  UNL     1      35.164  25.102  23.189  1.00  0.00    -0.395 OA
ATOM     17  H3  UNL     1      34.904  25.463  22.350  1.00  0.00     0.209 HD
ENDBRANCH  15  16
ENDBRANCH   8  15
TORSDOF 4
ENDMDL
MODEL 3
REMARK VINA RESULT: -5.051849456      1.838      2.711
REMARK  4 active torsions:
REMARK  status: ('A' for Active; 'I' for Inactive)
REMARK    1  A    between atoms: O1_1  and  C1_3 
REMARK    2  A    between atoms: C1_3  and  C2_4 
REMARK    3  A    between atoms: C8_11  and  C9_12 
REMARK    4  A    between atoms: C9_12  and  O3_13 
ROOT
HETATM    1  C2  UNL     1      37.804  21.299  23.275  1.00  0.00     0.139 C 
HETATM    2  C3  UNL     1      38.204  19.931  22.873  1.00  0.00     0.214 C 
HETATM    3  O2  UNL     1      37.881  19.528  21.627  1.00  0.00    -0.358 OA
HETATM    4  C4  UNL     1      37.831  20.461  20.648  1.00  0.00     0.264 C 
HETATM    5  C5  UNL     1      36.402  20.973  20.444  1.00  0.00     0.071 C 
HETATM    6  C6  UNL     1      36.473  22.211  21.351  1.00  0.00     0.061 C 
HETATM    7  C7  UNL     1      36.455  21.731  22.776  1.00  0.00     0.056 C 
HETATM    8  C8  UNL     1      37.891  22.663  21.050  1.00  0.00     0.224 C 
HETATM    9  O4  UNL     1      38.379  23.221  22.247  1.00  0.00    -0.197 OA
HETATM   10  O5  UNL     1      38.807  22.242  22.975  1.00  0.00    -0.222 OA
HETATM   11  O6  UNL     1      38.638  21.548  20.786  1.00  0.00    -0.320 OA
ENDROOT
BRANCH   1  12
HETATM   12  C1  UNL     1      37.726  21.312  24.809  1.00  0.00     0.207 C 
BRANCH  12  13
HETATM   13  O1  UNL     1      37.274  20.091  25.287  1.00  0.00    -0.398 OA
ATOM     14  H1  UNL     1      37.803  19.380  24.948  1.00  0.00     0.209 HD
ENDBRANCH  12  13
ENDBRANCH   1  12
BRANCH   8  15
HETATM   15  C9  UNL     1      37.942  23.727  20.008  1.00  0.00     0.236 C 
BRANCH  15  16
HETATM   16  O3  UNL     1      38.325  24.916  20.616  1.00  0.00    -0.395 OA
ATOM     17  H3  UNL     1      37.752  25.608  20.306  1.00  0.00     0.209 HD
ENDBRANCH  15  16
ENDBRANCH   8  15
TORSDOF 4
ENDMDL
MODEL 4
REMARK VINA RESULT: -5.022662721      1.924      2.765
REMARK  4 active torsions:
REMARK  status: ('A' for Active; 'I' for Inactive)
REMARK    1  A    between atoms: O1_1  and  C1_3 
REMARK    2  A    between atoms: C1_3  and  C2_4 
REMARK    3  A    between atoms: C8_11  and  C9_12 
REMARK    4  A    between atoms: C9_12  and  O3_13 
ROOT
HETATM    1  C2  UNL     1      37.827  21.959  23.762  1.00  0.00     0.139 C 
HETATM    2  C3  UNL     1      38.268  20.550  23.647  1.00  0.00     0.214 C 
HETATM    3  O2  UNL     1      37.955  19.890  22.513  1.00  0.00    -0.358 OA
HETATM    4  C4  UNL     1      37.875  20.599  21.363  1.00  0.00     0.264 C 
HETATM    5  C5  UNL     1      36.431  21.017  21.070  1.00  0.00     0.071 C 
HETATM    6  C6  UNL     1      36.465  22.417  21.703  1.00  0.00     0.061 C 
HETATM    7  C7  UNL     1      36.464  22.239  23.195  1.00  0.00     0.056 C 
HETATM    8  C8  UNL     1      37.868  22.838  21.303  1.00  0.00     0.224 C 
HETATM    9  O4  UNL     1      38.341  23.645  22.356  1.00  0.00    -0.197 OA
HETATM   10  O5  UNL     1      38.800  22.850  23.267  1.00  0.00    -0.222 OA
HETATM   11  O6  UNL     1      38.649  21.715  21.268  1.00  0.00    -0.320 OA
ENDROOT
BRANCH   1  12
HETATM   12  C1  UNL     1      37.751  22.285  25.261  1.00  0.00     0.207 C 
BRANCH  12  13
HETATM   13  O1  UNL     1      38.446  23.449  25.547  1.00  0.00    -0.398 OA
ATOM     14  H1  UNL     1      38.737  23.454  26.451  1.00  0.00     0.209 HD
ENDBRANCH  12  13
ENDBRANCH   1  12
BRANCH   8  15
HETATM   15  C9  UNL     1      37.885  23.666  20.065  1.00  0.00     0.236 C 
BRANCH  15  16
HETATM   16  O3  UNL     1      38.223  24.968  20.414  1.00  0.00    -0.395 OA
ATOM     17  H3  UNL     1      38.983  24.937  20.982  1.00  0.00     0.209 HD
ENDBRANCH  15  16
ENDBRANCH   8  15
TORSDOF 4
ENDMDL
MODEL 5
REMARK VINA RESULT: -5.017929780      1.859      3.732
REMARK  4 active torsions:
REMARK  status: ('A' for Active; 'I' for Inactive)
REMARK    1  A    between atoms: O1_1  and  C1_3 
REMARK    2  A    between atoms: C1_3  and  C2_4 
REMARK    3  A    between atoms: C8_11  and  C9_12 
REMARK    4  A    between atoms: C9_12  and  O3_13 
ROOT
HETATM    1  C2  UNL     1      37.573  21.840  20.562  1.00  0.00     0.139 C 
HETATM    2  C3  UNL     1      37.930  23.248  20.269  1.00  0.00     0.214 C 
HETATM    3  O2  UNL     1      37.715  24.160  21.239  1.00  0.00    -0.358 OA
HETATM    4  C4  UNL     1      37.824  23.759  22.527  1.00  0.00     0.264 C 
HETATM    5  C5  UNL     1      36.457  23.380  23.105  1.00  0.00     0.071 C 
HETATM    6  C6  UNL     1      36.507  21.868  22.835  1.00  0.00     0.061 C 
HETATM    7  C7  UNL     1      36.311  21.666  21.358  1.00  0.00     0.056 C 
HETATM    8  C8  UNL     1      37.973  21.609  23.132  1.00  0.00     0.224 C 
HETATM    9  O4  UNL     1      38.366  20.580  22.254  1.00  0.00    -0.197 OA
HETATM   10  O5  UNL     1      38.656  21.136  21.123  1.00  0.00    -0.222 OA
HETATM   11  O6  UNL     1      38.676  22.730  22.786  1.00  0.00    -0.320 OA
ENDROOT
BRANCH   1  12
HETATM   12  C1  UNL     1      37.336  21.147  19.212  1.00  0.00     0.207 C 
BRANCH  12  13
HETATM   13  O1  UNL     1      37.591  19.788  19.306  1.00  0.00    -0.398 OA
ATOM     14  H1  UNL     1      38.526  19.620  19.300  1.00  0.00     0.209 HD
ENDBRANCH  12  13
ENDBRANCH   1  12
BRANCH   8  15
HETATM   15  C9  UNL     1      38.196  21.119  24.521  1.00  0.00     0.236 C 
BRANCH  15  16
HETATM   16  O3  UNL     1      37.083  20.382  24.908  1.00  0.00    -0.395 OA
ATOM     17  H3  UNL     1      36.910  19.729  24.240  1.00  0.00     0.209 HD
ENDBRANCH  15  16
ENDBRANCH   8  15
TORSDOF 4
ENDMDL
