MODEL 1
REMARK VINA RESULT: -6.270539394      0.000      0.000
REMARK  2 active torsions:
REMARK  status: ('A' for Active; 'I' for Inactive)
REMARK       I    between atoms: C2_2  and  N1_4 
REMARK    1  A    between atoms: N1_4  and  N2_6 
REMARK    2  A    between atoms: N5_15  and  N6_16 
ROOT
HETATM    1  N2  UNL     1     -11.048 -28.276  -3.309  1.00  0.00    -0.287 N 
ATOM      2  H2  UNL     1     -10.878 -29.278  -3.399  1.00  0.00     0.188 HD
HETATM    3  C3  UNL     1     -10.108 -27.391  -3.513  1.00  0.00     0.161 A 
HETATM    4  S1  UNL     1     -10.327 -25.706  -3.376  1.00  0.00    -0.051 SA
HETATM    5  C4  UNL     1      -8.904 -24.835  -3.707  1.00  0.00     0.130 A 
HETATM    6  C5  UNL     1      -8.816 -23.382  -3.661  1.00  0.00     0.110 C 
HETATM    7  N3  UNL     1      -8.767 -22.227  -3.619  1.00  0.00    -0.191 NA
HETATM    8  C6  UNL     1      -7.811 -25.604  -4.029  1.00  0.00     0.168 A 
HETATM    9  N4  UNL     1      -6.585 -24.895  -4.316  1.00  0.00    -0.078 NA
HETATM   10  N5  UNL     1      -7.805 -26.937  -4.094  1.00  0.00    -0.208 N 
HETATM   11  C7  UNL     1      -8.826 -27.763  -3.866  1.00  0.00     0.302 A 
HETATM   12  O2  UNL     1      -8.665 -29.034  -3.968  1.00  0.00    -0.263 OA
ENDROOT
BRANCH  10  13
HETATM   13  N6  UNL     1      -6.583 -27.587  -4.443  1.00  0.00    -0.334 N 
ATOM     14  H62 UNL     1      -5.849 -26.960  -4.771  1.00  0.00     0.177 HD
ATOM     15  H61 UNL     1      -6.534 -28.601  -4.343  1.00  0.00     0.177 HD
ENDBRANCH  10  13
BRANCH   1  16
HETATM   16  N1  UNL     1     -12.306 -27.762  -2.956  1.00  0.00    -0.269 N 
HETATM   17  C2  UNL     1     -13.368 -27.763  -3.891  1.00  0.00     0.232 C 
HETATM   18  C1  UNL     1     -14.680 -27.216  -3.491  1.00  0.00     0.119 C 
HETATM   19  O1  UNL     1     -13.250 -28.212  -5.060  1.00  0.00    -0.272 OA
ATOM     20  H1  UNL     1     -12.455 -27.385  -2.020  1.00  0.00     0.190 HD
ENDBRANCH   1  16
TORSDOF 2
ENDMDL
MODEL 2
REMARK VINA RESULT: -6.115586955      3.046      5.980
REMARK  2 active torsions:
REMARK  status: ('A' for Active; 'I' for Inactive)
REMARK       I    between atoms: C2_2  and  N1_4 
REMARK    1  A    between atoms: N1_4  and  N2_6 
REMARK    2  A    between atoms: N5_15  and  N6_16 
ROOT
HETATM    1  N2  UNL     1      -9.319 -25.749  -4.591  1.00  0.00    -0.287 N 
ATOM      2  H2  UNL     1      -8.936 -25.304  -3.757  1.00  0.00     0.188 HD
HETATM    3  C3  UNL     1     -10.513 -26.283  -4.608  1.00  0.00     0.161 A 
HETATM    4  S1  UNL     1     -11.208 -27.042  -5.966  1.00  0.00    -0.051 SA
HETATM    5  C4  UNL     1     -12.773 -27.632  -5.653  1.00  0.00     0.130 A 
HETATM    6  C5  UNL     1     -13.591 -28.321  -6.641  1.00  0.00     0.110 C 
HETATM    7  N3  UNL     1     -14.224 -28.867  -7.440  1.00  0.00    -0.191 NA
HETATM    8  C6  UNL     1     -13.233 -27.413  -4.376  1.00  0.00     0.168 A 
HETATM    9  N4  UNL     1     -14.560 -27.902  -4.076  1.00  0.00    -0.078 NA
HETATM   10  N5  UNL     1     -12.551 -26.791  -3.412  1.00  0.00    -0.208 N 
HETATM   11  C7  UNL     1     -11.326 -26.274  -3.492  1.00  0.00     0.302 A 
HETATM   12  O2  UNL     1     -10.797 -25.701  -2.470  1.00  0.00    -0.263 OA
ENDROOT
BRANCH  10  13
HETATM   13  N6  UNL     1     -13.174 -26.645  -2.135  1.00  0.00    -0.334 N 
ATOM     14  H62 UNL     1     -13.856 -27.370  -1.912  1.00  0.00     0.177 HD
ATOM     15  H61 UNL     1     -12.901 -25.851  -1.557  1.00  0.00     0.177 HD
ENDBRANCH  10  13
BRANCH   1  16
HETATM   16  N1  UNL     1      -8.598 -25.828  -5.794  1.00  0.00    -0.269 N 
HETATM   17  C2  UNL     1      -8.673 -24.781  -6.743  1.00  0.00     0.232 C 
HETATM   18  C1  UNL     1      -7.903 -24.891  -7.998  1.00  0.00     0.119 C 
HETATM   19  O1  UNL     1      -9.370 -23.748  -6.570  1.00  0.00    -0.272 OA
ATOM     20  H1  UNL     1      -8.017 -26.644  -5.984  1.00  0.00     0.190 HD
ENDBRANCH   1  16
TORSDOF 2
ENDMDL
MODEL 3
REMARK VINA RESULT: -5.950064474      3.101      5.136
REMARK  2 active torsions:
REMARK  status: ('A' for Active; 'I' for Inactive)
REMARK       I    between atoms: C2_2  and  N1_4 
REMARK    1  A    between atoms: N1_4  and  N2_6 
REMARK    2  A    between atoms: N5_15  and  N6_16 
ROOT
HETATM    1  N2  UNL     1      -6.434 -28.283  -2.646  1.00  0.00    -0.287 N 
ATOM      2  H2  UNL     1      -6.418 -29.278  -2.868  1.00  0.00     0.188 HD
HETATM    3  C3  UNL     1      -7.172 -27.434  -3.314  1.00  0.00     0.161 A 
HETATM    4  S1  UNL     1      -7.242 -25.762  -2.995  1.00  0.00    -0.051 SA
HETATM    5  C4  UNL     1      -8.298 -24.941  -4.045  1.00  0.00     0.130 A 
HETATM    6  C5  UNL     1      -8.543 -23.506  -3.989  1.00  0.00     0.110 C 
HETATM    7  N3  UNL     1      -8.723 -22.365  -3.928  1.00  0.00    -0.191 NA
HETATM    8  C6  UNL     1      -8.925 -25.733  -4.978  1.00  0.00     0.168 A 
HETATM    9  N4  UNL     1      -9.830 -25.068  -5.888  1.00  0.00    -0.078 NA
HETATM   10  N5  UNL     1      -8.758 -27.053  -5.098  1.00  0.00    -0.208 N 
HETATM   11  C7  UNL     1      -7.976 -27.840  -4.361  1.00  0.00     0.302 A 
HETATM   12  O2  UNL     1      -7.919 -29.102  -4.599  1.00  0.00    -0.263 OA
ENDROOT
BRANCH  10  13
HETATM   13  N6  UNL     1      -9.485 -27.731  -6.122  1.00  0.00    -0.334 N 
ATOM     14  H62 UNL     1      -9.153 -27.548  -7.069  1.00  0.00     0.177 HD
ATOM     15  H61 UNL     1     -10.261 -28.330  -5.843  1.00  0.00     0.177 HD
ENDBRANCH  10  13
BRANCH   1  16
HETATM   16  N1  UNL     1      -5.666 -27.737  -1.605  1.00  0.00    -0.269 N 
HETATM   17  C2  UNL     1      -4.773 -28.553  -0.871  1.00  0.00     0.232 C 
HETATM   18  C1  UNL     1      -3.977 -27.951   0.218  1.00  0.00     0.119 C 
HETATM   19  O1  UNL     1      -4.620 -29.780  -1.102  1.00  0.00    -0.272 OA
ATOM     20  H1  UNL     1      -5.752 -26.747  -1.377  1.00  0.00     0.190 HD
ENDBRANCH   1  16
TORSDOF 2
ENDMDL
MODEL 4
REMARK VINA RESULT: -5.799421633      3.048      5.271
REMARK  2 active torsions:
REMARK  status: ('A' for Active; 'I' for Inactive)
REMARK       I    between atoms: C2_2  and  N1_4 
REMARK    1  A    between atoms: N1_4  and  N2_6 
REMARK    2  A    between atoms: N5_15  and  N6_16 
ROOT
HETATM    1  N2  UNL     1      -6.160 -26.877  -3.038  1.00  0.00    -0.287 N 
ATOM      2  H2  UNL     1      -5.298 -26.935  -3.580  1.00  0.00     0.188 HD
HETATM    3  C3  UNL     1      -7.325 -26.689  -3.602  1.00  0.00     0.161 A 
HETATM    4  S1  UNL     1      -8.799 -26.582  -2.754  1.00  0.00    -0.051 SA
HETATM    5  C4  UNL     1     -10.128 -26.334  -3.785  1.00  0.00     0.130 A 
HETATM    6  C5  UNL     1     -11.502 -26.208  -3.319  1.00  0.00     0.110 C 
HETATM    7  N3  UNL     1     -12.586 -26.109  -2.928  1.00  0.00    -0.191 NA
HETATM    8  C6  UNL     1      -9.821 -26.259  -5.123  1.00  0.00     0.168 A 
HETATM    9  N4  UNL     1     -10.928 -26.049  -6.029  1.00  0.00    -0.078 NA
HETATM   10  N5  UNL     1      -8.593 -26.365  -5.634  1.00  0.00    -0.208 N 
HETATM   11  C7  UNL     1      -7.454 -26.559  -4.971  1.00  0.00     0.302 A 
HETATM   12  O2  UNL     1      -6.340 -26.640  -5.606  1.00  0.00    -0.263 OA
ENDROOT
BRANCH  10  13
HETATM   13  N6  UNL     1      -8.444 -26.263  -7.051  1.00  0.00    -0.334 N 
ATOM     14  H62 UNL     1      -7.495 -26.057  -7.362  1.00  0.00     0.177 HD
ATOM     15  H61 UNL     1      -9.271 -26.399  -7.631  1.00  0.00     0.177 HD
ENDBRANCH  10  13
BRANCH   1  16
HETATM   16  N1  UNL     1      -6.171 -26.994  -1.638  1.00  0.00    -0.269 N 
HETATM   17  C2  UNL     1      -5.468 -28.044  -1.002  1.00  0.00     0.232 C 
HETATM   18  C1  UNL     1      -5.497 -28.141   0.472  1.00  0.00     0.119 C 
HETATM   19  O1  UNL     1      -4.810 -28.909  -1.635  1.00  0.00    -0.272 OA
ATOM     20  H1  UNL     1      -6.690 -26.318  -1.077  1.00  0.00     0.190 HD
ENDBRANCH   1  16
TORSDOF 2
ENDMDL
MODEL 5
REMARK VINA RESULT: -5.797735362      2.519      5.669
REMARK  2 active torsions:
REMARK  status: ('A' for Active; 'I' for Inactive)
REMARK       I    between atoms: C2_2  and  N1_4 
REMARK    1  A    between atoms: N1_4  and  N2_6 
REMARK    2  A    between atoms: N5_15  and  N6_16 
ROOT
HETATM    1  N2  UNL     1      -9.235 -25.973  -5.021  1.00  0.00    -0.287 N 
ATOM      2  H2  UNL     1      -8.703 -26.347  -5.807  1.00  0.00     0.188 HD
HETATM    3  C3  UNL     1     -10.493 -26.271  -4.829  1.00  0.00     0.161 A 
HETATM    4  S1  UNL     1     -11.436 -25.679  -3.539  1.00  0.00    -0.051 SA
HETATM    5  C4  UNL     1     -13.035 -26.258  -3.580  1.00  0.00     0.130 A 
HETATM    6  C5  UNL     1     -14.048 -25.908  -2.595  1.00  0.00     0.110 C 
HETATM    7  N3  UNL     1     -14.839 -25.617  -1.802  1.00  0.00    -0.191 NA
HETATM    8  C6  UNL     1     -13.322 -27.101  -4.627  1.00  0.00     0.168 A 
HETATM    9  N4  UNL     1     -14.673 -27.613  -4.693  1.00  0.00    -0.078 NA
HETATM   10  N5  UNL     1     -12.455 -27.474  -5.571  1.00  0.00    -0.208 N 
HETATM   11  C7  UNL     1     -11.177 -27.114  -5.684  1.00  0.00     0.302 A 
HETATM   12  O2  UNL     1     -10.462 -27.557  -6.655  1.00  0.00    -0.263 OA
ENDROOT
BRANCH  10  13
HETATM   13  N6  UNL     1     -12.914 -28.358  -6.595  1.00  0.00    -0.334 N 
ATOM     14  H62 UNL     1     -12.698 -28.054  -7.544  1.00  0.00     0.177 HD
ATOM     15  H61 UNL     1     -13.409 -29.203  -6.311  1.00  0.00     0.177 HD
ENDBRANCH  10  13
BRANCH   1  16
HETATM   16  N1  UNL     1      -8.661 -25.106  -4.077  1.00  0.00    -0.269 N 
HETATM   17  C2  UNL     1      -7.264 -24.884  -4.065  1.00  0.00     0.232 C 
HETATM   18  C1  UNL     1      -6.690 -23.966  -3.060  1.00  0.00     0.119 C 
HETATM   19  O1  UNL     1      -6.476 -25.436  -4.875  1.00  0.00    -0.272 OA
ATOM     20  H1  UNL     1      -9.256 -24.633  -3.397  1.00  0.00     0.190 HD
ENDBRANCH   1  16
TORSDOF 2
ENDMDL
