MODEL 1
REMARK VINA RESULT: -4.588718212      0.000      0.000
REMARK  2 active torsions:
REMARK  status: ('A' for Active; 'I' for Inactive)
REMARK    1  A    between atoms: N1_1  and  C1_4 
REMARK    2  A    between atoms: N3_7  and  N4_8 
ROOT
HETATM    1  C1  UNL     1      31.084  26.927   0.275  1.00  0.00     0.166 A 
HETATM    2  N2  UNL     1      29.916  27.133   0.906  1.00  0.00    -0.260 N 
ATOM      3  H2  UNL     1      29.082  26.684   0.529  1.00  0.00     0.191 HD
HETATM    4  N3  UNL     1      29.782  27.879   1.981  1.00  0.00    -0.187 N 
HETATM    5  C2  UNL     1      30.841  28.500   2.530  1.00  0.00     0.159 A 
HETATM    6  N5  UNL     1      30.709  29.314   3.700  1.00  0.00    -0.079 NA
HETATM    7  C3  UNL     1      32.071  28.329   1.931  1.00  0.00     0.107 A 
HETATM    8  C4  UNL     1      32.206  27.540   0.795  1.00  0.00     0.219 A 
HETATM    9  O1  UNL     1      33.307  27.378   0.246  1.00  0.00    -0.284 OA
ENDROOT
BRANCH   1  10
HETATM   10  N1  UNL     1      31.116  26.173  -0.780  1.00  0.00    -0.381 N 
ATOM     11  H12 UNL     1      31.978  25.774  -1.151  1.00  0.00     0.157 HD
ATOM     12  H11 UNL     1      30.249  25.960  -1.273  1.00  0.00     0.157 HD
ENDBRANCH   1  10
BRANCH   4  13
HETATM   13  N4  UNL     1      28.525  28.052   2.591  1.00  0.00    -0.323 N 
ATOM     14  H42 UNL     1      27.694  27.814   2.050  1.00  0.00     0.179 HD
ATOM     15  H41 UNL     1      28.448  28.404   3.544  1.00  0.00     0.179 HD
ENDBRANCH   4  13
TORSDOF 2
ENDMDL
MODEL 2
REMARK VINA RESULT: -4.556706825      1.683      3.114
REMARK  2 active torsions:
REMARK  status: ('A' for Active; 'I' for Inactive)
REMARK    1  A    between atoms: N1_1  and  C1_4 
REMARK    2  A    between atoms: N3_7  and  N4_8 
ROOT
HETATM    1  C1  UNL     1      30.663  28.802   2.663  1.00  0.00     0.166 A 
HETATM    2  N2  UNL     1      29.467  28.210   2.817  1.00  0.00    -0.260 N 
ATOM      3  H2  UNL     1      29.106  28.099   3.764  1.00  0.00     0.191 HD
HETATM    4  N3  UNL     1      28.734  27.763   1.821  1.00  0.00    -0.187 N 
HETATM    5  C2  UNL     1      29.150  27.878   0.547  1.00  0.00     0.159 A 
HETATM    6  N5  UNL     1      28.361  27.397  -0.546  1.00  0.00    -0.079 NA
HETATM    7  C3  UNL     1      30.371  28.479   0.320  1.00  0.00     0.107 A 
HETATM    8  C4  UNL     1      31.141  28.947   1.376  1.00  0.00     0.219 A 
HETATM    9  O1  UNL     1      32.241  29.490   1.186  1.00  0.00    -0.284 OA
ENDROOT
BRANCH   1  10
HETATM   10  N1  UNL     1      31.313  29.211   3.708  1.00  0.00    -0.381 N 
ATOM     11  H12 UNL     1      32.303  29.456   3.685  1.00  0.00     0.157 HD
ATOM     12  H11 UNL     1      30.828  29.296   4.601  1.00  0.00     0.157 HD
ENDBRANCH   1  10
BRANCH   4  13
HETATM   13  N4  UNL     1      27.488  27.151   2.056  1.00  0.00    -0.323 N 
ATOM     14  H42 UNL     1      27.453  26.377   2.720  1.00  0.00     0.179 HD
ATOM     15  H41 UNL     1      26.647  27.471   1.578  1.00  0.00     0.179 HD
ENDBRANCH   4  13
TORSDOF 2
ENDMDL
MODEL 3
REMARK VINA RESULT: -4.446879012      2.187      3.453
REMARK  2 active torsions:
REMARK  status: ('A' for Active; 'I' for Inactive)
REMARK    1  A    between atoms: N1_1  and  C1_4 
REMARK    2  A    between atoms: N3_7  and  N4_8 
ROOT
HETATM    1  C1  UNL     1      29.212  27.964   1.804  1.00  0.00     0.166 A 
HETATM    2  N2  UNL     1      29.685  27.094   0.897  1.00  0.00    -0.260 N 
ATOM      3  H2  UNL     1      29.143  26.248   0.718  1.00  0.00     0.191 HD
HETATM    4  N3  UNL     1      30.802  27.264   0.225  1.00  0.00    -0.187 N 
HETATM    5  C2  UNL     1      31.563  28.357   0.411  1.00  0.00     0.159 A 
HETATM    6  N5  UNL     1      32.781  28.556  -0.315  1.00  0.00    -0.079 NA
HETATM    7  C3  UNL     1      31.134  29.292   1.330  1.00  0.00     0.107 A 
HETATM    8  C4  UNL     1      29.954  29.106   2.037  1.00  0.00     0.219 A 
HETATM    9  O1  UNL     1      29.556  29.939   2.866  1.00  0.00    -0.284 OA
ENDROOT
BRANCH   1  10
HETATM   10  N1  UNL     1      28.099  27.708   2.417  1.00  0.00    -0.381 N 
ATOM     11  H12 UNL     1      27.971  26.895   3.020  1.00  0.00     0.157 HD
ATOM     12  H11 UNL     1      27.305  28.339   2.304  1.00  0.00     0.157 HD
ENDBRANCH   1  10
BRANCH   4  13
HETATM   13  N4  UNL     1      31.237  26.308  -0.712  1.00  0.00    -0.323 N 
ATOM     14  H42 UNL     1      30.862  25.363  -0.640  1.00  0.00     0.179 HD
ATOM     15  H41 UNL     1      31.906  26.554  -1.441  1.00  0.00     0.179 HD
ENDBRANCH   4  13
TORSDOF 2
ENDMDL
MODEL 4
REMARK VINA RESULT: -4.443924967      2.055      3.453
REMARK  2 active torsions:
REMARK  status: ('A' for Active; 'I' for Inactive)
REMARK    1  A    between atoms: N1_1  and  C1_4 
REMARK    2  A    between atoms: N3_7  and  N4_8 
ROOT
HETATM    1  C1  UNL     1      30.064  29.250   1.952  1.00  0.00     0.166 A 
HETATM    2  N2  UNL     1      30.093  28.586   0.784  1.00  0.00    -0.260 N 
ATOM      3  H2  UNL     1      29.296  28.688   0.156  1.00  0.00     0.191 HD
HETATM    4  N3  UNL     1      31.086  27.813   0.402  1.00  0.00    -0.187 N 
HETATM    5  C2  UNL     1      32.167  27.636   1.182  1.00  0.00     0.159 A 
HETATM    6  N5  UNL     1      33.255  26.798   0.777  1.00  0.00    -0.079 NA
HETATM    7  C3  UNL     1      32.200  28.291   2.396  1.00  0.00     0.107 A 
HETATM    8  C4  UNL     1      31.148  29.105   2.794  1.00  0.00     0.219 A 
HETATM    9  O1  UNL     1      31.165  29.700   3.884  1.00  0.00    -0.284 OA
ENDROOT
BRANCH   1  10
HETATM   10  N1  UNL     1      29.039  29.990   2.242  1.00  0.00    -0.381 N 
ATOM     11  H12 UNL     1      28.384  29.763   2.990  1.00  0.00     0.157 HD
ATOM     12  H11 UNL     1      28.865  30.841   1.707  1.00  0.00     0.157 HD
ENDBRANCH   1  10
BRANCH   4  13
HETATM   13  N4  UNL     1      31.049  27.147  -0.837  1.00  0.00    -0.323 N 
ATOM     14  H42 UNL     1      31.933  26.982  -1.318  1.00  0.00     0.179 HD
ATOM     15  H41 UNL     1      30.165  26.837  -1.240  1.00  0.00     0.179 HD
ENDBRANCH   4  13
TORSDOF 2
ENDMDL
MODEL 5
REMARK VINA RESULT: -4.402865498      2.489      4.003
REMARK  2 active torsions:
REMARK  status: ('A' for Active; 'I' for Inactive)
REMARK    1  A    between atoms: N1_1  and  C1_4 
REMARK    2  A    between atoms: N3_7  and  N4_8 
ROOT
HETATM    1  C1  UNL     1      31.333  29.044   2.849  1.00  0.00     0.166 A 
HETATM    2  N2  UNL     1      32.198  28.237   2.214  1.00  0.00    -0.260 N 
ATOM      3  H2  UNL     1      33.070  28.002   2.689  1.00  0.00     0.191 HD
HETATM    4  N3  UNL     1      31.991  27.730   1.019  1.00  0.00    -0.187 N 
HETATM    5  C2  UNL     1      30.862  27.999   0.338  1.00  0.00     0.159 A 
HETATM    6  N5  UNL     1      30.624  27.453  -0.964  1.00  0.00    -0.079 NA
HETATM    7  C3  UNL     1      29.930  28.822   0.935  1.00  0.00     0.107 A 
HETATM    8  C4  UNL     1      30.156  29.354   2.198  1.00  0.00     0.219 A 
HETATM    9  O1  UNL     1      29.326  30.097   2.746  1.00  0.00    -0.284 OA
ENDROOT
BRANCH   1  10
HETATM   10  N1  UNL     1      31.627  29.495   4.029  1.00  0.00    -0.381 N 
ATOM     11  H12 UNL     1      32.454  30.061   4.218  1.00  0.00     0.157 HD
ATOM     12  H11 UNL     1      31.013  29.284   4.816  1.00  0.00     0.157 HD
ENDBRANCH   1  10
BRANCH   4  13
HETATM   13  N4  UNL     1      32.944  26.890   0.412  1.00  0.00    -0.323 N 
ATOM     14  H42 UNL     1      32.965  25.910   0.693  1.00  0.00     0.179 HD
ATOM     15  H41 UNL     1      33.592  27.251  -0.287  1.00  0.00     0.179 HD
ENDBRANCH   4  13
TORSDOF 2
ENDMDL
