MODEL 1
REMARK VINA RESULT: -6.194359124      0.000      0.000
REMARK  1 active torsions:
REMARK  status: ('A' for Active; 'I' for Inactive)
REMARK    1  A    between atoms: C3_5  and  C4_6 
ROOT
HETATM    1  C1  UNL     1       9.290  -6.800  13.830  1.00  0.00     0.041 C 
HETATM    2  C2  UNL     1       9.110  -7.829  13.031  1.00  0.00     0.041 C 
HETATM    3  N1  UNL     1       7.840  -8.204  12.578  1.00  0.00    -0.362 N 
ATOM      4  H1  UNL     1       7.101  -7.501  12.556  1.00  0.00     0.165 HD
HETATM    5  C3  UNL     1       7.560  -9.424  12.179  1.00  0.00     0.030 C 
HETATM    6  C8  UNL     1       8.672 -10.358  12.245  1.00  0.00     0.159 C 
HETATM    7  C9  UNL     1       8.911 -10.682  13.726  1.00  0.00     0.052 C 
HETATM    8  C10 UNL     1       8.556 -11.619  11.500  1.00  0.00     0.052 C 
HETATM    9  N2  UNL     1       9.866  -9.665  11.746  1.00  0.00    -0.043 N 
ATOM     10  H21 UNL     1       9.718  -9.325  10.796  1.00  0.00     0.280 HD
ATOM     11  H22 UNL     1      10.624 -10.325  11.571  1.00  0.00     0.280 HD
HETATM   12  C11 UNL     1      10.296  -8.612  12.600  1.00  0.00     0.307 C 
HETATM   13  S1  UNL     1      11.354  -7.495  11.606  1.00  0.00    -0.056 SA
ENDROOT
BRANCH   5  14
HETATM   14  C4  UNL     1       6.189  -9.714  11.721  1.00  0.00    -0.010 C 
HETATM   15  C5  UNL     1       5.221  -8.673  12.250  1.00  0.00     0.021 C 
HETATM   16  C6  UNL     1       6.085  -9.659  10.202  1.00  0.00     0.021 C 
HETATM   17  C7  UNL     1       5.686 -11.052  12.250  1.00  0.00     0.021 C 
ENDBRANCH   5  14
TORSDOF 1
ENDMDL
MODEL 2
REMARK VINA RESULT: -6.083931102      2.372      4.225
REMARK  1 active torsions:
REMARK  status: ('A' for Active; 'I' for Inactive)
REMARK    1  A    between atoms: C3_5  and  C4_6 
ROOT
HETATM    1  C1  UNL     1      13.305  -7.466  10.304  1.00  0.00     0.041 C 
HETATM    2  C2  UNL     1      12.044  -7.549  10.670  1.00  0.00     0.041 C 
HETATM    3  N1  UNL     1      11.641  -7.357  11.997  1.00  0.00    -0.362 N 
ATOM      4  H1  UNL     1      12.238  -6.808  12.615  1.00  0.00     0.165 HD
HETATM    5  C3  UNL     1      10.524  -7.854  12.479  1.00  0.00     0.030 C 
HETATM    6  C8  UNL     1       9.737  -8.622  11.528  1.00  0.00     0.159 C 
HETATM    7  C9  UNL     1      10.467  -9.954  11.298  1.00  0.00     0.052 C 
HETATM    8  C10 UNL     1       8.336  -8.906  11.865  1.00  0.00     0.052 C 
HETATM    9  N2  UNL     1       9.741  -7.891  10.255  1.00  0.00    -0.043 N 
ATOM     10  H21 UNL     1       9.368  -6.950  10.375  1.00  0.00     0.280 HD
ATOM     11  H22 UNL     1       9.039  -8.269   9.617  1.00  0.00     0.280 HD
HETATM   12  C11 UNL     1      11.021  -7.855   9.637  1.00  0.00     0.307 C 
HETATM   13  S1  UNL     1      11.018  -6.464   8.445  1.00  0.00    -0.056 SA
ENDROOT
BRANCH   5  14
HETATM   14  C4  UNL     1      10.194  -7.593  13.892  1.00  0.00    -0.010 C 
HETATM   15  C5  UNL     1      11.350  -6.900  14.588  1.00  0.00     0.021 C 
HETATM   16  C6  UNL     1       8.997  -6.661  14.021  1.00  0.00     0.021 C 
HETATM   17  C7  UNL     1       9.960  -8.885  14.667  1.00  0.00     0.021 C 
ENDBRANCH   5  14
TORSDOF 1
ENDMDL
MODEL 3
REMARK VINA RESULT: -6.050436184      1.619      2.474
REMARK  1 active torsions:
REMARK  status: ('A' for Active; 'I' for Inactive)
REMARK    1  A    between atoms: C3_5  and  C4_6 
ROOT
HETATM    1  C1  UNL     1       9.888 -10.133  14.656  1.00  0.00     0.041 C 
HETATM    2  C2  UNL     1       9.339  -9.370  13.736  1.00  0.00     0.041 C 
HETATM    3  N1  UNL     1       8.088  -9.662  13.179  1.00  0.00    -0.362 N 
ATOM      4  H1  UNL     1       7.437 -10.239  13.712  1.00  0.00     0.165 HD
HETATM    5  C3  UNL     1       7.718  -9.223  11.997  1.00  0.00     0.030 C 
HETATM    6  C8  UNL     1       8.708  -8.410  11.309  1.00  0.00     0.159 C 
HETATM    7  C9  UNL     1       9.824  -9.352  10.833  1.00  0.00     0.052 C 
HETATM    8  C10 UNL     1       8.261  -7.597  10.170  1.00  0.00     0.052 C 
HETATM    9  N2  UNL     1       9.295  -7.495  12.296  1.00  0.00    -0.043 N 
ATOM     10  H21 UNL     1       8.574  -6.919  12.730  1.00  0.00     0.280 HD
ATOM     11  H22 UNL     1       9.838  -6.763  11.835  1.00  0.00     0.280 HD
HETATM   12  C11 UNL     1      10.074  -8.162  13.281  1.00  0.00     0.307 C 
HETATM   13  S1  UNL     1      10.219  -7.039  14.721  1.00  0.00    -0.056 SA
ENDROOT
BRANCH   5  14
HETATM   14  C4  UNL     1       6.378  -9.590  11.502  1.00  0.00    -0.010 C 
HETATM   15  C5  UNL     1       5.910 -10.881  12.145  1.00  0.00     0.021 C 
HETATM   16  C6  UNL     1       5.343  -8.533  11.863  1.00  0.00     0.021 C 
HETATM   17  C7  UNL     1       6.382  -9.854  10.001  1.00  0.00     0.021 C 
ENDBRANCH   5  14
TORSDOF 1
ENDMDL
MODEL 4
REMARK VINA RESULT: -6.049959376      2.067      3.480
REMARK  1 active torsions:
REMARK  status: ('A' for Active; 'I' for Inactive)
REMARK    1  A    between atoms: C3_5  and  C4_6 
ROOT
HETATM    1  C1  UNL     1      10.787  -7.445   9.064  1.00  0.00     0.041 C 
HETATM    2  C2  UNL     1      10.815  -7.900  10.298  1.00  0.00     0.041 C 
HETATM    3  N1  UNL     1      10.215  -9.111  10.658  1.00  0.00    -0.362 N 
ATOM      4  H1  UNL     1      10.069  -9.818   9.936  1.00  0.00     0.165 HD
HETATM    5  C3  UNL     1       9.830  -9.377  11.886  1.00  0.00     0.030 C 
HETATM    6  C8  UNL     1      10.077  -8.313  12.846  1.00  0.00     0.159 C 
HETATM    7  C9  UNL     1       9.066  -7.193  12.557  1.00  0.00     0.052 C 
HETATM    8  C10 UNL     1      10.013  -8.647  14.275  1.00  0.00     0.052 C 
HETATM    9  N2  UNL     1      11.417  -7.777  12.582  1.00  0.00    -0.043 N 
ATOM     10  H21 UNL     1      12.122  -8.511  12.648  1.00  0.00     0.280 HD
ATOM     11  H22 UNL     1      11.727  -7.178  13.348  1.00  0.00     0.280 HD
HETATM   12  C11 UNL     1      11.510  -7.096  11.337  1.00  0.00     0.307 C 
HETATM   13  S1  UNL     1      13.282  -7.028  10.877  1.00  0.00    -0.056 SA
ENDROOT
BRANCH   5  14
HETATM   14  C4  UNL     1       9.207 -10.685  12.157  1.00  0.00    -0.010 C 
HETATM   15  C5  UNL     1       8.466 -11.184  10.932  1.00  0.00     0.021 C 
HETATM   16  C6  UNL     1      10.251 -11.743  12.485  1.00  0.00     0.021 C 
HETATM   17  C7  UNL     1       8.161 -10.595  13.263  1.00  0.00     0.021 C 
ENDBRANCH   5  14
TORSDOF 1
ENDMDL
MODEL 5
REMARK VINA RESULT: -6.042091227      2.297      4.583
REMARK  1 active torsions:
REMARK  status: ('A' for Active; 'I' for Inactive)
REMARK    1  A    between atoms: C3_5  and  C4_6 
ROOT
HETATM    1  C1  UNL     1       8.932 -12.202  11.964  1.00  0.00     0.041 C 
HETATM    2  C2  UNL     1       8.824 -10.894  12.051  1.00  0.00     0.041 C 
HETATM    3  N1  UNL     1       9.717 -10.030  11.409  1.00  0.00    -0.362 N 
ATOM      4  H1  UNL     1      10.227 -10.371  10.593  1.00  0.00     0.165 HD
HETATM    5  C3  UNL     1       9.927  -8.796  11.811  1.00  0.00     0.030 C 
HETATM    6  C8  UNL     1       9.159  -8.397  12.979  1.00  0.00     0.159 C 
HETATM    7  C9  UNL     1       9.769  -9.111  14.195  1.00  0.00     0.052 C 
HETATM    8  C10 UNL     1       9.058  -6.962  13.279  1.00  0.00     0.052 C 
HETATM    9  N2  UNL     1       7.793  -8.905  12.809  1.00  0.00    -0.043 N 
ATOM     10  H21 UNL     1       7.377  -8.548  11.948  1.00  0.00     0.280 HD
ATOM     11  H22 UNL     1       7.159  -8.481  13.487  1.00  0.00     0.280 HD
HETATM   12  C11 UNL     1       7.715 -10.324  12.859  1.00  0.00     0.307 C 
HETATM   13  S1  UNL     1       6.146 -10.819  12.055  1.00  0.00    -0.056 SA
ENDROOT
BRANCH   5  14
HETATM   14  C4  UNL     1      10.891  -7.970  11.062  1.00  0.00    -0.010 C 
HETATM   15  C5  UNL     1      11.783  -8.843  10.201  1.00  0.00     0.021 C 
HETATM   16  C6  UNL     1      10.184  -7.013  10.111  1.00  0.00     0.021 C 
HETATM   17  C7  UNL     1      11.830  -7.212  11.994  1.00  0.00     0.021 C 
ENDBRANCH   5  14
TORSDOF 1
ENDMDL
