MODEL 1
REMARK VINA RESULT: -7.667109769      0.000      0.000
REMARK  2 active torsions:
REMARK  status: ('A' for Active; 'I' for Inactive)
REMARK    1  A    between atoms: C6_6  and  O1_7 
REMARK    2  A    between atoms: N1_11  and  O2_13 
ROOT
HETATM    1  C1  UNL     1       9.799  -7.091   9.698  1.00  0.00     0.015 C 
HETATM    2  C2  UNL     1      10.426  -7.944  10.787  1.00  0.00    -0.043 C 
HETATM    3  C3  UNL     1      11.891  -8.145  10.383  1.00  0.00     0.015 C 
HETATM    4  C4  UNL     1      10.405  -7.156  12.053  1.00  0.00     0.011 C 
HETATM    5  C5  UNL     1      10.740  -7.969  13.273  1.00  0.00     0.033 C 
HETATM    6  C6  UNL     1       9.785  -9.121  13.377  1.00  0.00     0.128 C 
HETATM    7  C7  UNL     1       9.989  -9.990  12.158  1.00  0.00     0.067 C 
HETATM    8  C8  UNL     1       9.239 -11.240  12.219  1.00  0.00     0.017 C 
HETATM    9  N1  UNL     1       9.709 -12.293  12.795  1.00  0.00    -0.277 N 
ATOM     10  H1  UNL     1       9.172 -13.160  12.828  1.00  0.00     0.193 HD
HETATM   11  C9  UNL     1       7.872 -11.402  11.620  1.00  0.00     0.055 C 
HETATM   12  C10 UNL     1       7.704 -10.559  10.390  1.00  0.00     0.006 C 
HETATM   13  C11 UNL     1       8.254  -9.171  10.548  1.00  0.00     0.006 C 
HETATM   14  C12 UNL     1       9.720  -9.264  10.871  1.00  0.00     0.005 C 
ENDROOT
BRANCH   9  15
HETATM   15  O2  UNL     1      10.955 -12.209  13.362  1.00  0.00    -0.290 OA
ATOM     16  H2  UNL     1      11.400 -11.371  13.328  1.00  0.00     0.244 HD
ENDBRANCH   9  15
BRANCH   6  17
HETATM   17  O1  UNL     1       8.481  -8.721  13.556  1.00  0.00    -0.395 OA
ATOM     18  H1  UNL     1       8.042  -9.193  14.253  1.00  0.00     0.210 HD
ENDBRANCH   6  17
TORSDOF 2
ENDMDL
MODEL 2
REMARK VINA RESULT: -7.563940141      1.976      2.802
REMARK  2 active torsions:
REMARK  status: ('A' for Active; 'I' for Inactive)
REMARK    1  A    between atoms: C6_6  and  O1_7 
REMARK    2  A    between atoms: N1_11  and  O2_13 
ROOT
HETATM    1  C1  UNL     1      11.559  -5.829   7.937  1.00  0.00     0.015 C 
HETATM    2  C2  UNL     1      11.963  -7.013   8.799  1.00  0.00    -0.043 C 
HETATM    3  C3  UNL     1      12.827  -7.915   7.909  1.00  0.00     0.015 C 
HETATM    4  C4  UNL     1      12.823  -6.502   9.903  1.00  0.00     0.011 C 
HETATM    5  C5  UNL     1      13.073  -7.512  10.988  1.00  0.00     0.033 C 
HETATM    6  C6  UNL     1      11.759  -7.977  11.543  1.00  0.00     0.128 C 
HETATM    7  C7  UNL     1      11.010  -8.660  10.422  1.00  0.00     0.067 C 
HETATM    8  C8  UNL     1       9.785  -9.312  10.871  1.00  0.00     0.017 C 
HETATM    9  N1  UNL     1       9.778 -10.515  11.333  1.00  0.00    -0.277 N 
ATOM     10  H1  UNL     1       8.912 -10.956  11.642  1.00  0.00     0.193 HD
HETATM   11  C9  UNL     1       8.442  -8.641  10.830  1.00  0.00     0.055 C 
HETATM   12  C10 UNL     1       8.332  -7.693   9.672  1.00  0.00     0.006 C 
HETATM   13  C11 UNL     1       9.559  -6.847   9.486  1.00  0.00     0.006 C 
HETATM   14  C12 UNL     1      10.741  -7.749   9.258  1.00  0.00     0.005 C 
ENDROOT
BRANCH   9  15
HETATM   15  O2  UNL     1      10.975 -11.182  11.396  1.00  0.00    -0.290 OA
ATOM     16  H2  UNL     1      11.757 -10.711  11.134  1.00  0.00     0.244 HD
ENDBRANCH   9  15
BRANCH   6  17
HETATM   17  O1  UNL     1      11.045  -6.969  12.146  1.00  0.00    -0.395 OA
ATOM     18  H1  UNL     1      10.575  -7.259  12.918  1.00  0.00     0.210 HD
ENDBRANCH   6  17
TORSDOF 2
ENDMDL
MODEL 3
REMARK VINA RESULT: -7.123175067      1.966      3.356
REMARK  2 active torsions:
REMARK  status: ('A' for Active; 'I' for Inactive)
REMARK    1  A    between atoms: C6_6  and  O1_7 
REMARK    2  A    between atoms: N1_11  and  O2_13 
ROOT
HETATM    1  C1  UNL     1      10.567  -7.928  14.776  1.00  0.00     0.015 C 
HETATM    2  C2  UNL     1       9.907  -7.835  13.411  1.00  0.00    -0.043 C 
HETATM    3  C3  UNL     1       8.867  -6.713  13.514  1.00  0.00     0.015 C 
HETATM    4  C4  UNL     1      10.945  -7.407  12.431  1.00  0.00     0.011 C 
HETATM    5  C5  UNL     1      10.509  -7.537  10.998  1.00  0.00     0.033 C 
HETATM    6  C6  UNL     1      10.113  -8.958  10.728  1.00  0.00     0.128 C 
HETATM    7  C7  UNL     1       8.930  -9.274  11.614  1.00  0.00     0.067 C 
HETATM    8  C8  UNL     1       8.336 -10.575  11.327  1.00  0.00     0.017 C 
HETATM    9  N1  UNL     1       7.436 -10.732  10.418  1.00  0.00    -0.277 N 
ATOM     10  H1  UNL     1       7.030 -11.648  10.230  1.00  0.00     0.193 HD
HETATM   11  C9  UNL     1       8.720 -11.828  12.061  1.00  0.00     0.055 C 
HETATM   12  C10 UNL     1       9.092 -11.541  13.486  1.00  0.00     0.006 C 
HETATM   13  C11 UNL     1       9.967 -10.330  13.634  1.00  0.00     0.006 C 
HETATM   14  C12 UNL     1       9.242  -9.136  13.077  1.00  0.00     0.005 C 
ENDROOT
BRANCH   9  15
HETATM   15  O2  UNL     1       7.042  -9.624   9.711  1.00  0.00    -0.290 OA
ATOM     16  H2  UNL     1       7.419  -8.787   9.955  1.00  0.00     0.244 HD
ENDBRANCH   9  15
BRANCH   6  17
HETATM   17  O1  UNL     1      11.157  -9.841  10.869  1.00  0.00    -0.395 OA
ATOM     18  H1  UNL     1      11.044 -10.432  11.604  1.00  0.00     0.210 HD
ENDBRANCH   6  17
TORSDOF 2
ENDMDL
MODEL 4
REMARK VINA RESULT: -7.085479755      2.388      4.017
REMARK  2 active torsions:
REMARK  status: ('A' for Active; 'I' for Inactive)
REMARK    1  A    between atoms: C6_6  and  O1_7 
REMARK    2  A    between atoms: N1_11  and  O2_13 
ROOT
HETATM    1  C1  UNL     1       7.476  -7.216   9.178  1.00  0.00     0.015 C 
HETATM    2  C2  UNL     1       8.068  -7.536  10.540  1.00  0.00    -0.043 C 
HETATM    3  C3  UNL     1       7.253  -6.731  11.560  1.00  0.00     0.015 C 
HETATM    4  C4  UNL     1       7.835  -8.984  10.810  1.00  0.00     0.011 C 
HETATM    5  C5  UNL     1       8.602  -9.505  11.993  1.00  0.00     0.033 C 
HETATM    6  C6  UNL     1      10.066  -9.258  11.782  1.00  0.00     0.128 C 
HETATM    7  C7  UNL     1      10.267  -7.762  11.708  1.00  0.00     0.067 C 
HETATM    8  C8  UNL     1      11.674  -7.378  11.675  1.00  0.00     0.017 C 
HETATM    9  N1  UNL     1      12.365  -7.212  12.750  1.00  0.00    -0.277 N 
ATOM     10  H1  UNL     1      13.348  -6.943  12.710  1.00  0.00     0.193 HD
HETATM   11  C9  UNL     1      12.426  -7.145  10.397  1.00  0.00     0.055 C 
HETATM   12  C10 UNL     1      11.536  -6.588   9.325  1.00  0.00     0.006 C 
HETATM   13  C11 UNL     1      10.202  -7.273   9.253  1.00  0.00     0.006 C 
HETATM   14  C12 UNL     1       9.508  -7.124  10.580  1.00  0.00     0.005 C 
ENDROOT
BRANCH   9  15
HETATM   15  O2  UNL     1      11.734  -7.410  13.952  1.00  0.00    -0.290 OA
ATOM     16  H2  UNL     1      12.034  -8.129  14.496  1.00  0.00     0.244 HD
ENDBRANCH   9  15
BRANCH   6  17
HETATM   17  O1  UNL     1      10.572  -9.934  10.696  1.00  0.00    -0.395 OA
ATOM     18  H1  UNL     1      11.490  -9.745  10.538  1.00  0.00     0.210 HD
ENDBRANCH   6  17
TORSDOF 2
ENDMDL
MODEL 5
REMARK VINA RESULT: -6.976220385      1.786      3.883
REMARK  2 active torsions:
REMARK  status: ('A' for Active; 'I' for Inactive)
REMARK    1  A    between atoms: C6_6  and  O1_7 
REMARK    2  A    between atoms: N1_11  and  O2_13 
ROOT
HETATM    1  C1  UNL     1       6.662 -10.090  10.007  1.00  0.00     0.015 C 
HETATM    2  C2  UNL     1       7.317 -10.435  11.333  1.00  0.00    -0.043 C 
HETATM    3  C3  UNL     1       6.172 -10.693  12.320  1.00  0.00     0.015 C 
HETATM    4  C4  UNL     1       8.064 -11.713  11.155  1.00  0.00     0.011 C 
HETATM    5  C5  UNL     1       8.983 -12.036  12.299  1.00  0.00     0.033 C 
HETATM    6  C6  UNL     1       9.951 -10.906  12.491  1.00  0.00     0.128 C 
HETATM    7  C7  UNL     1       9.148  -9.680  12.860  1.00  0.00     0.067 C 
HETATM    8  C8  UNL     1       9.983  -8.547  13.243  1.00  0.00     0.017 C 
HETATM    9  N1  UNL     1      10.404  -8.382  14.449  1.00  0.00    -0.277 N 
ATOM     10  H1  UNL     1      10.987  -7.584  14.700  1.00  0.00     0.193 HD
HETATM   11  C9  UNL     1      10.416  -7.487  12.270  1.00  0.00     0.055 C 
HETATM   12  C10 UNL     1       9.379  -7.251  11.212  1.00  0.00     0.006 C 
HETATM   13  C11 UNL     1       8.792  -8.522  10.669  1.00  0.00     0.006 C 
HETATM   14  C12 UNL     1       8.160  -9.287  11.799  1.00  0.00     0.005 C 
ENDROOT
BRANCH   9  15
HETATM   15  O2  UNL     1      10.042  -9.317  15.385  1.00  0.00    -0.290 OA
ATOM     16  H2  UNL     1      10.461  -9.276  16.237  1.00  0.00     0.244 HD
ENDBRANCH   9  15
BRANCH   6  17
HETATM   17  O1  UNL     1      10.775 -10.717  11.407  1.00  0.00    -0.395 OA
ATOM     18  H1  UNL     1      10.552  -9.943  10.904  1.00  0.00     0.210 HD
ENDBRANCH   6  17
TORSDOF 2
ENDMDL
