MODEL 1
REMARK VINA RESULT: -6.316872092      0.000      0.000
REMARK  3 active torsions:
REMARK  status: ('A' for Active; 'I' for Inactive)
REMARK    1  A    between atoms: C2_2  and  O2_4 
REMARK    2  A    between atoms: O2_4  and  C3_5 
REMARK    3  A    between atoms: C10_12  and  O3_14 
ROOT
HETATM    1  C3  UNL     1       6.097 -21.955  23.708  1.00  0.00     0.122 C 
HETATM    2  C4  UNL     1       5.157 -21.167  24.136  1.00  0.00    -0.004 C 
HETATM    3  C5  UNL     1       5.401 -20.009  25.075  1.00  0.00     0.056 C 
HETATM    4  C6  UNL     1       4.836 -18.717  24.505  1.00  0.00     0.013 C 
HETATM    5  C7  UNL     1       3.547 -18.875  23.799  1.00  0.00     0.008 C 
HETATM    6  C8  UNL     1       3.416 -20.089  22.916  1.00  0.00     0.020 C 
HETATM    7  C9  UNL     1       1.989 -20.124  22.408  1.00  0.00     0.013 C 
HETATM    8  C10 UNL     1       3.704 -21.277  23.813  1.00  0.00     0.084 C 
HETATM    9  C11 UNL     1       3.177 -22.566  23.380  1.00  0.00     0.051 C 
HETATM   10  C12 UNL     1       6.815 -19.867  25.506  1.00  0.00     0.105 A 
HETATM   11  C13 UNL     1       7.009 -20.581  26.856  1.00  0.00     0.048 C 
HETATM   12  C14 UNL     1       7.304 -18.504  25.698  1.00  0.00     0.185 A 
HETATM   13  O4  UNL     1       6.812 -17.524  26.315  1.00  0.00    -0.290 OA
HETATM   14  C15 UNL     1       8.578 -18.434  25.001  1.00  0.00     0.009 A 
HETATM   15  C16 UNL     1       9.489 -17.231  24.986  1.00  0.00     0.054 C 
HETATM   16  C17 UNL     1       8.819 -19.577  24.383  1.00  0.00     0.017 A 
HETATM   17  C18 UNL     1      10.064 -19.850  23.559  1.00  0.00     0.068 C 
HETATM   18  N1  UNL     1       7.753 -20.469  24.614  1.00  0.00    -0.326 N 
HETATM   19  C19 UNL     1       7.507 -21.815  24.104  1.00  0.00     0.240 C 
HETATM   20 CL1  UNL     1       7.907 -23.005  25.408  1.00  0.00    -0.070 Cl
HETATM   21 CL2  UNL     1       8.575 -22.228  22.748  1.00  0.00    -0.070 Cl
ENDROOT
BRANCH   1  22
HETATM   22  O2  UNL     1       5.836 -23.009  22.837  1.00  0.00    -0.278 OA
BRANCH  22  23
HETATM   23  C2  UNL     1       6.057 -24.327  23.183  1.00  0.00     0.259 C 
HETATM   24  C1  UNL     1       5.316 -25.004  24.282  1.00  0.00     0.126 C 
HETATM   25  O1  UNL     1       6.917 -24.974  22.543  1.00  0.00    -0.265 OA
ENDBRANCH  22  23
ENDBRANCH   1  22
BRANCH   8  26
HETATM   26  O3  UNL     1       3.025 -20.953  25.032  1.00  0.00    -0.385 OA
ATOM     27  H3  UNL     1       3.227 -20.039  25.193  1.00  0.00     0.211 HD
ENDBRANCH   8  26
TORSDOF 3
ENDMDL
MODEL 2
REMARK VINA RESULT: -6.294300670      1.573      1.943
REMARK  3 active torsions:
REMARK  status: ('A' for Active; 'I' for Inactive)
REMARK    1  A    between atoms: C2_2  and  O2_4 
REMARK    2  A    between atoms: O2_4  and  C3_5 
REMARK    3  A    between atoms: C10_12  and  O3_14 
ROOT
HETATM    1  C3  UNL     1       4.843 -21.314  23.817  1.00  0.00     0.122 C 
HETATM    2  C4  UNL     1       4.565 -20.115  24.230  1.00  0.00    -0.004 C 
HETATM    3  C5  UNL     1       5.554 -19.228  24.948  1.00  0.00     0.056 C 
HETATM    4  C6  UNL     1       5.673 -17.875  24.262  1.00  0.00     0.013 C 
HETATM    5  C7  UNL     1       4.395 -17.341  23.746  1.00  0.00     0.008 C 
HETATM    6  C8  UNL     1       3.479 -18.333  23.077  1.00  0.00     0.020 C 
HETATM    7  C9  UNL     1       2.189 -17.607  22.753  1.00  0.00     0.013 C 
HETATM    8  C10 UNL     1       3.247 -19.425  24.102  1.00  0.00     0.084 C 
HETATM    9  C11 UNL     1       2.045 -20.235  23.933  1.00  0.00     0.051 C 
HETATM   10  C12 UNL     1       6.876 -19.863  25.182  1.00  0.00     0.105 A 
HETATM   11  C13 UNL     1       6.900 -20.481  26.592  1.00  0.00     0.048 C 
HETATM   12  C14 UNL     1       8.042 -18.985  25.108  1.00  0.00     0.185 A 
HETATM   13  O4  UNL     1       8.271 -17.861  25.625  1.00  0.00    -0.290 OA
HETATM   14  C15 UNL     1       9.005 -19.671  24.262  1.00  0.00     0.009 A 
HETATM   15  C16 UNL     1      10.397 -19.172  23.958  1.00  0.00     0.054 C 
HETATM   16  C17 UNL     1       8.483 -20.793  23.799  1.00  0.00     0.017 A 
HETATM   17  C18 UNL     1       9.216 -21.756  22.883  1.00  0.00     0.068 C 
HETATM   18  N1  UNL     1       7.168 -20.934  24.286  1.00  0.00    -0.326 N 
HETATM   19  C19 UNL     1       6.154 -21.951  24.016  1.00  0.00     0.240 C 
HETATM   20 CL1  UNL     1       6.087 -23.082  25.428  1.00  0.00    -0.070 Cl
HETATM   21 CL2  UNL     1       6.570 -22.965  22.621  1.00  0.00    -0.070 Cl
ENDROOT
BRANCH   1  22
HETATM   22  O2  UNL     1       3.907 -22.101  23.151  1.00  0.00    -0.278 OA
BRANCH  22  23
HETATM   23  C2  UNL     1       3.414 -23.276  23.684  1.00  0.00     0.259 C 
HETATM   24  C1  UNL     1       2.669 -23.322  24.972  1.00  0.00     0.126 C 
HETATM   25  O1  UNL     1       3.605 -24.341  23.055  1.00  0.00    -0.265 OA
ENDBRANCH  22  23
ENDBRANCH   1  22
BRANCH   8  26
HETATM   26  O3  UNL     1       3.079 -18.708  25.330  1.00  0.00    -0.385 OA
ATOM     27  H3  UNL     1       2.184 -18.880  25.597  1.00  0.00     0.211 HD
ENDBRANCH   8  26
TORSDOF 3
ENDMDL
MODEL 3
REMARK VINA RESULT: -5.783717819      6.256      9.212
REMARK  3 active torsions:
REMARK  status: ('A' for Active; 'I' for Inactive)
REMARK    1  A    between atoms: C2_2  and  O2_4 
REMARK    2  A    between atoms: O2_4  and  C3_5 
REMARK    3  A    between atoms: C10_12  and  O3_14 
ROOT
HETATM    1  C3  UNL     1       1.432 -16.403  21.756  1.00  0.00     0.122 C 
HETATM    2  C4  UNL     1       0.539 -17.322  21.543  1.00  0.00    -0.004 C 
HETATM    3  C5  UNL     1      -0.935 -17.034  21.384  1.00  0.00     0.056 C 
HETATM    4  C6  UNL     1      -1.471 -17.636  20.093  1.00  0.00     0.013 C 
HETATM    5  C7  UNL     1      -0.906 -18.960  19.759  1.00  0.00     0.008 C 
HETATM    6  C8  UNL     1       0.572 -19.133  19.993  1.00  0.00     0.020 C 
HETATM    7  C9  UNL     1       0.906 -20.585  19.717  1.00  0.00     0.013 C 
HETATM    8  C10 UNL     1       0.794 -18.790  21.453  1.00  0.00     0.084 C 
HETATM    9  C11 UNL     1       1.997 -19.333  22.075  1.00  0.00     0.051 C 
HETATM   10  C12 UNL     1      -1.290 -15.600  21.530  1.00  0.00     0.105 A 
HETATM   11  C13 UNL     1      -1.726 -15.330  22.982  1.00  0.00     0.048 C 
HETATM   12  C14 UNL     1      -2.377 -15.109  20.686  1.00  0.00     0.185 A 
HETATM   13  O4  UNL     1      -3.524 -15.572  20.454  1.00  0.00    -0.290 OA
HETATM   14  C15 UNL     1      -1.893 -13.875  20.089  1.00  0.00     0.009 A 
HETATM   15  C16 UNL     1      -2.705 -12.972  19.193  1.00  0.00     0.054 C 
HETATM   16  C17 UNL     1      -0.638 -13.661  20.445  1.00  0.00     0.017 A 
HETATM   17  C18 UNL     1       0.178 -12.461  20.001  1.00  0.00     0.068 C 
HETATM   18  N1  UNL     1      -0.204 -14.708  21.281  1.00  0.00    -0.326 N 
HETATM   19  C19 UNL     1       1.103 -14.974  21.878  1.00  0.00     0.240 C 
HETATM   20 CL1  UNL     1       1.044 -14.498  23.623  1.00  0.00    -0.070 Cl
HETATM   21 CL2  UNL     1       2.386 -13.979  21.162  1.00  0.00    -0.070 Cl
ENDROOT
BRANCH   1  22
HETATM   22  O2  UNL     1       2.784 -16.704  21.891  1.00  0.00    -0.278 OA
BRANCH  22  23
HETATM   23  C2  UNL     1       3.491 -16.435  23.046  1.00  0.00     0.259 C 
HETATM   24  C1  UNL     1       3.119 -17.012  24.367  1.00  0.00     0.126 C 
HETATM   25  O1  UNL     1       4.482 -15.674  22.974  1.00  0.00    -0.265 OA
ENDBRANCH  22  23
ENDBRANCH   1  22
BRANCH   8  26
HETATM   26  O3  UNL     1      -0.315 -19.404  22.118  1.00  0.00    -0.385 OA
ATOM     27  H3  UNL     1      -0.671 -20.021  21.489  1.00  0.00     0.211 HD
ENDBRANCH   8  26
TORSDOF 3
ENDMDL
MODEL 4
REMARK VINA RESULT: -5.740922958      7.151      8.972
REMARK  3 active torsions:
REMARK  status: ('A' for Active; 'I' for Inactive)
REMARK    1  A    between atoms: C2_2  and  O2_4 
REMARK    2  A    between atoms: O2_4  and  C3_5 
REMARK    3  A    between atoms: C10_12  and  O3_14 
ROOT
HETATM    1  C3  UNL     1      -0.907 -17.126  23.010  1.00  0.00     0.122 C 
HETATM    2  C4  UNL     1      -0.836 -15.867  23.321  1.00  0.00    -0.004 C 
HETATM    3  C5  UNL     1       0.270 -14.951  22.853  1.00  0.00     0.056 C 
HETATM    4  C6  UNL     1      -0.297 -13.714  22.173  1.00  0.00     0.013 C 
HETATM    5  C7  UNL     1      -1.521 -13.179  22.804  1.00  0.00     0.008 C 
HETATM    6  C8  UNL     1      -2.536 -14.197  23.257  1.00  0.00     0.020 C 
HETATM    7  C9  UNL     1      -3.631 -13.446  23.988  1.00  0.00     0.013 C 
HETATM    8  C10 UNL     1      -1.791 -15.124  24.196  1.00  0.00     0.084 C 
HETATM    9  C11 UNL     1      -2.599 -15.875  25.150  1.00  0.00     0.051 C 
HETATM   10  C12 UNL     1       1.306 -15.626  22.031  1.00  0.00     0.105 A 
HETATM   11  C13 UNL     1       2.478 -16.047  22.936  1.00  0.00     0.048 C 
HETATM   12  C14 UNL     1       1.896 -14.838  20.951  1.00  0.00     0.185 A 
HETATM   13  O4  UNL     1       2.362 -13.669  20.933  1.00  0.00    -0.290 OA
HETATM   14  C15 UNL     1       1.864 -15.689  19.773  1.00  0.00     0.009 A 
HETATM   15  C16 UNL     1       2.437 -15.320  18.426  1.00  0.00     0.054 C 
HETATM   16  C17 UNL     1       1.260 -16.830  20.054  1.00  0.00     0.017 A 
HETATM   17  C18 UNL     1       1.054 -17.951  19.052  1.00  0.00     0.068 C 
HETATM   18  N1  UNL     1       0.853 -16.825  21.403  1.00  0.00    -0.326 N 
HETATM   19  C19 UNL     1       0.096 -17.806  22.176  1.00  0.00     0.240 C 
HETATM   20 CL1  UNL     1       1.250 -18.728  23.221  1.00  0.00    -0.070 Cl
HETATM   21 CL2  UNL     1      -0.679 -19.024  21.144  1.00  0.00    -0.070 Cl
ENDROOT
BRANCH   1  22
HETATM   22  O2  UNL     1      -1.946 -17.939  23.453  1.00  0.00    -0.278 OA
BRANCH  22  23
HETATM   23  C2  UNL     1      -3.076 -18.175  22.695  1.00  0.00     0.259 C 
HETATM   24  C1  UNL     1      -3.571 -17.214  21.672  1.00  0.00     0.126 C 
HETATM   25  O1  UNL     1      -3.705 -19.240  22.881  1.00  0.00    -0.265 OA
ENDBRANCH  22  23
ENDBRANCH   1  22
BRANCH   8  26
HETATM   26  O3  UNL     1      -0.975 -14.237  24.970  1.00  0.00    -0.385 OA
ATOM     27  H3  UNL     1      -1.446 -13.413  24.981  1.00  0.00     0.211 HD
ENDBRANCH   8  26
TORSDOF 3
ENDMDL
MODEL 5
REMARK VINA RESULT: -5.638915439      5.731      7.927
REMARK  3 active torsions:
REMARK  status: ('A' for Active; 'I' for Inactive)
REMARK    1  A    between atoms: C2_2  and  O2_4 
REMARK    2  A    between atoms: O2_4  and  C3_5 
REMARK    3  A    between atoms: C10_12  and  O3_14 
ROOT
HETATM    1  C3  UNL     1       0.656 -17.697  19.890  1.00  0.00     0.122 C 
HETATM    2  C4  UNL     1       0.998 -16.445  19.939  1.00  0.00    -0.004 C 
HETATM    3  C5  UNL     1       1.451 -15.751  21.201  1.00  0.00     0.056 C 
HETATM    4  C6  UNL     1       2.794 -15.066  20.996  1.00  0.00     0.013 C 
HETATM    5  C7  UNL     1       2.958 -14.434  19.670  1.00  0.00     0.008 C 
HETATM    6  C8  UNL     1       2.436 -15.213  18.491  1.00  0.00     0.020 C 
HETATM    7  C9  UNL     1       2.583 -14.331  17.268  1.00  0.00     0.013 C 
HETATM    8  C10 UNL     1       0.977 -15.484  18.797  1.00  0.00     0.084 C 
HETATM    9  C11 UNL     1       0.113 -15.768  17.656  1.00  0.00     0.051 C 
HETATM   10  C12 UNL     1       1.435 -16.618  22.407  1.00  0.00     0.105 A 
HETATM   11  C13 UNL     1       0.107 -16.418  23.160  1.00  0.00     0.048 C 
HETATM   12  C14 UNL     1       2.492 -16.387  23.389  1.00  0.00     0.185 A 
HETATM   13  O4  UNL     1       2.922 -15.328  23.915  1.00  0.00    -0.290 OA
HETATM   14  C15 UNL     1       3.035 -17.698  23.706  1.00  0.00     0.009 A 
HETATM   15  C16 UNL     1       4.108 -17.962  24.735  1.00  0.00     0.054 C 
HETATM   16  C17 UNL     1       2.454 -18.622  22.962  1.00  0.00     0.017 A 
HETATM   17  C18 UNL     1       2.782 -20.102  23.036  1.00  0.00     0.068 C 
HETATM   18  N1  UNL     1       1.507 -18.013  22.115  1.00  0.00    -0.326 N 
HETATM   19  C19 UNL     1       0.659 -18.579  21.068  1.00  0.00     0.240 C 
HETATM   20 CL1  UNL     1      -1.021 -18.749  21.720  1.00  0.00    -0.070 Cl
HETATM   21 CL2  UNL     1       1.154 -20.221  20.613  1.00  0.00    -0.070 Cl
ENDROOT
BRANCH   1  22
HETATM   22  O2  UNL     1       0.251 -18.307  18.706  1.00  0.00    -0.278 OA
BRANCH  22  23
HETATM   23  C2  UNL     1      -1.016 -18.829  18.539  1.00  0.00     0.259 C 
HETATM   24  C1  UNL     1      -2.247 -17.998  18.640  1.00  0.00     0.126 C 
HETATM   25  O1  UNL     1      -1.128 -20.051  18.292  1.00  0.00    -0.265 OA
ENDBRANCH  22  23
ENDBRANCH   1  22
BRANCH   8  26
HETATM   26  O3  UNL     1       0.513 -14.250  19.355  1.00  0.00    -0.385 OA
ATOM     27  H3  UNL     1       0.087 -13.797  18.637  1.00  0.00     0.211 HD
ENDBRANCH   8  26
TORSDOF 3
ENDMDL
