MODEL 1
REMARK VINA RESULT: -6.149779370      0.000      0.000
REMARK  5 active torsions:
REMARK  status: ('A' for Active; 'I' for Inactive)
REMARK    1  A    between atoms: N2_5  and  C4_6 
REMARK    2  A    between atoms: C5_7  and  O1_8 
REMARK    3  A    between atoms: N3_10  and  C6_11 
REMARK    4  A    between atoms: C6_11  and  C7_12 
REMARK    5  A    between atoms: N4_13  and  O2_15 
ROOT
HETATM    1  C4  UNL     1       5.918 -20.879  24.077  1.00  0.00     0.095 A 
HETATM    2  C5  UNL     1       6.192 -19.559  24.363  1.00  0.00     0.171 A 
HETATM    3  N3  UNL     1       7.493 -19.329  24.121  1.00  0.00    -0.320 N 
HETATM    4  C8  UNL     1       8.066 -20.495  23.680  1.00  0.00     0.056 A 
HETATM    5  C9  UNL     1       9.338 -20.833  23.291  1.00  0.00     0.080 A 
HETATM    6  S1  UNL     1       9.201 -22.475  22.885  1.00  0.00    -0.110 SA
HETATM    7  C10 UNL     1       7.534 -22.700  23.216  1.00  0.00     0.065 A 
HETATM    8  C11 UNL     1       7.132 -21.458  23.641  1.00  0.00     0.029 A 
ENDROOT
BRANCH   1   9
HETATM    9  N2  UNL     1       4.634 -21.534  24.187  1.00  0.00    -0.373 N 
HETATM   10  C3  UNL     1       3.782 -21.428  23.047  1.00  0.00     0.153 C 
HETATM   11  C2  UNL     1       2.509 -22.153  23.034  1.00  0.00     0.291 C 
HETATM   12  N1  UNL     1       2.318 -23.110  24.087  1.00  0.00     0.087 N 
HETATM   13  C1  UNL     1       2.889 -24.383  23.698  1.00  0.00     0.310 C 
HETATM   14  C13 UNL     1       2.796 -22.643  25.355  1.00  0.00     0.291 C 
HETATM   15  C12 UNL     1       4.229 -22.228  25.351  1.00  0.00     0.153 C 
ENDBRANCH   1   9
BRANCH   2  16
HETATM   16  O1  UNL     1       5.303 -18.580  24.828  1.00  0.00    -0.344 OA
ATOM     17  H1  UNL     1       4.354 -18.605  24.818  1.00  0.00     0.219 HD
ENDBRANCH   2  16
BRANCH   3  18
HETATM   18  C6  UNL     1       8.126 -18.041  24.315  1.00  0.00     0.178 C 
BRANCH  18  19
HETATM   19  C7  UNL     1       8.763 -17.975  25.658  1.00  0.00     0.107 C 
HETATM   20  N4  UNL     1       9.905 -17.372  25.767  1.00  0.00    -0.283 N 
ATOM     21  H4  UNL     1      10.357 -16.953  24.955  1.00  0.00     0.192 HD
BRANCH  20  22
HETATM   22  O2  UNL     1      10.489 -17.314  27.012  1.00  0.00    -0.291 OA
ATOM     23  H2  UNL     1      10.298 -16.563  27.560  1.00  0.00     0.244 HD
ENDBRANCH  20  22
ENDBRANCH  18  19
ENDBRANCH   3  18
TORSDOF 5
ENDMDL
MODEL 2
REMARK VINA RESULT: -6.118896092      3.185      6.883
REMARK  5 active torsions:
REMARK  status: ('A' for Active; 'I' for Inactive)
REMARK    1  A    between atoms: N2_5  and  C4_6 
REMARK    2  A    between atoms: C5_7  and  O1_8 
REMARK    3  A    between atoms: N3_10  and  C6_11 
REMARK    4  A    between atoms: C6_11  and  C7_12 
REMARK    5  A    between atoms: N4_13  and  O2_15 
ROOT
HETATM    1  C4  UNL     1       5.024 -21.302  24.078  1.00  0.00     0.095 A 
HETATM    2  C5  UNL     1       4.767 -22.647  23.926  1.00  0.00     0.171 A 
HETATM    3  N3  UNL     1       3.520 -22.796  23.450  1.00  0.00    -0.320 N 
HETATM    4  C8  UNL     1       2.965 -21.551  23.292  1.00  0.00     0.056 A 
HETATM    5  C9  UNL     1       1.743 -21.113  22.846  1.00  0.00     0.080 A 
HETATM    6  S1  UNL     1       1.866 -19.424  22.957  1.00  0.00    -0.110 SA
HETATM    7  C10 UNL     1       3.465 -19.307  23.567  1.00  0.00     0.065 A 
HETATM    8  C11 UNL     1       3.856 -20.619  23.665  1.00  0.00     0.029 A 
ENDROOT
BRANCH   1   9
HETATM    9  N2  UNL     1       6.254 -20.709  24.550  1.00  0.00    -0.373 N 
HETATM   10  C3  UNL     1       7.394 -20.889  23.711  1.00  0.00     0.153 C 
HETATM   11  C2  UNL     1       8.654 -20.229  24.062  1.00  0.00     0.291 C 
HETATM   12  N1  UNL     1       8.583 -19.253  25.113  1.00  0.00     0.087 N 
HETATM   13  C1  UNL     1       8.223 -17.965  24.557  1.00  0.00     0.310 C 
HETATM   14  C13 UNL     1       7.730 -19.659  26.191  1.00  0.00     0.291 C 
HETATM   15  C12 UNL     1       6.340 -20.002  25.772  1.00  0.00     0.153 C 
ENDBRANCH   1   9
BRANCH   2  16
HETATM   16  O1  UNL     1       5.625 -23.720  24.206  1.00  0.00    -0.344 OA
ATOM     17  H1  UNL     1       5.713 -24.534  23.725  1.00  0.00     0.219 HD
ENDBRANCH   2  16
BRANCH   3  18
HETATM   18  C6  UNL     1       2.919 -24.083  23.172  1.00  0.00     0.178 C 
BRANCH  18  19
HETATM   19  C7  UNL     1       2.194 -24.586  24.370  1.00  0.00     0.107 C 
HETATM   20  N4  UNL     1       1.795 -25.818  24.375  1.00  0.00    -0.283 N 
ATOM     21  H4  UNL     1       1.972 -26.430  23.578  1.00  0.00     0.192 HD
BRANCH  20  22
HETATM   22  O2  UNL     1       1.125 -26.277  25.485  1.00  0.00    -0.291 OA
ATOM     23  H2  UNL     1       0.219 -26.016  25.600  1.00  0.00     0.244 HD
ENDBRANCH  20  22
ENDBRANCH  18  19
ENDBRANCH   3  18
TORSDOF 5
ENDMDL
MODEL 3
REMARK VINA RESULT: -5.952831663      3.721      4.880
REMARK  5 active torsions:
REMARK  status: ('A' for Active; 'I' for Inactive)
REMARK    1  A    between atoms: N2_5  and  C4_6 
REMARK    2  A    between atoms: C5_7  and  O1_8 
REMARK    3  A    between atoms: N3_10  and  C6_11 
REMARK    4  A    between atoms: C6_11  and  C7_12 
REMARK    5  A    between atoms: N4_13  and  O2_15 
ROOT
HETATM    1  C4  UNL     1       9.022 -20.541  23.809  1.00  0.00     0.095 A 
HETATM    2  C5  UNL     1      10.199 -21.153  23.438  1.00  0.00     0.171 A 
HETATM    3  N3  UNL     1      11.199 -20.262  23.548  1.00  0.00    -0.320 N 
HETATM    4  C8  UNL     1      10.675 -19.073  23.989  1.00  0.00     0.056 A 
HETATM    5  C9  UNL     1      11.225 -17.848  24.274  1.00  0.00     0.080 A 
HETATM    6  S1  UNL     1       9.889 -16.924  24.767  1.00  0.00    -0.110 SA
HETATM    7  C10 UNL     1       8.662 -18.109  24.603  1.00  0.00     0.065 A 
HETATM    8  C11 UNL     1       9.351 -19.210  24.158  1.00  0.00     0.029 A 
ENDROOT
BRANCH   1   9
HETATM    9  N2  UNL     1       7.712 -21.149  23.849  1.00  0.00    -0.373 N 
HETATM   10  C3  UNL     1       7.147 -21.326  25.147  1.00  0.00     0.153 C 
HETATM   11  C2  UNL     1       5.778 -21.835  25.271  1.00  0.00     0.291 C 
HETATM   12  N1  UNL     1       5.019 -21.902  24.054  1.00  0.00     0.087 N 
HETATM   13  C1  UNL     1       4.375 -20.628  23.811  1.00  0.00     0.310 C 
HETATM   14  C13 UNL     1       5.795 -22.363  22.940  1.00  0.00     0.291 C 
HETATM   15  C12 UNL     1       7.026 -21.562  22.683  1.00  0.00     0.153 C 
ENDBRANCH   1   9
BRANCH   2  16
HETATM   16  O1  UNL     1      10.380 -22.475  23.012  1.00  0.00    -0.344 OA
ATOM     17  H1  UNL     1       9.742 -23.046  22.599  1.00  0.00     0.219 HD
ENDBRANCH   2  16
BRANCH   3  18
HETATM   18  C6  UNL     1      12.580 -20.568  23.237  1.00  0.00     0.178 C 
BRANCH  18  19
HETATM   19  C7  UNL     1      12.705 -21.008  21.821  1.00  0.00     0.107 C 
HETATM   20  N4  UNL     1      13.214 -22.176  21.583  1.00  0.00    -0.283 N 
ATOM     21  H4  UNL     1      13.522 -22.779  22.345  1.00  0.00     0.192 HD
BRANCH  20  22
HETATM   22  O2  UNL     1      13.327 -22.576  20.272  1.00  0.00    -0.291 OA
ATOM     23  H2  UNL     1      12.949 -22.020  19.601  1.00  0.00     0.244 HD
ENDBRANCH  20  22
ENDBRANCH  18  19
ENDBRANCH   3  18
TORSDOF 5
ENDMDL
MODEL 4
REMARK VINA RESULT: -5.924325199      1.656      1.928
REMARK  5 active torsions:
REMARK  status: ('A' for Active; 'I' for Inactive)
REMARK    1  A    between atoms: N2_5  and  C4_6 
REMARK    2  A    between atoms: C5_7  and  O1_8 
REMARK    3  A    between atoms: N3_10  and  C6_11 
REMARK    4  A    between atoms: C6_11  and  C7_12 
REMARK    5  A    between atoms: N4_13  and  O2_15 
ROOT
HETATM    1  C4  UNL     1       5.782 -19.915  24.404  1.00  0.00     0.095 A 
HETATM    2  C5  UNL     1       6.406 -18.895  25.089  1.00  0.00     0.171 A 
HETATM    3  N3  UNL     1       7.732 -19.111  25.067  1.00  0.00    -0.320 N 
HETATM    4  C8  UNL     1       7.971 -20.269  24.371  1.00  0.00     0.056 A 
HETATM    5  C9  UNL     1       9.115 -20.952  24.042  1.00  0.00     0.080 A 
HETATM    6  S1  UNL     1       8.538 -22.284  23.163  1.00  0.00    -0.110 SA
HETATM    7  C10 UNL     1       6.858 -21.949  23.231  1.00  0.00     0.065 A 
HETATM    8  C11 UNL     1       6.804 -20.782  23.953  1.00  0.00     0.029 A 
ENDROOT
BRANCH   1   9
HETATM    9  N2  UNL     1       4.362 -20.057  24.179  1.00  0.00    -0.373 N 
HETATM   10  C3  UNL     1       3.689 -18.892  23.701  1.00  0.00     0.153 C 
HETATM   11  C2  UNL     1       2.270 -18.980  23.345  1.00  0.00     0.291 C 
HETATM   12  N1  UNL     1       1.716 -20.303  23.285  1.00  0.00     0.087 N 
HETATM   13  C1  UNL     1       1.939 -20.865  21.969  1.00  0.00     0.310 C 
HETATM   14  C13 UNL     1       2.182 -21.149  24.344  1.00  0.00     0.291 C 
HETATM   15  C12 UNL     1       3.667 -21.263  24.425  1.00  0.00     0.153 C 
ENDBRANCH   1   9
BRANCH   2  16
HETATM   16  O1  UNL     1       5.809 -17.795  25.720  1.00  0.00    -0.344 OA
ATOM     17  H1  UNL     1       6.151 -17.282  26.442  1.00  0.00     0.219 HD
ENDBRANCH   2  16
BRANCH   3  18
HETATM   18  C6  UNL     1       8.695 -18.231  25.695  1.00  0.00     0.178 C 
BRANCH  18  19
HETATM   19  C7  UNL     1       9.468 -17.489  24.663  1.00  0.00     0.107 C 
HETATM   20  N4  UNL     1      10.654 -17.066  24.969  1.00  0.00    -0.283 N 
ATOM     21  H4  UNL     1      11.049 -17.236  25.894  1.00  0.00     0.192 HD
BRANCH  20  22
HETATM   22  O2  UNL     1      11.363 -16.380  24.010  1.00  0.00    -0.291 OA
ATOM     23  H2  UNL     1      11.914 -16.880  23.420  1.00  0.00     0.244 HD
ENDBRANCH  20  22
ENDBRANCH  18  19
ENDBRANCH   3  18
TORSDOF 5
ENDMDL
MODEL 5
REMARK VINA RESULT: -5.911042010      3.287      6.898
REMARK  5 active torsions:
REMARK  status: ('A' for Active; 'I' for Inactive)
REMARK    1  A    between atoms: N2_5  and  C4_6 
REMARK    2  A    between atoms: C5_7  and  O1_8 
REMARK    3  A    between atoms: N3_10  and  C6_11 
REMARK    4  A    between atoms: C6_11  and  C7_12 
REMARK    5  A    between atoms: N4_13  and  O2_15 
ROOT
HETATM    1  C4  UNL     1      10.469 -19.671  23.570  1.00  0.00     0.095 A 
HETATM    2  C5  UNL     1       9.886 -18.854  24.515  1.00  0.00     0.171 A 
HETATM    3  N3  UNL     1       8.755 -19.436  24.948  1.00  0.00    -0.320 N 
HETATM    4  C8  UNL     1       8.600 -20.629  24.287  1.00  0.00     0.056 A 
HETATM    5  C9  UNL     1       7.648 -21.616  24.334  1.00  0.00     0.080 A 
HETATM    6  S1  UNL     1       8.206 -22.753  23.204  1.00  0.00    -0.110 SA
HETATM    7  C10 UNL     1       9.635 -21.954  22.696  1.00  0.00     0.065 A 
HETATM    8  C11 UNL     1       9.628 -20.801  23.441  1.00  0.00     0.029 A 
ENDROOT
BRANCH   1   9
HETATM    9  N2  UNL     1      11.705 -19.425  22.865  1.00  0.00    -0.373 N 
HETATM   10  C3  UNL     1      12.864 -20.064  23.399  1.00  0.00     0.153 C 
HETATM   11  C2  UNL     1      14.138 -19.955  22.683  1.00  0.00     0.291 C 
HETATM   12  N1  UNL     1      14.071 -19.397  21.361  1.00  0.00     0.087 N 
HETATM   13  C1  UNL     1      13.782 -20.445  20.404  1.00  0.00     0.310 C 
HETATM   14  C13 UNL     1      13.168 -18.287  21.272  1.00  0.00     0.291 C 
HETATM   15  C12 UNL     1      11.780 -18.593  21.724  1.00  0.00     0.153 C 
ENDBRANCH   1   9
BRANCH   2  16
HETATM   16  O1  UNL     1      10.352 -17.618  24.982  1.00  0.00    -0.344 OA
ATOM     17  H1  UNL     1      11.241 -17.383  25.219  1.00  0.00     0.219 HD
ENDBRANCH   2  16
BRANCH   3  18
HETATM   18  C6  UNL     1       7.887 -18.850  25.947  1.00  0.00     0.178 C 
BRANCH  18  19
HETATM   19  C7  UNL     1       6.622 -18.379  25.321  1.00  0.00     0.107 C 
HETATM   20  N4  UNL     1       6.701 -17.605  24.285  1.00  0.00    -0.283 N 
ATOM     21  H4  UNL     1       7.606 -17.324  23.907  1.00  0.00     0.192 HD
BRANCH  20  22
HETATM   22  O2  UNL     1       5.528 -17.172  23.711  1.00  0.00    -0.291 OA
ATOM     23  H2  UNL     1       5.252 -16.279  23.878  1.00  0.00     0.244 HD
ENDBRANCH  20  22
ENDBRANCH  18  19
ENDBRANCH   3  18
TORSDOF 5
ENDMDL
