MODEL 1
REMARK VINA RESULT: -8.103674481      0.000      0.000
REMARK  2 active torsions:
REMARK  status: ('A' for Active; 'I' for Inactive)
REMARK    1  A    between atoms: N2_3  and  C2_4 
REMARK    2  A    between atoms: N2_3  and  C8_11 
ROOT
HETATM    1  N1  UNL     1      38.540  73.314  58.323  1.00  0.00    -0.172 NA
HETATM    2  C1  UNL     1      39.146  72.578  58.992  1.00  0.00     0.185 C 
HETATM    3  N2  UNL     1      39.885  71.713  59.808  1.00  0.00    -0.278 N 
ENDROOT
BRANCH   3   4
HETATM    4  C2  UNL     1      40.380  72.293  61.033  1.00  0.00     0.069 A 
HETATM    5  C3  UNL     1      41.572  72.958  61.065  1.00  0.00     0.032 A 
HETATM    6  C4  UNL     1      42.025  73.497  62.240  1.00  0.00     0.002 A 
HETATM    7  C5  UNL     1      41.265  73.360  63.380  1.00  0.00     0.002 A 
HETATM    8  C6  UNL     1      40.066  72.696  63.364  1.00  0.00     0.029 A 
HETATM    9  C7  UNL     1      39.622  72.153  62.154  1.00  0.00     0.073 A 
HETATM   10  N3  UNL     1      38.377  71.470  62.180  1.00  0.00    -0.100 NA
ENDBRANCH   3   4
BRANCH   3  11
HETATM   11  C8  UNL     1      40.133  70.322  59.461  1.00  0.00     0.101 C 
HETATM   12  C9  UNL     1      38.977  69.728  58.690  1.00  0.00     0.026 C 
HETATM   13  C10 UNL     1      39.282  69.732  57.203  1.00  0.00     0.002 C 
HETATM   14  C11 UNL     1      40.373  68.748  56.962  1.00  0.00     0.000 C 
HETATM   15  C12 UNL     1      41.562  69.075  57.792  1.00  0.00     0.002 C 
HETATM   16  C13 UNL     1      41.428  70.222  58.729  1.00  0.00     0.026 C 
ENDBRANCH   3  11
TORSDOF 2
ENDMDL
MODEL 2
REMARK VINA RESULT: -7.925491954      1.502      2.487
REMARK  2 active torsions:
REMARK  status: ('A' for Active; 'I' for Inactive)
REMARK    1  A    between atoms: N2_3  and  C2_4 
REMARK    2  A    between atoms: N2_3  and  C8_11 
ROOT
HETATM    1  N1  UNL     1      37.342  74.765  59.574  1.00  0.00    -0.172 NA
HETATM    2  C1  UNL     1      38.058  73.849  59.651  1.00  0.00     0.185 C 
HETATM    3  N2  UNL     1      38.922  72.754  59.768  1.00  0.00    -0.278 N 
ENDROOT
BRANCH   3   4
HETATM    4  C2  UNL     1      39.148  72.286  61.114  1.00  0.00     0.069 A 
HETATM    5  C3  UNL     1      38.557  71.142  61.569  1.00  0.00     0.032 A 
HETATM    6  C4  UNL     1      38.781  70.719  62.852  1.00  0.00     0.002 A 
HETATM    7  C5  UNL     1      39.607  71.457  63.670  1.00  0.00     0.002 A 
HETATM    8  C6  UNL     1      40.208  72.607  63.227  1.00  0.00     0.029 A 
HETATM    9  C7  UNL     1      39.965  73.022  61.914  1.00  0.00     0.073 A 
HETATM   10  N3  UNL     1      40.603  74.220  61.495  1.00  0.00    -0.100 NA
ENDBRANCH   3   4
BRANCH   3  11
HETATM   11  C8  UNL     1      39.545  72.115  58.618  1.00  0.00     0.101 C 
HETATM   12  C9  UNL     1      40.987  71.759  58.897  1.00  0.00     0.026 C 
HETATM   13  C10 UNL     1      41.103  70.291  59.266  1.00  0.00     0.002 C 
HETATM   14  C11 UNL     1      40.800  69.492  58.047  1.00  0.00     0.000 C 
HETATM   15  C12 UNL     1      39.460  69.845  57.513  1.00  0.00     0.002 C 
HETATM   16  C13 UNL     1      38.728  70.936  58.209  1.00  0.00     0.026 C 
ENDBRANCH   3  11
TORSDOF 2
ENDMDL
MODEL 3
REMARK VINA RESULT: -7.910328862      1.330      1.620
REMARK  2 active torsions:
REMARK  status: ('A' for Active; 'I' for Inactive)
REMARK    1  A    between atoms: N2_3  and  C2_4 
REMARK    2  A    between atoms: N2_3  and  C8_11 
ROOT
HETATM    1  N1  UNL     1      38.587  74.393  59.897  1.00  0.00    -0.172 NA
HETATM    2  C1  UNL     1      39.338  73.551  60.185  1.00  0.00     0.185 C 
HETATM    3  N2  UNL     1      40.258  72.557  60.537  1.00  0.00    -0.278 N 
ENDROOT
BRANCH   3   4
HETATM    4  C2  UNL     1      41.363  72.999  61.353  1.00  0.00     0.069 A 
HETATM    5  C3  UNL     1      42.576  73.290  60.797  1.00  0.00     0.032 A 
HETATM    6  C4  UNL     1      43.612  73.704  61.591  1.00  0.00     0.002 A 
HETATM    7  C5  UNL     1      43.415  73.823  62.948  1.00  0.00     0.002 A 
HETATM    8  C6  UNL     1      42.202  73.535  63.521  1.00  0.00     0.029 A 
HETATM    9  C7  UNL     1      41.157  73.113  62.693  1.00  0.00     0.073 A 
HETATM   10  N3  UNL     1      39.920  72.821  63.325  1.00  0.00    -0.100 NA
ENDBRANCH   3   4
BRANCH   3  11
HETATM   11  C8  UNL     1      40.116  71.168  60.124  1.00  0.00     0.101 C 
HETATM   12  C9  UNL     1      38.739  70.895  59.565  1.00  0.00     0.026 C 
HETATM   13  C10 UNL     1      38.775  70.920  58.047  1.00  0.00     0.002 C 
HETATM   14  C11 UNL     1      39.551  69.734  57.594  1.00  0.00     0.000 C 
HETATM   15  C12 UNL     1      40.908  69.737  58.200  1.00  0.00     0.002 C 
HETATM   16  C13 UNL     1      41.206  70.827  59.167  1.00  0.00     0.026 C 
ENDBRANCH   3  11
TORSDOF 2
ENDMDL
MODEL 4
REMARK VINA RESULT: -7.801977110      1.501      5.135
REMARK  2 active torsions:
REMARK  status: ('A' for Active; 'I' for Inactive)
REMARK    1  A    between atoms: N2_3  and  C2_4 
REMARK    2  A    between atoms: N2_3  and  C8_11 
ROOT
HETATM    1  N1  UNL     1      38.780  71.407  63.501  1.00  0.00    -0.172 NA
HETATM    2  C1  UNL     1      39.297  71.902  62.582  1.00  0.00     0.185 C 
HETATM    3  N2  UNL     1      39.910  72.478  61.463  1.00  0.00    -0.278 N 
ENDROOT
BRANCH   3   4
HETATM    4  C2  UNL     1      39.421  72.017  60.186  1.00  0.00     0.069 A 
HETATM    5  C3  UNL     1      39.713  70.762  59.732  1.00  0.00     0.032 A 
HETATM    6  C4  UNL     1      39.242  70.346  58.515  1.00  0.00     0.002 A 
HETATM    7  C5  UNL     1      38.475  71.205  57.761  1.00  0.00     0.002 A 
HETATM    8  C6  UNL     1      38.173  72.468  58.203  1.00  0.00     0.029 A 
HETATM    9  C7  UNL     1      38.664  72.873  59.448  1.00  0.00     0.073 A 
HETATM   10  N3  UNL     1      38.332  74.189  59.868  1.00  0.00    -0.100 NA
ENDBRANCH   3   4
BRANCH   3  11
HETATM   11  C8  UNL     1      40.959  73.481  61.567  1.00  0.00     0.101 C 
HETATM   12  C9  UNL     1      41.219  73.864  63.005  1.00  0.00     0.026 C 
HETATM   13  C10 UNL     1      42.434  73.122  63.533  1.00  0.00     0.002 C 
HETATM   14  C11 UNL     1      43.632  73.659  62.832  1.00  0.00     0.000 C 
HETATM   15  C12 UNL     1      43.476  73.529  61.360  1.00  0.00     0.002 C 
HETATM   16  C13 UNL     1      42.181  72.987  60.870  1.00  0.00     0.026 C 
ENDBRANCH   3  11
TORSDOF 2
ENDMDL
MODEL 5
REMARK VINA RESULT: -7.755269442      2.081      5.136
REMARK  2 active torsions:
REMARK  status: ('A' for Active; 'I' for Inactive)
REMARK    1  A    between atoms: N2_3  and  C2_4 
REMARK    2  A    between atoms: N2_3  and  C8_11 
ROOT
HETATM    1  N1  UNL     1      38.246  71.098  62.882  1.00  0.00    -0.172 NA
HETATM    2  C1  UNL     1      38.739  71.851  62.143  1.00  0.00     0.185 C 
HETATM    3  N2  UNL     1      39.322  72.743  61.235  1.00  0.00    -0.278 N 
ENDROOT
BRANCH   3   4
HETATM    4  C2  UNL     1      38.723  72.767  59.922  1.00  0.00     0.069 A 
HETATM    5  C3  UNL     1      38.023  73.856  59.488  1.00  0.00     0.032 A 
HETATM    6  C4  UNL     1      37.459  73.855  58.240  1.00  0.00     0.002 A 
HETATM    7  C5  UNL     1      37.609  72.749  57.434  1.00  0.00     0.002 A 
HETATM    8  C6  UNL     1      38.310  71.648  57.856  1.00  0.00     0.029 A 
HETATM    9  C7  UNL     1      38.877  71.669  59.134  1.00  0.00     0.073 A 
HETATM   10  N3  UNL     1      39.591  70.509  59.534  1.00  0.00    -0.100 NA
ENDBRANCH   3   4
BRANCH   3  11
HETATM   11  C8  UNL     1      40.445  73.602  61.582  1.00  0.00     0.101 C 
HETATM   12  C9  UNL     1      40.599  73.734  63.079  1.00  0.00     0.026 C 
HETATM   13  C10 UNL     1      41.683  72.796  63.580  1.00  0.00     0.002 C 
HETATM   14  C11 UNL     1      42.987  73.301  63.073  1.00  0.00     0.000 C 
HETATM   15  C12 UNL     1      42.963  73.410  61.591  1.00  0.00     0.002 C 
HETATM   16  C13 UNL     1      41.677  73.089  60.918  1.00  0.00     0.026 C 
ENDBRANCH   3  11
TORSDOF 2
ENDMDL
