MODEL 1
REMARK VINA RESULT: -8.547015742      0.000      0.000
REMARK  8 active torsions:
REMARK  status: ('A' for Active; 'I' for Inactive)
REMARK       I    between atoms: C2_2  and  N1_4 
REMARK    1  A    between atoms: N1_4  and  C3_6 
REMARK    2  A    between atoms: C3_6  and  N2_7 
REMARK    3  A    between atoms: C3_6  and  C14_26 
REMARK       I    between atoms: N2_7  and  C4_9 
REMARK    4  A    between atoms: C4_9  and  C5_11 
REMARK    5  A    between atoms: C6_12  and  S1_13 
REMARK    6  A    between atoms: S1_13  and  C7_14 
REMARK    7  A    between atoms: C7_14  and  C8_15 
REMARK    8  A    between atoms: N4_29  and  C17_30 
ROOT
HETATM    1  N2  UNL     1       7.303   6.765  20.490  1.00  0.00    -0.339 N 
ATOM      2  H2  UNL     1       7.671   6.905  21.431  1.00  0.00     0.164 HD
HETATM    3  C4  UNL     1       7.562   7.815  19.632  1.00  0.00     0.229 C 
HETATM    4  O2  UNL     1       7.194   7.814  18.436  1.00  0.00    -0.273 OA
ENDROOT
BRANCH   1   5
HETATM    5  C3  UNL     1       6.615   5.510  20.321  1.00  0.00     0.190 C 
BRANCH   5   6
HETATM    6  N1  UNL     1       5.808   5.290  21.505  1.00  0.00    -0.340 N 
HETATM    7  C2  UNL     1       4.534   5.823  21.724  1.00  0.00     0.215 C 
HETATM    8  C1  UNL     1       3.789   5.540  22.967  1.00  0.00     0.117 C 
HETATM    9  O1  UNL     1       3.999   6.556  20.865  1.00  0.00    -0.274 OA
ATOM     10  H1  UNL     1       6.201   4.697  22.237  1.00  0.00     0.164 HD
ENDBRANCH   5   6
BRANCH   5  11
HETATM   11  C14 UNL     1       7.484   4.323  20.039  1.00  0.00     0.031 C 
HETATM   12  C15 UNL     1       6.575   3.087  20.172  1.00  0.00     0.038 C 
HETATM   13  C16 UNL     1       7.104   1.957  19.319  1.00  0.00     0.273 C 
HETATM   14  N4  UNL     1       8.513   2.017  19.132  1.00  0.00     0.093 N 
HETATM   15  C21 UNL     1       8.948   3.238  18.469  1.00  0.00     0.273 C 
HETATM   16  C22 UNL     1       7.856   4.280  18.557  1.00  0.00     0.038 C 
BRANCH  14  17
HETATM   17  C17 UNL     1       9.104   0.913  18.476  1.00  0.00     0.223 C 
HETATM   18  C18 UNL     1       8.464   0.579  17.159  1.00  0.00     0.036 C 
HETATM   19  C19 UNL     1       9.857   0.384  16.580  1.00  0.00     0.004 C 
HETATM   20  C20 UNL     1      10.422   1.129  17.770  1.00  0.00     0.036 C 
ENDBRANCH  14  17
ENDBRANCH   5  11
ENDBRANCH   1   5
BRANCH   3  21
HETATM   21  C5  UNL     1       8.304   9.047  20.051  1.00  0.00     0.149 C 
HETATM   22  C6  UNL     1       7.723  10.317  19.555  1.00  0.00     0.156 C 
HETATM   23  C9  UNL     1       8.311  11.333  20.495  1.00  0.00     0.236 C 
HETATM   24  O3  UNL     1       8.537  12.524  20.188  1.00  0.00    -0.272 OA
HETATM   25  N3  UNL     1       8.517  10.641  21.702  1.00  0.00    -0.323 N 
HETATM   26  C10 UNL     1       8.772  11.207  23.041  1.00  0.00     0.130 C 
HETATM   27  C13 UNL     1       8.467   9.207  21.516  1.00  0.00     0.240 C 
HETATM   28  C11 UNL     1       8.985   9.956  23.903  1.00  0.00     0.046 C 
HETATM   29  C12 UNL     1      10.036   9.125  23.210  1.00  0.00     0.172 C 
HETATM   30  O4  UNL     1       9.645   8.607  21.990  1.00  0.00    -0.366 OA
BRANCH  22  31
HETATM   31  S1  UNL     1       5.960  10.410  19.711  1.00  0.00    -0.151 SA
BRANCH  31  32
HETATM   32  C7  UNL     1       5.341  10.892  21.322  1.00  0.00     0.110 C 
BRANCH  32  33
HETATM   33  C8  UNL     1       4.864   9.658  22.089  1.00  0.00     0.187 C 
HETATM   34 CL1  UNL     1       3.093   9.625  21.976  1.00  0.00    -0.107 Cl
HETATM   35 CL2  UNL     1       5.378   9.641  23.763  1.00  0.00    -0.107 Cl
ENDBRANCH  32  33
ENDBRANCH  31  32
ENDBRANCH  22  31
ENDBRANCH   3  21
TORSDOF 8
ENDMDL
MODEL 2
REMARK VINA RESULT: -8.513681665      1.941      2.065
REMARK  8 active torsions:
REMARK  status: ('A' for Active; 'I' for Inactive)
REMARK       I    between atoms: C2_2  and  N1_4 
REMARK    1  A    between atoms: N1_4  and  C3_6 
REMARK    2  A    between atoms: C3_6  and  N2_7 
REMARK    3  A    between atoms: C3_6  and  C14_26 
REMARK       I    between atoms: N2_7  and  C4_9 
REMARK    4  A    between atoms: C4_9  and  C5_11 
REMARK    5  A    between atoms: C6_12  and  S1_13 
REMARK    6  A    between atoms: S1_13  and  C7_14 
REMARK    7  A    between atoms: C7_14  and  C8_15 
REMARK    8  A    between atoms: N4_29  and  C17_30 
ROOT
HETATM    1  N2  UNL     1       7.268   6.860  20.505  1.00  0.00    -0.339 N 
ATOM      2  H2  UNL     1       7.627   7.007  21.449  1.00  0.00     0.164 HD
HETATM    3  C4  UNL     1       7.547   7.899  19.639  1.00  0.00     0.229 C 
HETATM    4  O2  UNL     1       7.194   7.889  18.439  1.00  0.00    -0.273 OA
ENDROOT
BRANCH   1   5
HETATM    5  C3  UNL     1       6.571   5.611  20.340  1.00  0.00     0.190 C 
BRANCH   5   6
HETATM    6  N1  UNL     1       5.765   5.399  21.526  1.00  0.00    -0.340 N 
HETATM    7  C2  UNL     1       4.724   6.229  21.953  1.00  0.00     0.215 C 
HETATM    8  C1  UNL     1       3.959   5.927  23.180  1.00  0.00     0.117 C 
HETATM    9  O1  UNL     1       4.419   7.248  21.299  1.00  0.00    -0.274 OA
ATOM     10  H1  UNL     1       5.975   4.578  22.095  1.00  0.00     0.164 HD
ENDBRANCH   5   6
BRANCH   5  11
HETATM   11  C14 UNL     1       7.430   4.417  20.059  1.00  0.00     0.031 C 
HETATM   12  C15 UNL     1       6.512   3.188  20.196  1.00  0.00     0.038 C 
HETATM   13  C16 UNL     1       7.031   2.052  19.345  1.00  0.00     0.273 C 
HETATM   14  N4  UNL     1       8.440   2.101  19.155  1.00  0.00     0.093 N 
HETATM   15  C21 UNL     1       8.883   3.317  18.487  1.00  0.00     0.273 C 
HETATM   16  C22 UNL     1       7.799   4.367  18.576  1.00  0.00     0.038 C 
BRANCH  14  17
HETATM   17  C17 UNL     1       9.022   0.992  18.500  1.00  0.00     0.223 C 
HETATM   18  C18 UNL     1       8.379   0.662  17.181  1.00  0.00     0.036 C 
HETATM   19  C19 UNL     1       9.771   0.454  16.604  1.00  0.00     0.004 C 
HETATM   20  C20 UNL     1      10.342   1.194  17.794  1.00  0.00     0.036 C 
ENDBRANCH  14  17
ENDBRANCH   5  11
ENDBRANCH   1   5
BRANCH   3  21
HETATM   21  C5  UNL     1       8.296   9.128  20.054  1.00  0.00     0.149 C 
HETATM   22  C6  UNL     1       7.702  10.403  19.584  1.00  0.00     0.156 C 
HETATM   23  C9  UNL     1       8.308  11.410  20.522  1.00  0.00     0.236 C 
HETATM   24  O3  UNL     1       8.525  12.604  20.222  1.00  0.00    -0.272 OA
HETATM   25  N3  UNL     1       8.542  10.706  21.717  1.00  0.00    -0.323 N 
HETATM   26  C10 UNL     1       8.825  11.259  23.055  1.00  0.00     0.130 C 
HETATM   27  C13 UNL     1       8.491   9.274  21.517  1.00  0.00     0.240 C 
HETATM   28  C11 UNL     1       9.060  10.000  23.900  1.00  0.00     0.046 C 
HETATM   29  C12 UNL     1      10.097   9.178  23.175  1.00  0.00     0.172 C 
HETATM   30  O4  UNL     1       9.681   8.672  21.959  1.00  0.00    -0.366 OA
BRANCH  22  31
HETATM   31  S1  UNL     1       5.942  10.490  19.780  1.00  0.00    -0.151 SA
BRANCH  31  32
HETATM   32  C7  UNL     1       5.000  10.746  18.276  1.00  0.00     0.110 C 
BRANCH  32  33
HETATM   33  C8  UNL     1       5.735  11.724  17.359  1.00  0.00     0.187 C 
HETATM   34 CL1  UNL     1       4.508  12.774  16.624  1.00  0.00    -0.107 Cl
HETATM   35 CL2  UNL     1       6.693  10.932  16.125  1.00  0.00    -0.107 Cl
ENDBRANCH  32  33
ENDBRANCH  31  32
ENDBRANCH  22  31
ENDBRANCH   3  21
TORSDOF 8
ENDMDL
MODEL 3
REMARK VINA RESULT: -8.481476151      1.541      1.625
REMARK  8 active torsions:
REMARK  status: ('A' for Active; 'I' for Inactive)
REMARK       I    between atoms: C2_2  and  N1_4 
REMARK    1  A    between atoms: N1_4  and  C3_6 
REMARK    2  A    between atoms: C3_6  and  N2_7 
REMARK    3  A    between atoms: C3_6  and  C14_26 
REMARK       I    between atoms: N2_7  and  C4_9 
REMARK    4  A    between atoms: C4_9  and  C5_11 
REMARK    5  A    between atoms: C6_12  and  S1_13 
REMARK    6  A    between atoms: S1_13  and  C7_14 
REMARK    7  A    between atoms: C7_14  and  C8_15 
REMARK    8  A    between atoms: N4_29  and  C17_30 
ROOT
HETATM    1  N2  UNL     1       7.300   6.718  20.469  1.00  0.00    -0.339 N 
ATOM      2  H2  UNL     1       7.679   6.856  21.406  1.00  0.00     0.164 HD
HETATM    3  C4  UNL     1       7.570   7.760  19.604  1.00  0.00     0.229 C 
HETATM    4  O2  UNL     1       7.192   7.761  18.411  1.00  0.00    -0.273 OA
ENDROOT
BRANCH   1   5
HETATM    5  C3  UNL     1       6.590   5.475  20.311  1.00  0.00     0.190 C 
BRANCH   5   6
HETATM    6  N1  UNL     1       5.785   5.276  21.500  1.00  0.00    -0.340 N 
HETATM    7  C2  UNL     1       4.764   6.126  21.935  1.00  0.00     0.215 C 
HETATM    8  C1  UNL     1       3.998   5.836  23.164  1.00  0.00     0.117 C 
HETATM    9  O1  UNL     1       4.478   7.155  21.286  1.00  0.00    -0.274 OA
ATOM     10  H1  UNL     1       5.979   4.448  22.064  1.00  0.00     0.164 HD
ENDBRANCH   5   6
BRANCH   5  11
HETATM   11  C14 UNL     1       7.436   4.271  20.032  1.00  0.00     0.031 C 
HETATM   12  C15 UNL     1       6.486   3.060  20.079  1.00  0.00     0.038 C 
HETATM   13  C16 UNL     1       7.024   1.942  19.215  1.00  0.00     0.273 C 
HETATM   14  N4  UNL     1       8.441   1.965  19.099  1.00  0.00     0.093 N 
HETATM   15  C21 UNL     1       8.945   3.192  18.499  1.00  0.00     0.273 C 
HETATM   16  C22 UNL     1       7.881   4.264  18.569  1.00  0.00     0.038 C 
BRANCH  14  17
HETATM   17  C17 UNL     1       9.032   0.865  18.436  1.00  0.00     0.223 C 
HETATM   18  C18 UNL     1       8.427   0.574  17.091  1.00  0.00     0.036 C 
HETATM   19  C19 UNL     1       9.835   0.364  16.551  1.00  0.00     0.004 C 
HETATM   20  C20 UNL     1      10.376   1.071  17.776  1.00  0.00     0.036 C 
ENDBRANCH  14  17
ENDBRANCH   5  11
ENDBRANCH   1   5
BRANCH   3  21
HETATM   21  C5  UNL     1       8.336   8.981  20.012  1.00  0.00     0.149 C 
HETATM   22  C6  UNL     1       7.832  10.250  19.433  1.00  0.00     0.156 C 
HETATM   23  C9  UNL     1       8.408  11.283  20.362  1.00  0.00     0.236 C 
HETATM   24  O3  UNL     1       8.696  12.450  20.018  1.00  0.00    -0.272 OA
HETATM   25  N3  UNL     1       8.524  10.637  21.605  1.00  0.00    -0.323 N 
HETATM   26  C10 UNL     1       8.730  11.250  22.931  1.00  0.00     0.130 C 
HETATM   27  C13 UNL     1       8.428   9.198  21.476  1.00  0.00     0.240 C 
HETATM   28  C11 UNL     1       8.849  10.030  23.855  1.00  0.00     0.046 C 
HETATM   29  C12 UNL     1       9.902   9.132  23.254  1.00  0.00     0.172 C 
HETATM   30  O4  UNL     1       9.556   8.577  22.037  1.00  0.00    -0.366 OA
BRANCH  22  31
HETATM   31  S1  UNL     1       6.068  10.414  19.490  1.00  0.00    -0.151 SA
BRANCH  31  32
HETATM   32  C7  UNL     1       5.440  11.793  20.446  1.00  0.00     0.110 C 
BRANCH  32  33
HETATM   33  C8  UNL     1       4.743  12.795  19.524  1.00  0.00     0.187 C 
HETATM   34 CL1  UNL     1       5.318  12.476  17.876  1.00  0.00    -0.107 Cl
HETATM   35 CL2  UNL     1       5.032  14.464  19.969  1.00  0.00    -0.107 Cl
ENDBRANCH  32  33
ENDBRANCH  31  32
ENDBRANCH  22  31
ENDBRANCH   3  21
TORSDOF 8
ENDMDL
MODEL 4
REMARK VINA RESULT: -8.195299960      2.254      2.442
REMARK  8 active torsions:
REMARK  status: ('A' for Active; 'I' for Inactive)
REMARK       I    between atoms: C2_2  and  N1_4 
REMARK    1  A    between atoms: N1_4  and  C3_6 
REMARK    2  A    between atoms: C3_6  and  N2_7 
REMARK    3  A    between atoms: C3_6  and  C14_26 
REMARK       I    between atoms: N2_7  and  C4_9 
REMARK    4  A    between atoms: C4_9  and  C5_11 
REMARK    5  A    between atoms: C6_12  and  S1_13 
REMARK    6  A    between atoms: S1_13  and  C7_14 
REMARK    7  A    between atoms: C7_14  and  C8_15 
REMARK    8  A    between atoms: N4_29  and  C17_30 
ROOT
HETATM    1  N2  UNL     1       7.551   7.144  19.952  1.00  0.00    -0.339 N 
ATOM      2  H2  UNL     1       7.136   6.936  20.860  1.00  0.00     0.164 HD
HETATM    3  C4  UNL     1       8.450   8.192  19.982  1.00  0.00     0.229 C 
HETATM    4  O2  UNL     1       9.064   8.582  18.963  1.00  0.00    -0.273 OA
ENDROOT
BRANCH   1   5
HETATM    5  C3  UNL     1       7.082   6.288  18.893  1.00  0.00     0.190 C 
BRANCH   5   6
HETATM    6  N1  UNL     1       5.679   6.019  19.135  1.00  0.00    -0.340 N 
HETATM    7  C2  UNL     1       4.665   6.981  19.156  1.00  0.00     0.215 C 
HETATM    8  C1  UNL     1       3.259   6.607  19.413  1.00  0.00     0.117 C 
HETATM    9  O1  UNL     1       4.931   8.185  18.956  1.00  0.00    -0.274 OA
ATOM     10  H1  UNL     1       5.409   5.050  19.304  1.00  0.00     0.164 HD
ENDBRANCH   5   6
BRANCH   5  11
HETATM   11  C14 UNL     1       7.844   5.013  18.700  1.00  0.00     0.031 C 
HETATM   12  C15 UNL     1       7.668   4.209  20.002  1.00  0.00     0.038 C 
HETATM   13  C16 UNL     1       7.800   2.729  19.723  1.00  0.00     0.273 C 
HETATM   14  N4  UNL     1       8.631   2.449  18.603  1.00  0.00     0.093 N 
HETATM   15  C21 UNL     1       8.135   3.033  17.365  1.00  0.00     0.273 C 
HETATM   16  C22 UNL     1       7.134   4.120  17.683  1.00  0.00     0.038 C 
BRANCH  14  17
HETATM   17  C17 UNL     1       8.930   1.087  18.370  1.00  0.00     0.223 C 
HETATM   18  C18 UNL     1       8.440   0.580  17.043  1.00  0.00     0.036 C 
HETATM   19  C19 UNL     1       9.768  -0.144  16.878  1.00  0.00     0.004 C 
HETATM   20  C20 UNL     1      10.342   0.726  17.975  1.00  0.00     0.036 C 
ENDBRANCH  14  17
ENDBRANCH   5  11
ENDBRANCH   1   5
BRANCH   3  21
HETATM   21  C5  UNL     1       8.773   8.954  21.230  1.00  0.00     0.149 C 
HETATM   22  C6  UNL     1       8.672  10.428  21.098  1.00  0.00     0.156 C 
HETATM   23  C9  UNL     1       8.537  10.874  22.528  1.00  0.00     0.236 C 
HETATM   24  O3  UNL     1       8.932  11.981  22.956  1.00  0.00    -0.272 OA
HETATM   25  N3  UNL     1       7.906   9.806  23.189  1.00  0.00    -0.323 N 
HETATM   26  C10 UNL     1       7.251   9.816  24.511  1.00  0.00     0.130 C 
HETATM   27  C13 UNL     1       7.959   8.585  22.413  1.00  0.00     0.240 C 
HETATM   28  C11 UNL     1       6.835   8.351  24.696  1.00  0.00     0.046 C 
HETATM   29  C12 UNL     1       8.069   7.517  24.458  1.00  0.00     0.172 C 
HETATM   30  O4  UNL     1       8.545   7.551  23.161  1.00  0.00    -0.366 OA
BRANCH  22  31
HETATM   31  S1  UNL     1       7.224  10.974  20.234  1.00  0.00    -0.151 SA
BRANCH  31  32
HETATM   32  C7  UNL     1       6.916  12.740  20.263  1.00  0.00     0.110 C 
BRANCH  32  33
HETATM   33  C8  UNL     1       5.479  13.027  19.826  1.00  0.00     0.187 C 
HETATM   34 CL1  UNL     1       5.338  12.525  18.130  1.00  0.00    -0.107 Cl
HETATM   35 CL2  UNL     1       5.019  14.705  20.016  1.00  0.00    -0.107 Cl
ENDBRANCH  32  33
ENDBRANCH  31  32
ENDBRANCH  22  31
ENDBRANCH   3  21
TORSDOF 8
ENDMDL
MODEL 5
REMARK VINA RESULT: -8.120068139      1.882      2.589
REMARK  8 active torsions:
REMARK  status: ('A' for Active; 'I' for Inactive)
REMARK       I    between atoms: C2_2  and  N1_4 
REMARK    1  A    between atoms: N1_4  and  C3_6 
REMARK    2  A    between atoms: C3_6  and  N2_7 
REMARK    3  A    between atoms: C3_6  and  C14_26 
REMARK       I    between atoms: N2_7  and  C4_9 
REMARK    4  A    between atoms: C4_9  and  C5_11 
REMARK    5  A    between atoms: C6_12  and  S1_13 
REMARK    6  A    between atoms: S1_13  and  C7_14 
REMARK    7  A    between atoms: C7_14  and  C8_15 
REMARK    8  A    between atoms: N4_29  and  C17_30 
ROOT
HETATM    1  N2  UNL     1       7.356   5.206  19.971  1.00  0.00    -0.339 N 
ATOM      2  H2  UNL     1       8.302   5.282  19.597  1.00  0.00     0.164 HD
HETATM    3  C4  UNL     1       7.055   6.167  20.916  1.00  0.00     0.229 C 
HETATM    4  O2  UNL     1       5.938   6.235  21.476  1.00  0.00    -0.273 OA
ENDROOT
BRANCH   1   5
HETATM    5  C3  UNL     1       6.598   4.118  19.408  1.00  0.00     0.190 C 
BRANCH   5   6
HETATM    6  N1  UNL     1       6.230   3.233  20.495  1.00  0.00    -0.340 N 
HETATM    7  C2  UNL     1       4.924   2.991  20.932  1.00  0.00     0.215 C 
HETATM    8  C1  UNL     1       4.650   2.068  22.052  1.00  0.00     0.117 C 
HETATM    9  O1  UNL     1       3.957   3.555  20.377  1.00  0.00    -0.274 OA
ATOM     10  H1  UNL     1       6.984   2.747  20.980  1.00  0.00     0.164 HD
ENDBRANCH   5   6
BRANCH   5  11
HETATM   11  C14 UNL     1       7.269   3.358  18.305  1.00  0.00     0.031 C 
HETATM   12  C15 UNL     1       8.782   3.469  18.569  1.00  0.00     0.038 C 
HETATM   13  C16 UNL     1       9.503   2.281  17.975  1.00  0.00     0.273 C 
HETATM   14  N4  UNL     1       8.828   1.727  16.852  1.00  0.00     0.093 N 
HETATM   15  C21 UNL     1       7.490   1.248  17.171  1.00  0.00     0.273 C 
HETATM   16  C22 UNL     1       7.031   1.858  18.476  1.00  0.00     0.038 C 
BRANCH  14  17
HETATM   17  C17 UNL     1       9.513   0.712  16.148  1.00  0.00     0.223 C 
HETATM   18  C18 UNL     1      10.439  -0.102  17.009  1.00  0.00     0.036 C 
HETATM   19  C19 UNL     1       9.933  -1.349  16.298  1.00  0.00     0.004 C 
HETATM   20  C20 UNL     1       8.754  -0.545  15.793  1.00  0.00     0.036 C 
ENDBRANCH  14  17
ENDBRANCH   5  11
ENDBRANCH   1   5
BRANCH   3  21
HETATM   21  C5  UNL     1       8.034   7.213  21.356  1.00  0.00     0.149 C 
HETATM   22  C6  UNL     1       8.273   8.291  20.367  1.00  0.00     0.156 C 
HETATM   23  C9  UNL     1       8.838   9.394  21.218  1.00  0.00     0.236 C 
HETATM   24  O3  UNL     1       9.642  10.257  20.802  1.00  0.00    -0.272 OA
HETATM   25  N3  UNL     1       8.269   9.206  22.490  1.00  0.00    -0.323 N 
HETATM   26  C10 UNL     1       8.222  10.161  23.614  1.00  0.00     0.130 C 
HETATM   27  C13 UNL     1       7.693   7.886  22.632  1.00  0.00     0.240 C 
HETATM   28  C11 UNL     1       7.551   9.344  24.726  1.00  0.00     0.046 C 
HETATM   29  C12 UNL     1       8.328   8.056  24.847  1.00  0.00     0.172 C 
HETATM   30  O4  UNL     1       8.238   7.226  23.745  1.00  0.00    -0.366 OA
BRANCH  22  31
HETATM   31  S1  UNL     1       6.795   8.912  19.609  1.00  0.00    -0.151 SA
BRANCH  31  32
HETATM   32  C7  UNL     1       6.837  10.632  19.109  1.00  0.00     0.110 C 
BRANCH  32  33
HETATM   33  C8  UNL     1       6.046  11.485  20.103  1.00  0.00     0.187 C 
HETATM   34 CL1  UNL     1       7.177  12.664  20.795  1.00  0.00    -0.107 Cl
HETATM   35 CL2  UNL     1       5.281  10.545  21.367  1.00  0.00    -0.107 Cl
ENDBRANCH  32  33
ENDBRANCH  31  32
ENDBRANCH  22  31
ENDBRANCH   3  21
TORSDOF 8
ENDMDL
