MODEL 1
REMARK VINA RESULT: -9.751658923      0.000      0.000
REMARK  18 active torsions:
REMARK  status: ('A' for Active; 'I' for Inactive)
REMARK    1  A    between atoms: C2_2  and  O2_4 
REMARK    2  A    between atoms: O2_4  and  C3_5 
REMARK    3  A    between atoms: C3_5  and  C4_6 
REMARK    4  A    between atoms: C3_5  and  C19_52 
REMARK    5  A    between atoms: C4_6  and  O3_7 
REMARK    6  A    between atoms: C4_6  and  N1_9 
REMARK    7  A    between atoms: N1_9  and  S1_11 
REMARK    8  A    between atoms: S1_11  and  N2_14 
REMARK       I    between atoms: N2_14  and  C5_16 
REMARK    9  A    between atoms: C5_16  and  C6_18 
REMARK   10  A    between atoms: C7_21  and  C8_22 
REMARK   11  A    between atoms: C8_22  and  O8_24 
REMARK   12  A    between atoms: O8_24  and  C9_25 
REMARK   13  A    between atoms: C9_25  and  C10_26 
REMARK   14  A    between atoms: C12_28  and  N4_29 
REMARK   15  A    between atoms: C14_31  and  N5_32 
REMARK   16  A    between atoms: C17_41  and  N8_42 
REMARK   17  A    between atoms: C18_47  and  N10_48 
REMARK   18  A    between atoms: C19_52  and  O11_55 
ROOT
HETATM    1  C6  UNL     1     -53.820  59.361   7.368  1.00  0.00     0.146 A 
HETATM    2  N3  UNL     1     -53.708  59.451   6.068  1.00  0.00    -0.339 N 
ATOM      3  H3  UNL     1     -54.538  59.338   5.486  1.00  0.00     0.167 HD
HETATM    4  C7  UNL     1     -52.555  59.684   5.502  1.00  0.00     0.150 A 
HETATM    5  C18 UNL     1     -51.470  59.829   6.312  1.00  0.00     0.178 A 
HETATM    6  S2  UNL     1     -52.228  59.611   7.883  1.00  0.00    -0.040 SA
ENDROOT
BRANCH   4   7
HETATM    7  C8  UNL     1     -52.476  59.769   4.017  1.00  0.00     0.313 C 
HETATM    8  O7  UNL     1     -52.477  60.795   3.349  1.00  0.00    -0.257 OA
BRANCH   7   9
HETATM    9  O8  UNL     1     -52.390  58.579   3.262  1.00  0.00    -0.310 OA
BRANCH   9  10
HETATM   10  C9  UNL     1     -51.151  57.867   3.175  1.00  0.00     0.236 C 
BRANCH  10  11
HETATM   11  C10 UNL     1     -50.756  57.916   1.748  1.00  0.00     0.054 A 
HETATM   12  C11 UNL     1     -51.686  57.547   0.801  1.00  0.00     0.078 A 
HETATM   13  C12 UNL     1     -51.330  57.587  -0.540  1.00  0.00     0.136 A 
HETATM   14  N7  UNL     1     -50.090  57.980  -0.919  1.00  0.00    -0.176 N 
HETATM   15  C17 UNL     1     -49.210  58.331   0.021  1.00  0.00     0.677 A 
ATOM     16  H7  UNL     1     -49.834  58.007  -1.907  1.00  0.00     0.186 HD
HETATM   17  N9  UNL     1     -49.537  58.301   1.332  1.00  0.00    -0.194 N 
ATOM     18  H9  UNL     1     -48.840  58.577   2.023  1.00  0.00     0.184 HD
BRANCH  13  19
HETATM   19  N4  UNL     1     -52.302  57.206  -1.490  1.00  0.00    -0.278 N 
HETATM   20  C13 UNL     1     -52.081  57.485  -2.885  1.00  0.00     0.179 C 
HETATM   21  C14 UNL     1     -52.503  56.386  -3.804  1.00  0.00     0.204 C 
HETATM   22  C15 UNL     1     -53.749  55.737  -3.299  1.00  0.00     0.052 C 
HETATM   23  C16 UNL     1     -54.415  56.486  -2.191  1.00  0.00     0.137 C 
HETATM   24  N6  UNL     1     -53.463  56.568  -1.094  1.00  0.00    -0.137 NA
BRANCH  21  25
HETATM   25  N5  UNL     1     -51.410  55.430  -3.869  1.00  0.00    -0.073 N 
ATOM     26  H53 UNL     1     -50.532  55.848  -4.175  1.00  0.00     0.274 HD
ATOM     27  H52 UNL     1     -51.097  55.121  -2.948  1.00  0.00     0.274 HD
ATOM     28  H51 UNL     1     -51.714  54.660  -4.466  1.00  0.00     0.274 HD
ENDBRANCH  21  25
ENDBRANCH  13  19
BRANCH  15  29
HETATM   29  N8  UNL     1     -48.026  58.707  -0.352  1.00  0.00    -0.234 N 
ATOM     30  H82 UNL     1     -47.914  59.441  -1.051  1.00  0.00     0.174 HD
ATOM     31  H81 UNL     1     -47.217  58.250   0.069  1.00  0.00     0.174 HD
ENDBRANCH  15  29
ENDBRANCH  10  11
ENDBRANCH   9  10
ENDBRANCH   7   9
ENDBRANCH   4   7
BRANCH   5  32
HETATM   32  N10 UNL     1     -50.094  60.082   6.105  1.00  0.00    -0.106 N 
HETATM   33  O9  UNL     1     -49.625  61.093   5.631  1.00  0.00    -0.531 OA
HETATM   34  O10 UNL     1     -49.205  59.080   6.479  1.00  0.00    -0.531 OA
ENDBRANCH   5  32
BRANCH   1  35
HETATM   35  C5  UNL     1     -55.050  59.089   8.168  1.00  0.00     0.290 C 
HETATM   36  N2  UNL     1     -56.308  59.450   7.686  1.00  0.00    -0.231 N 
ATOM     37  H2  UNL     1     -56.326  59.904   6.772  1.00  0.00     0.183 HD
HETATM   38  O6  UNL     1     -54.847  58.536   9.252  1.00  0.00    -0.264 OA
BRANCH  36  39
HETATM   39  S1  UNL     1     -57.808  59.223   8.435  1.00  0.00     0.323 S 
HETATM   40  O4  UNL     1     -58.965  59.650   7.556  1.00  0.00    -0.182 OA
HETATM   41  O5  UNL     1     -57.944  60.104   9.678  1.00  0.00    -0.182 OA
BRANCH  39  42
HETATM   42  N1  UNL     1     -58.136  57.625   8.962  1.00  0.00    -0.273 N 
ATOM     43  H1  UNL     1     -57.403  56.925   9.071  1.00  0.00     0.176 HD
BRANCH  42  44
HETATM   44  C4  UNL     1     -59.496  57.343   9.236  1.00  0.00     0.262 C 
BRANCH  44  45
HETATM   45  C3  UNL     1     -59.844  56.448  10.358  1.00  0.00     0.214 C 
BRANCH  45  46
HETATM   46  O2  UNL     1     -58.930  55.325  10.235  1.00  0.00    -0.309 OA
BRANCH  46  47
HETATM   47  C2  UNL     1     -59.405  54.045  10.060  1.00  0.00     0.255 C 
HETATM   48  C1  UNL     1     -60.843  53.696  10.128  1.00  0.00     0.126 C 
HETATM   49  O1  UNL     1     -58.574  53.132   9.832  1.00  0.00    -0.266 OA
ENDBRANCH  46  47
ENDBRANCH  45  46
BRANCH  45  50
HETATM   50  C19 UNL     1     -59.591  56.956  11.747  1.00  0.00     0.081 C 
HETATM   51  C20 UNL     1     -58.300  56.571  12.371  1.00  0.00     0.048 C 
HETATM   52  C21 UNL     1     -60.715  56.687  12.695  1.00  0.00     0.048 C 
BRANCH  50  53
HETATM   53  O11 UNL     1     -59.528  58.370  11.589  1.00  0.00    -0.388 OA
ATOM     54  H11 UNL     1     -59.765  58.707  12.445  1.00  0.00     0.210 HD
ENDBRANCH  50  53
ENDBRANCH  45  50
ENDBRANCH  44  45
BRANCH  44  55
HETATM   55  O3  UNL     1     -60.153  56.902   8.035  1.00  0.00    -0.373 OA
ATOM     56  H3  UNL     1     -60.968  57.377   7.918  1.00  0.00     0.212 HD
ENDBRANCH  44  55
ENDBRANCH  42  44
ENDBRANCH  39  42
ENDBRANCH  36  39
ENDBRANCH   1  35
TORSDOF 18
ENDMDL
MODEL 2
REMARK VINA RESULT: -9.649402841      1.236      2.174
REMARK  18 active torsions:
REMARK  status: ('A' for Active; 'I' for Inactive)
REMARK    1  A    between atoms: C2_2  and  O2_4 
REMARK    2  A    between atoms: O2_4  and  C3_5 
REMARK    3  A    between atoms: C3_5  and  C4_6 
REMARK    4  A    between atoms: C3_5  and  C19_52 
REMARK    5  A    between atoms: C4_6  and  O3_7 
REMARK    6  A    between atoms: C4_6  and  N1_9 
REMARK    7  A    between atoms: N1_9  and  S1_11 
REMARK    8  A    between atoms: S1_11  and  N2_14 
REMARK       I    between atoms: N2_14  and  C5_16 
REMARK    9  A    between atoms: C5_16  and  C6_18 
REMARK   10  A    between atoms: C7_21  and  C8_22 
REMARK   11  A    between atoms: C8_22  and  O8_24 
REMARK   12  A    between atoms: O8_24  and  C9_25 
REMARK   13  A    between atoms: C9_25  and  C10_26 
REMARK   14  A    between atoms: C12_28  and  N4_29 
REMARK   15  A    between atoms: C14_31  and  N5_32 
REMARK   16  A    between atoms: C17_41  and  N8_42 
REMARK   17  A    between atoms: C18_47  and  N10_48 
REMARK   18  A    between atoms: C19_52  and  O11_55 
ROOT
HETATM    1  C6  UNL     1     -53.418  59.603   7.373  1.00  0.00     0.146 A 
HETATM    2  N3  UNL     1     -53.486  59.464   6.075  1.00  0.00    -0.339 N 
ATOM      3  H3  UNL     1     -54.338  59.090   5.657  1.00  0.00     0.167 HD
HETATM    4  C7  UNL     1     -52.485  59.795   5.304  1.00  0.00     0.150 A 
HETATM    5  C18 UNL     1     -51.365  60.290   5.899  1.00  0.00     0.178 A 
HETATM    6  S2  UNL     1     -51.863  60.238   7.584  1.00  0.00    -0.040 SA
ENDROOT
BRANCH   4   7
HETATM    7  C8  UNL     1     -52.607  59.608   3.832  1.00  0.00     0.313 C 
HETATM    8  O7  UNL     1     -52.885  60.475   3.012  1.00  0.00    -0.257 OA
BRANCH   7   9
HETATM    9  O8  UNL     1     -52.391  58.328   3.279  1.00  0.00    -0.310 OA
BRANCH   9  10
HETATM   10  C9  UNL     1     -51.064  57.798   3.181  1.00  0.00     0.236 C 
BRANCH  10  11
HETATM   11  C10 UNL     1     -50.699  57.882   1.748  1.00  0.00     0.054 A 
HETATM   12  C11 UNL     1     -51.644  57.522   0.812  1.00  0.00     0.078 A 
HETATM   13  C12 UNL     1     -51.316  57.595  -0.534  1.00  0.00     0.136 A 
HETATM   14  N7  UNL     1     -50.089  58.011  -0.931  1.00  0.00    -0.176 N 
HETATM   15  C17 UNL     1     -49.195  58.352  -0.001  1.00  0.00     0.677 A 
ATOM     16  H7  UNL     1     -49.853  58.062  -1.922  1.00  0.00     0.186 HD
HETATM   17  N9  UNL     1     -49.494  58.290   1.315  1.00  0.00    -0.194 N 
ATOM     18  H9  UNL     1     -48.786  58.560   1.998  1.00  0.00     0.184 HD
BRANCH  13  19
HETATM   19  N4  UNL     1     -52.303  57.221  -1.473  1.00  0.00    -0.278 N 
HETATM   20  C13 UNL     1     -52.089  57.483  -2.872  1.00  0.00     0.179 C 
HETATM   21  C14 UNL     1     -52.538  56.384  -3.777  1.00  0.00     0.204 C 
HETATM   22  C15 UNL     1     -53.792  55.762  -3.255  1.00  0.00     0.052 C 
HETATM   23  C16 UNL     1     -54.435  56.534  -2.149  1.00  0.00     0.137 C 
HETATM   24  N6  UNL     1     -53.472  56.609  -1.061  1.00  0.00    -0.137 NA
BRANCH  21  25
HETATM   25  N5  UNL     1     -51.464  55.407  -3.841  1.00  0.00    -0.073 N 
ATOM     26  H53 UNL     1     -50.561  55.823  -4.068  1.00  0.00     0.274 HD
ATOM     27  H52 UNL     1     -51.212  55.032  -2.927  1.00  0.00     0.274 HD
ATOM     28  H51 UNL     1     -51.747  54.684  -4.504  1.00  0.00     0.274 HD
ENDBRANCH  21  25
ENDBRANCH  13  19
BRANCH  15  29
HETATM   29  N8  UNL     1     -48.022  58.750  -0.390  1.00  0.00    -0.234 N 
ATOM     30  H82 UNL     1     -47.754  58.683  -1.372  1.00  0.00     0.174 HD
ATOM     31  H81 UNL     1     -47.382  59.128   0.309  1.00  0.00     0.174 HD
ENDBRANCH  15  29
ENDBRANCH  10  11
ENDBRANCH   9  10
ENDBRANCH   7   9
ENDBRANCH   4   7
BRANCH   5  32
HETATM   32  N10 UNL     1     -50.109  60.750   5.440  1.00  0.00    -0.106 N 
HETATM   33  O9  UNL     1     -49.031  60.311   5.774  1.00  0.00    -0.531 OA
HETATM   34  O10 UNL     1     -50.116  61.798   4.527  1.00  0.00    -0.531 OA
ENDBRANCH   5  32
BRANCH   1  35
HETATM   35  C5  UNL     1     -54.456  59.265   8.391  1.00  0.00     0.290 C 
HETATM   36  N2  UNL     1     -55.020  60.259   9.190  1.00  0.00    -0.231 N 
ATOM     37  H2  UNL     1     -54.678  61.208   9.035  1.00  0.00     0.183 HD
HETATM   38  O6  UNL     1     -54.750  58.069   8.447  1.00  0.00    -0.264 OA
BRANCH  36  39
HETATM   39  S1  UNL     1     -56.204  60.079  10.384  1.00  0.00     0.323 S 
HETATM   40  O4  UNL     1     -57.528  60.698   9.986  1.00  0.00    -0.182 OA
HETATM   41  O5  UNL     1     -55.818  60.824  11.662  1.00  0.00    -0.182 OA
BRANCH  39  42
HETATM   42  N1  UNL     1     -56.526  58.465  10.868  1.00  0.00    -0.273 N 
ATOM     43  H1  UNL     1     -55.838  57.720  10.770  1.00  0.00     0.176 HD
BRANCH  42  44
HETATM   44  C4  UNL     1     -57.813  58.240  11.412  1.00  0.00     0.262 C 
BRANCH  44  45
HETATM   45  C3  UNL     1     -58.875  57.665  10.562  1.00  0.00     0.214 C 
BRANCH  45  46
HETATM   46  O2  UNL     1     -58.225  57.394   9.290  1.00  0.00    -0.309 OA
BRANCH  46  47
HETATM   47  C2  UNL     1     -58.651  58.010   8.135  1.00  0.00     0.255 C 
HETATM   48  C1  UNL     1     -58.005  57.803   6.818  1.00  0.00     0.126 C 
HETATM   49  O1  UNL     1     -59.635  58.785   8.207  1.00  0.00    -0.266 OA
ENDBRANCH  46  47
ENDBRANCH  45  46
BRANCH  45  50
HETATM   50  C19 UNL     1     -59.431  56.331  10.964  1.00  0.00     0.081 C 
HETATM   51  C20 UNL     1     -59.790  55.402   9.864  1.00  0.00     0.048 C 
HETATM   52  C21 UNL     1     -60.558  56.425  11.941  1.00  0.00     0.048 C 
BRANCH  50  53
HETATM   53  O11 UNL     1     -58.353  55.704  11.653  1.00  0.00    -0.388 OA
ATOM     54  H11 UNL     1     -58.765  54.978  12.108  1.00  0.00     0.210 HD
ENDBRANCH  50  53
ENDBRANCH  45  50
ENDBRANCH  44  45
BRANCH  44  55
HETATM   55  O3  UNL     1     -58.289  59.440  12.047  1.00  0.00    -0.373 OA
ATOM     56  H3  UNL     1     -57.559  60.014  12.244  1.00  0.00     0.212 HD
ENDBRANCH  44  55
ENDBRANCH  42  44
ENDBRANCH  39  42
ENDBRANCH  36  39
ENDBRANCH   1  35
TORSDOF 18
ENDMDL
MODEL 3
REMARK VINA RESULT: -9.633230575      3.479      5.199
REMARK  18 active torsions:
REMARK  status: ('A' for Active; 'I' for Inactive)
REMARK    1  A    between atoms: C2_2  and  O2_4 
REMARK    2  A    between atoms: O2_4  and  C3_5 
REMARK    3  A    between atoms: C3_5  and  C4_6 
REMARK    4  A    between atoms: C3_5  and  C19_52 
REMARK    5  A    between atoms: C4_6  and  O3_7 
REMARK    6  A    between atoms: C4_6  and  N1_9 
REMARK    7  A    between atoms: N1_9  and  S1_11 
REMARK    8  A    between atoms: S1_11  and  N2_14 
REMARK       I    between atoms: N2_14  and  C5_16 
REMARK    9  A    between atoms: C5_16  and  C6_18 
REMARK   10  A    between atoms: C7_21  and  C8_22 
REMARK   11  A    between atoms: C8_22  and  O8_24 
REMARK   12  A    between atoms: O8_24  and  C9_25 
REMARK   13  A    between atoms: C9_25  and  C10_26 
REMARK   14  A    between atoms: C12_28  and  N4_29 
REMARK   15  A    between atoms: C14_31  and  N5_32 
REMARK   16  A    between atoms: C17_41  and  N8_42 
REMARK   17  A    between atoms: C18_47  and  N10_48 
REMARK   18  A    between atoms: C19_52  and  O11_55 
ROOT
HETATM    1  C6  UNL     1     -53.239  59.732   7.377  1.00  0.00     0.146 A 
HETATM    2  N3  UNL     1     -53.392  59.522   6.096  1.00  0.00    -0.339 N 
ATOM      3  H3  UNL     1     -54.259  59.104   5.758  1.00  0.00     0.167 HD
HETATM    4  C7  UNL     1     -52.456  59.836   5.241  1.00  0.00     0.150 A 
HETATM    5  C18 UNL     1     -51.313  60.391   5.730  1.00  0.00     0.178 A 
HETATM    6  S2  UNL     1     -51.693  60.418   7.446  1.00  0.00    -0.040 SA
ENDROOT
BRANCH   4   7
HETATM    7  C8  UNL     1     -52.673  59.567   3.793  1.00  0.00     0.313 C 
HETATM    8  O7  UNL     1     -53.075  60.369   2.959  1.00  0.00    -0.257 OA
BRANCH   7   9
HETATM    9  O8  UNL     1     -52.402  58.279   3.282  1.00  0.00    -0.310 OA
BRANCH   9  10
HETATM   10  C9  UNL     1     -51.053  57.808   3.190  1.00  0.00     0.236 C 
BRANCH  10  11
HETATM   11  C10 UNL     1     -50.692  57.890   1.757  1.00  0.00     0.054 A 
HETATM   12  C11 UNL     1     -51.639  57.530   0.823  1.00  0.00     0.078 A 
HETATM   13  C12 UNL     1     -51.315  57.601  -0.524  1.00  0.00     0.136 A 
HETATM   14  N7  UNL     1     -50.088  58.015  -0.924  1.00  0.00    -0.176 N 
HETATM   15  C17 UNL     1     -49.191  58.357   0.004  1.00  0.00     0.677 A 
ATOM     16  H7  UNL     1     -49.855  58.065  -1.915  1.00  0.00     0.186 HD
HETATM   17  N9  UNL     1     -49.487  58.296   1.320  1.00  0.00    -0.194 N 
ATOM     18  H9  UNL     1     -48.777  58.566   2.001  1.00  0.00     0.184 HD
BRANCH  13  19
HETATM   19  N4  UNL     1     -52.304  57.228  -1.459  1.00  0.00    -0.278 N 
HETATM   20  C13 UNL     1     -52.097  57.493  -2.859  1.00  0.00     0.179 C 
HETATM   21  C14 UNL     1     -52.547  56.394  -3.764  1.00  0.00     0.204 C 
HETATM   22  C15 UNL     1     -53.797  55.769  -3.239  1.00  0.00     0.052 C 
HETATM   23  C16 UNL     1     -54.437  56.537  -2.129  1.00  0.00     0.137 C 
HETATM   24  N6  UNL     1     -53.471  56.612  -1.045  1.00  0.00    -0.137 NA
BRANCH  21  25
HETATM   25  N5  UNL     1     -51.471  55.420  -3.835  1.00  0.00    -0.073 N 
ATOM     26  H53 UNL     1     -51.068  55.338  -4.768  1.00  0.00     0.274 HD
ATOM     27  H52 UNL     1     -50.626  55.725  -3.352  1.00  0.00     0.274 HD
ATOM     28  H51 UNL     1     -51.836  54.536  -3.480  1.00  0.00     0.274 HD
ENDBRANCH  21  25
ENDBRANCH  13  19
BRANCH  15  29
HETATM   29  N8  UNL     1     -48.019  58.753  -0.389  1.00  0.00    -0.234 N 
ATOM     30  H82 UNL     1     -47.382  58.103  -0.849  1.00  0.00     0.174 HD
ATOM     31  H81 UNL     1     -47.756  59.725  -0.224  1.00  0.00     0.174 HD
ENDBRANCH  15  29
ENDBRANCH  10  11
ENDBRANCH   9  10
ENDBRANCH   7   9
ENDBRANCH   4   7
BRANCH   5  32
HETATM   32  N10 UNL     1     -50.105  60.858   5.161  1.00  0.00    -0.106 N 
HETATM   33  O9  UNL     1     -50.009  61.710   4.306  1.00  0.00    -0.531 OA
HETATM   34  O10 UNL     1     -48.926  60.285   5.626  1.00  0.00    -0.531 OA
ENDBRANCH   5  32
BRANCH   1  35
HETATM   35  C5  UNL     1     -54.195  59.424   8.481  1.00  0.00     0.290 C 
HETATM   36  N2  UNL     1     -54.638  60.427   9.341  1.00  0.00    -0.231 N 
ATOM     37  H2  UNL     1     -54.269  61.363   9.169  1.00  0.00     0.183 HD
HETATM   38  O6  UNL     1     -54.538  58.241   8.548  1.00  0.00    -0.264 OA
BRANCH  36  39
HETATM   39  S1  UNL     1     -55.716  60.279  10.637  1.00  0.00     0.323 S 
HETATM   40  O4  UNL     1     -55.485  59.017  11.441  1.00  0.00    -0.182 OA
HETATM   41  O5  UNL     1     -57.158  60.145  10.144  1.00  0.00    -0.182 OA
BRANCH  39  42
HETATM   42  N1  UNL     1     -55.725  61.589  11.743  1.00  0.00    -0.273 N 
ATOM     43  H1  UNL     1     -56.355  61.622  12.544  1.00  0.00     0.176 HD
BRANCH  42  44
HETATM   44  C4  UNL     1     -54.798  62.623  11.468  1.00  0.00     0.262 C 
BRANCH  44  45
HETATM   45  C3  UNL     1     -53.850  63.050  12.517  1.00  0.00     0.214 C 
BRANCH  45  46
HETATM   46  O2  UNL     1     -54.500  62.701  13.770  1.00  0.00    -0.309 OA
BRANCH  46  47
HETATM   47  C2  UNL     1     -54.877  63.678  14.664  1.00  0.00     0.255 C 
HETATM   48  C1  UNL     1     -54.266  65.027  14.700  1.00  0.00     0.126 C 
HETATM   49  O1  UNL     1     -55.783  63.405  15.488  1.00  0.00    -0.266 OA
ENDBRANCH  46  47
ENDBRANCH  45  46
BRANCH  45  50
HETATM   50  C19 UNL     1     -52.536  62.332  12.591  1.00  0.00     0.081 C 
HETATM   51  C20 UNL     1     -51.388  63.100  13.134  1.00  0.00     0.048 C 
HETATM   52  C21 UNL     1     -52.145  61.669  11.309  1.00  0.00     0.048 C 
BRANCH  50  53
HETATM   53  O11 UNL     1     -52.769  61.286  13.529  1.00  0.00    -0.388 OA
ATOM     54  H11 UNL     1     -53.240  60.629  13.028  1.00  0.00     0.210 HD
ENDBRANCH  50  53
ENDBRANCH  45  50
ENDBRANCH  44  45
BRANCH  44  55
HETATM   55  O3  UNL     1     -55.488  63.766  10.934  1.00  0.00    -0.373 OA
ATOM     56  H3  UNL     1     -55.346  63.822   9.997  1.00  0.00     0.212 HD
ENDBRANCH  44  55
ENDBRANCH  42  44
ENDBRANCH  39  42
ENDBRANCH  36  39
ENDBRANCH   1  35
TORSDOF 18
ENDMDL
MODEL 4
REMARK VINA RESULT: -9.575124349      5.322      8.268
REMARK  18 active torsions:
REMARK  status: ('A' for Active; 'I' for Inactive)
REMARK    1  A    between atoms: C2_2  and  O2_4 
REMARK    2  A    between atoms: O2_4  and  C3_5 
REMARK    3  A    between atoms: C3_5  and  C4_6 
REMARK    4  A    between atoms: C3_5  and  C19_52 
REMARK    5  A    between atoms: C4_6  and  O3_7 
REMARK    6  A    between atoms: C4_6  and  N1_9 
REMARK    7  A    between atoms: N1_9  and  S1_11 
REMARK    8  A    between atoms: S1_11  and  N2_14 
REMARK       I    between atoms: N2_14  and  C5_16 
REMARK    9  A    between atoms: C5_16  and  C6_18 
REMARK   10  A    between atoms: C7_21  and  C8_22 
REMARK   11  A    between atoms: C8_22  and  O8_24 
REMARK   12  A    between atoms: O8_24  and  C9_25 
REMARK   13  A    between atoms: C9_25  and  C10_26 
REMARK   14  A    between atoms: C12_28  and  N4_29 
REMARK   15  A    between atoms: C14_31  and  N5_32 
REMARK   16  A    between atoms: C17_41  and  N8_42 
REMARK   17  A    between atoms: C18_47  and  N10_48 
REMARK   18  A    between atoms: C19_52  and  O11_55 
ROOT
HETATM    1  C6  UNL     1     -53.368  61.406   3.519  1.00  0.00     0.146 A 
HETATM    2  N3  UNL     1     -52.127  60.996   3.510  1.00  0.00    -0.339 N 
ATOM      3  H3  UNL     1     -51.547  61.176   2.690  1.00  0.00     0.167 HD
HETATM    4  C7  UNL     1     -51.615  60.361   4.530  1.00  0.00     0.150 A 
HETATM    5  C18 UNL     1     -52.420  60.139   5.605  1.00  0.00     0.178 A 
HETATM    6  S2  UNL     1     -53.904  60.892   5.040  1.00  0.00    -0.040 SA
ENDROOT
BRANCH   4   7
HETATM    7  C8  UNL     1     -50.199  59.905   4.468  1.00  0.00     0.313 C 
HETATM    8  O7  UNL     1     -49.221  60.522   4.871  1.00  0.00    -0.257 OA
BRANCH   7   9
HETATM    9  O8  UNL     1     -49.904  58.647   3.900  1.00  0.00    -0.310 OA
BRANCH   9  10
HETATM   10  C9  UNL     1     -50.938  57.872   3.283  1.00  0.00     0.236 C 
BRANCH  10  11
HETATM   11  C10 UNL     1     -50.643  57.885   1.832  1.00  0.00     0.054 A 
HETATM   12  C11 UNL     1     -51.610  57.424   0.966  1.00  0.00     0.078 A 
HETATM   13  C12 UNL     1     -51.348  57.430  -0.397  1.00  0.00     0.136 A 
HETATM   14  N7  UNL     1     -50.163  57.879  -0.876  1.00  0.00    -0.176 N 
HETATM   15  C17 UNL     1     -49.246  58.319  -0.012  1.00  0.00     0.677 A 
ATOM     16  H7  UNL     1     -49.976  57.881  -1.879  1.00  0.00     0.186 HD
HETATM   17  N9  UNL     1     -49.481  58.323   1.318  1.00  0.00    -0.194 N 
ATOM     18  H9  UNL     1     -48.757  58.668   1.949  1.00  0.00     0.184 HD
BRANCH  13  19
HETATM   19  N4  UNL     1     -52.357  56.954  -1.263  1.00  0.00    -0.278 N 
HETATM   20  C13 UNL     1     -53.694  56.769  -0.764  1.00  0.00     0.179 C 
HETATM   21  C14 UNL     1     -54.766  57.190  -1.714  1.00  0.00     0.204 C 
HETATM   22  C15 UNL     1     -54.376  56.859  -3.117  1.00  0.00     0.052 C 
HETATM   23  C16 UNL     1     -53.181  55.966  -3.217  1.00  0.00     0.137 C 
HETATM   24  N6  UNL     1     -52.072  56.661  -2.584  1.00  0.00    -0.137 NA
BRANCH  21  25
HETATM   25  N5  UNL     1     -54.952  58.622  -1.553  1.00  0.00    -0.073 N 
ATOM     26  H53 UNL     1     -54.094  59.109  -1.296  1.00  0.00     0.274 HD
ATOM     27  H52 UNL     1     -55.118  59.103  -2.437  1.00  0.00     0.274 HD
ATOM     28  H51 UNL     1     -55.704  58.759  -0.878  1.00  0.00     0.274 HD
ENDBRANCH  21  25
ENDBRANCH  13  19
BRANCH  15  29
HETATM   29  N8  UNL     1     -48.114  58.748  -0.481  1.00  0.00    -0.234 N 
ATOM     30  H82 UNL     1     -48.072  59.199  -1.395  1.00  0.00     0.174 HD
ATOM     31  H81 UNL     1     -47.276  58.621   0.086  1.00  0.00     0.174 HD
ENDBRANCH  15  29
ENDBRANCH  10  11
ENDBRANCH   9  10
ENDBRANCH   7   9
ENDBRANCH   4   7
BRANCH   5  32
HETATM   32  N10 UNL     1     -52.258  59.513   6.863  1.00  0.00    -0.106 N 
HETATM   33  O9  UNL     1     -52.518  58.357   7.116  1.00  0.00    -0.531 OA
HETATM   34  O10 UNL     1     -51.759  60.296   7.898  1.00  0.00    -0.531 OA
ENDBRANCH   5  32
BRANCH   1  35
HETATM   35  C5  UNL     1     -54.106  62.128   2.442  1.00  0.00     0.290 C 
HETATM   36  N2  UNL     1     -54.010  61.717   1.113  1.00  0.00    -0.231 N 
ATOM     37  H2  UNL     1     -53.411  60.910   0.934  1.00  0.00     0.183 HD
HETATM   38  O6  UNL     1     -54.782  63.083   2.833  1.00  0.00    -0.264 OA
BRANCH  36  39
HETATM   39  S1  UNL     1     -54.767  62.396  -0.239  1.00  0.00     0.323 S 
HETATM   40  O4  UNL     1     -55.899  61.536  -0.763  1.00  0.00    -0.182 OA
HETATM   41  O5  UNL     1     -53.803  62.497  -1.421  1.00  0.00    -0.182 OA
BRANCH  39  42
HETATM   42  N1  UNL     1     -55.396  63.977  -0.017  1.00  0.00    -0.273 N 
ATOM     43  H1  UNL     1     -54.816  64.811  -0.105  1.00  0.00     0.176 HD
BRANCH  42  44
HETATM   44  C4  UNL     1     -56.774  64.043   0.298  1.00  0.00     0.262 C 
BRANCH  44  45
HETATM   45  C3  UNL     1     -57.348  65.308   0.799  1.00  0.00     0.214 C 
BRANCH  45  46
HETATM   46  O2  UNL     1     -56.375  65.803   1.759  1.00  0.00    -0.309 OA
BRANCH  46  47
HETATM   47  C2  UNL     1     -56.736  66.052   3.064  1.00  0.00     0.255 C 
HETATM   48  C1  UNL     1     -57.734  65.241   3.800  1.00  0.00     0.126 C 
HETATM   49  O1  UNL     1     -56.190  67.015   3.654  1.00  0.00    -0.266 OA
ENDBRANCH  46  47
ENDBRANCH  45  46
BRANCH  45  50
HETATM   50  C19 UNL     1     -57.482  66.437  -0.179  1.00  0.00     0.081 C 
HETATM   51  C20 UNL     1     -58.270  67.613   0.267  1.00  0.00     0.048 C 
HETATM   52  C21 UNL     1     -57.938  66.002  -1.535  1.00  0.00     0.048 C 
BRANCH  50  53
HETATM   53  O11 UNL     1     -56.149  66.914  -0.338  1.00  0.00    -0.388 OA
ATOM     54  H11 UNL     1     -56.134  67.261  -1.223  1.00  0.00     0.210 HD
ENDBRANCH  50  53
ENDBRANCH  45  50
ENDBRANCH  44  45
BRANCH  44  55
HETATM   55  O3  UNL     1     -57.125  62.962   1.179  1.00  0.00    -0.373 OA
ATOM     56  H3  UNL     1     -57.665  62.330   0.720  1.00  0.00     0.212 HD
ENDBRANCH  44  55
ENDBRANCH  42  44
ENDBRANCH  39  42
ENDBRANCH  36  39
ENDBRANCH   1  35
TORSDOF 18
ENDMDL
MODEL 5
REMARK VINA RESULT: -9.541529356      5.282      8.202
REMARK  18 active torsions:
REMARK  status: ('A' for Active; 'I' for Inactive)
REMARK    1  A    between atoms: C2_2  and  O2_4 
REMARK    2  A    between atoms: O2_4  and  C3_5 
REMARK    3  A    between atoms: C3_5  and  C4_6 
REMARK    4  A    between atoms: C3_5  and  C19_52 
REMARK    5  A    between atoms: C4_6  and  O3_7 
REMARK    6  A    between atoms: C4_6  and  N1_9 
REMARK    7  A    between atoms: N1_9  and  S1_11 
REMARK    8  A    between atoms: S1_11  and  N2_14 
REMARK       I    between atoms: N2_14  and  C5_16 
REMARK    9  A    between atoms: C5_16  and  C6_18 
REMARK   10  A    between atoms: C7_21  and  C8_22 
REMARK   11  A    between atoms: C8_22  and  O8_24 
REMARK   12  A    between atoms: O8_24  and  C9_25 
REMARK   13  A    between atoms: C9_25  and  C10_26 
REMARK   14  A    between atoms: C12_28  and  N4_29 
REMARK   15  A    between atoms: C14_31  and  N5_32 
REMARK   16  A    between atoms: C17_41  and  N8_42 
REMARK   17  A    between atoms: C18_47  and  N10_48 
REMARK   18  A    between atoms: C19_52  and  O11_55 
ROOT
HETATM    1  C6  UNL     1     -53.391  61.385   3.508  1.00  0.00     0.146 A 
HETATM    2  N3  UNL     1     -52.168  60.924   3.478  1.00  0.00    -0.339 N 
ATOM      3  H3  UNL     1     -51.601  61.068   2.642  1.00  0.00     0.167 HD
HETATM    4  C7  UNL     1     -51.659  60.283   4.496  1.00  0.00     0.150 A 
HETATM    5  C18 UNL     1     -52.447  60.110   5.593  1.00  0.00     0.178 A 
HETATM    6  S2  UNL     1     -53.912  60.916   5.049  1.00  0.00    -0.040 SA
ENDROOT
BRANCH   4   7
HETATM    7  C8  UNL     1     -50.265  59.768   4.409  1.00  0.00     0.313 C 
HETATM    8  O7  UNL     1     -49.252  60.353   4.775  1.00  0.00    -0.257 OA
BRANCH   7   9
HETATM    9  O8  UNL     1     -50.035  58.488   3.861  1.00  0.00    -0.310 OA
BRANCH   9  10
HETATM   10  C9  UNL     1     -51.077  57.808   3.153  1.00  0.00     0.236 C 
BRANCH  10  11
HETATM   11  C10 UNL     1     -50.709  57.884   1.721  1.00  0.00     0.054 A 
HETATM   12  C11 UNL     1     -51.653  57.521   0.785  1.00  0.00     0.078 A 
HETATM   13  C12 UNL     1     -51.323  57.586  -0.561  1.00  0.00     0.136 A 
HETATM   14  N7  UNL     1     -50.095  57.999  -0.957  1.00  0.00    -0.176 N 
HETATM   15  C17 UNL     1     -49.201  58.344  -0.028  1.00  0.00     0.677 A 
ATOM     16  H7  UNL     1     -49.857  58.045  -1.948  1.00  0.00     0.186 HD
HETATM   17  N9  UNL     1     -49.502  58.288   1.288  1.00  0.00    -0.194 N 
ATOM     18  H9  UNL     1     -48.795  58.561   1.971  1.00  0.00     0.184 HD
BRANCH  13  19
HETATM   19  N4  UNL     1     -52.308  57.210  -1.499  1.00  0.00    -0.278 N 
HETATM   20  C13 UNL     1     -52.090  57.459  -2.900  1.00  0.00     0.179 C 
HETATM   21  C14 UNL     1     -52.541  56.354  -3.797  1.00  0.00     0.204 C 
HETATM   22  C15 UNL     1     -53.798  55.742  -3.274  1.00  0.00     0.052 C 
HETATM   23  C16 UNL     1     -54.441  56.526  -2.176  1.00  0.00     0.137 C 
HETATM   24  N6  UNL     1     -53.481  56.605  -1.086  1.00  0.00    -0.137 NA
BRANCH  21  25
HETATM   25  N5  UNL     1     -51.470  55.373  -3.851  1.00  0.00    -0.073 N 
ATOM     26  H53 UNL     1     -50.607  55.700  -3.417  1.00  0.00     0.274 HD
ATOM     27  H52 UNL     1     -51.633  54.574  -3.238  1.00  0.00     0.274 HD
ATOM     28  H51 UNL     1     -51.348  55.107  -4.828  1.00  0.00     0.274 HD
ENDBRANCH  21  25
ENDBRANCH  13  19
BRANCH  15  29
HETATM   29  N8  UNL     1     -48.027  58.738  -0.417  1.00  0.00    -0.234 N 
ATOM     30  H82 UNL     1     -47.917  59.629  -0.901  1.00  0.00     0.174 HD
ATOM     31  H81 UNL     1     -47.226  58.136  -0.228  1.00  0.00     0.174 HD
ENDBRANCH  15  29
ENDBRANCH  10  11
ENDBRANCH   9  10
ENDBRANCH   7   9
ENDBRANCH   4   7
BRANCH   5  32
HETATM   32  N10 UNL     1     -52.282  59.496   6.856  1.00  0.00    -0.106 N 
HETATM   33  O9  UNL     1     -52.548  58.346   7.123  1.00  0.00    -0.531 OA
HETATM   34  O10 UNL     1     -51.770  60.287   7.879  1.00  0.00    -0.531 OA
ENDBRANCH   5  32
BRANCH   1  35
HETATM   35  C5  UNL     1     -54.124  62.121   2.437  1.00  0.00     0.290 C 
HETATM   36  N2  UNL     1     -54.021  61.727   1.104  1.00  0.00    -0.231 N 
ATOM     37  H2  UNL     1     -53.421  60.922   0.917  1.00  0.00     0.183 HD
HETATM   38  O6  UNL     1     -54.800  63.071   2.837  1.00  0.00    -0.264 OA
BRANCH  36  39
HETATM   39  S1  UNL     1     -54.772  62.423  -0.243  1.00  0.00     0.323 S 
HETATM   40  O4  UNL     1     -55.909  61.577  -0.775  1.00  0.00    -0.182 OA
HETATM   41  O5  UNL     1     -53.805  62.527  -1.423  1.00  0.00    -0.182 OA
BRANCH  39  42
HETATM   42  N1  UNL     1     -55.387  64.007  -0.008  1.00  0.00    -0.273 N 
ATOM     43  H1  UNL     1     -54.802  64.837  -0.092  1.00  0.00     0.176 HD
BRANCH  42  44
HETATM   44  C4  UNL     1     -56.764  64.082   0.311  1.00  0.00     0.262 C 
BRANCH  44  45
HETATM   45  C3  UNL     1     -57.327  65.349   0.820  1.00  0.00     0.214 C 
BRANCH  45  46
HETATM   46  O2  UNL     1     -56.337  65.843   1.762  1.00  0.00    -0.309 OA
BRANCH  46  47
HETATM   47  C2  UNL     1     -56.676  66.101   3.071  1.00  0.00     0.255 C 
HETATM   48  C1  UNL     1     -57.626  65.265   3.844  1.00  0.00     0.126 C 
HETATM   49  O1  UNL     1     -56.153  67.093   3.633  1.00  0.00    -0.266 OA
ENDBRANCH  46  47
ENDBRANCH  45  46
BRANCH  45  50
HETATM   50  C19 UNL     1     -57.476  66.477  -0.157  1.00  0.00     0.081 C 
HETATM   51  C20 UNL     1     -58.256  67.654   0.301  1.00  0.00     0.048 C 
HETATM   52  C21 UNL     1     -57.956  66.040  -1.504  1.00  0.00     0.048 C 
BRANCH  50  53
HETATM   53  O11 UNL     1     -56.146  66.951  -0.339  1.00  0.00    -0.388 OA
ATOM     54  H11 UNL     1     -56.253  67.739  -0.860  1.00  0.00     0.210 HD
ENDBRANCH  50  53
ENDBRANCH  45  50
ENDBRANCH  44  45
BRANCH  44  55
HETATM   55  O3  UNL     1     -57.120  62.999   1.188  1.00  0.00    -0.373 OA
ATOM     56  H3  UNL     1     -56.348  62.679   1.639  1.00  0.00     0.212 HD
ENDBRANCH  44  55
ENDBRANCH  42  44
ENDBRANCH  39  42
ENDBRANCH  36  39
ENDBRANCH   1  35
TORSDOF 18
ENDMDL
