MODEL 1
REMARK VINA RESULT: -8.335607844      0.000      0.000
REMARK  6 active torsions:
REMARK  status: ('A' for Active; 'I' for Inactive)
REMARK    1  A    between atoms: N3_4  and  N4_6 
REMARK    2  A    between atoms: C2_8  and  C3_9 
REMARK    3  A    between atoms: C4_10  and  C5_11 
REMARK    4  A    between atoms: C5_11  and  N5_12 
REMARK    5  A    between atoms: N6_14  and  N7_16 
REMARK       I    between atoms: N8_18  and  C6_20 
REMARK    6  A    between atoms: N10_22  and  O1_24 
ROOT
HETATM    1  C3  UNL     1       6.011  38.291  19.279  1.00  0.00     0.076 A 
HETATM    2  C4  UNL     1       6.378  37.646  18.083  1.00  0.00     0.062 A 
HETATM    3  N11 UNL     1       6.838  38.595  17.264  1.00  0.00    -0.299 N 
ATOM      4  H11 UNL     1       7.178  38.418  16.319  1.00  0.00     0.186 HD
HETATM    5  N12 UNL     1       6.801  39.774  17.815  1.00  0.00    -0.266 N 
ATOM      6  H12 UNL     1       7.098  40.650  17.385  1.00  0.00     0.190 HD
HETATM    7  C7  UNL     1       6.288  39.623  19.080  1.00  0.00     0.273 A 
HETATM    8  O2  UNL     1       6.130  40.600  19.867  1.00  0.00    -0.266 OA
ENDROOT
BRANCH   2   9
HETATM    9  C5  UNL     1       6.276  36.177  17.778  1.00  0.00     0.200 C 
BRANCH   9  10
HETATM   10  N5  UNL     1       5.127  35.896  16.967  1.00  0.00    -0.315 N 
HETATM   11  N6  UNL     1       4.163  35.146  17.359  1.00  0.00    -0.232 N 
ATOM     12  H6  UNL     1       3.359  34.967  16.757  1.00  0.00     0.209 HD
ATOM     13  H5  UNL     1       5.073  36.312  16.038  1.00  0.00     0.182 HD
BRANCH  11  14
HETATM   14  N7  UNL     1       4.248  34.577  18.642  1.00  0.00    -0.226 N 
HETATM   15  N8  UNL     1       3.221  34.050  19.194  1.00  0.00    -0.256 N 
HETATM   16  C6  UNL     1       3.329  33.491  20.472  1.00  0.00     0.228 C 
ATOM     17  H8  UNL     1       2.326  34.038  18.704  1.00  0.00     0.191 HD
HETATM   18  N9  UNL     1       2.233  33.512  21.365  1.00  0.00    -0.060 NA
HETATM   19  N10 UNL     1       4.433  32.949  20.849  1.00  0.00    -0.240 N 
ATOM     20  H10 UNL     1       4.506  32.543  21.782  1.00  0.00     0.197 HD
ATOM     21  H7  UNL     1       5.138  34.585  19.139  1.00  0.00     0.210 HD
BRANCH  19  22
HETATM   22  O1  UNL     1       5.495  32.915  20.017  1.00  0.00    -0.287 OA
ATOM     23  H1  UNL     1       5.371  32.979  19.077  1.00  0.00     0.244 HD
ENDBRANCH  19  22
ENDBRANCH  11  14
ENDBRANCH   9  10
ENDBRANCH   2   9
BRANCH   1  24
HETATM   24  C2  UNL     1       5.463  37.623  20.434  1.00  0.00     0.126 C 
HETATM   25  N4  UNL     1       4.343  37.696  20.959  1.00  0.00    -0.309 N 
ATOM     26  H4  UNL     1       4.259  37.092  21.777  1.00  0.00     0.186 HD
BRANCH  25  27
HETATM   27  N3  UNL     1       3.212  38.378  20.710  1.00  0.00    -0.276 N 
HETATM   28  C1  UNL     1       2.350  38.055  19.808  1.00  0.00     0.215 C 
HETATM   29  N1  UNL     1       1.206  38.881  19.670  1.00  0.00    -0.065 NA
HETATM   30  N2  UNL     1       2.527  36.919  18.980  1.00  0.00    -0.065 NA
ATOM     31  H3  UNL     1       3.023  39.207  21.273  1.00  0.00     0.189 HD
ENDBRANCH  25  27
ENDBRANCH   1  24
TORSDOF 6
ENDMDL
MODEL 2
REMARK VINA RESULT: -8.171308709      1.795      2.420
REMARK  6 active torsions:
REMARK  status: ('A' for Active; 'I' for Inactive)
REMARK    1  A    between atoms: N3_4  and  N4_6 
REMARK    2  A    between atoms: C2_8  and  C3_9 
REMARK    3  A    between atoms: C4_10  and  C5_11 
REMARK    4  A    between atoms: C5_11  and  N5_12 
REMARK    5  A    between atoms: N6_14  and  N7_16 
REMARK       I    between atoms: N8_18  and  C6_20 
REMARK    6  A    between atoms: N10_22  and  O1_24 
ROOT
HETATM    1  C3  UNL     1       5.683  37.265  19.284  1.00  0.00     0.076 A 
HETATM    2  C4  UNL     1       6.249  35.979  19.347  1.00  0.00     0.062 A 
HETATM    3  N11 UNL     1       6.635  35.672  18.105  1.00  0.00    -0.299 N 
ATOM      4  H11 UNL     1       7.083  34.793  17.847  1.00  0.00     0.186 HD
HETATM    5  N12 UNL     1       6.373  36.630  17.263  1.00  0.00    -0.266 N 
ATOM      6  H12 UNL     1       6.574  36.625  16.263  1.00  0.00     0.190 HD
HETATM    7  C7  UNL     1       5.775  37.647  17.966  1.00  0.00     0.273 A 
HETATM    8  O2  UNL     1       5.402  38.721  17.416  1.00  0.00    -0.266 OA
ENDROOT
BRANCH   2   9
HETATM    9  C5  UNL     1       6.396  35.111  20.566  1.00  0.00     0.200 C 
BRANCH   9  10
HETATM   10  N5  UNL     1       6.848  33.796  20.212  1.00  0.00    -0.315 N 
HETATM   11  N6  UNL     1       6.047  32.833  19.937  1.00  0.00    -0.232 N 
ATOM     12  H6  UNL     1       6.402  31.910  19.688  1.00  0.00     0.209 HD
ATOM     13  H5  UNL     1       7.852  33.619  20.178  1.00  0.00     0.182 HD
BRANCH  11  14
HETATM   14  N7  UNL     1       4.665  33.088  19.988  1.00  0.00    -0.226 N 
HETATM   15  N8  UNL     1       4.045  33.118  21.107  1.00  0.00    -0.256 N 
HETATM   16  C6  UNL     1       2.669  33.373  21.132  1.00  0.00     0.228 C 
ATOM     17  H8  UNL     1       4.551  32.955  21.977  1.00  0.00     0.191 HD
HETATM   18  N9  UNL     1       1.847  32.798  22.128  1.00  0.00    -0.060 NA
HETATM   19  N10 UNL     1       2.137  34.136  20.245  1.00  0.00    -0.240 N 
ATOM     20  H10 UNL     1       1.133  34.319  20.268  1.00  0.00     0.197 HD
ATOM     21  H7  UNL     1       4.150  33.251  19.123  1.00  0.00     0.210 HD
BRANCH  19  22
HETATM   22  O1  UNL     1       2.899  34.698  19.283  1.00  0.00    -0.287 OA
ATOM     23  H1  UNL     1       2.803  34.432  18.376  1.00  0.00     0.244 HD
ENDBRANCH  19  22
ENDBRANCH  11  14
ENDBRANCH   9  10
ENDBRANCH   2   9
BRANCH   1  24
HETATM   24  C2  UNL     1       5.138  37.975  20.416  1.00  0.00     0.126 C 
HETATM   25  N4  UNL     1       4.000  37.970  20.906  1.00  0.00    -0.309 N 
ATOM     26  H4  UNL     1       3.925  38.587  21.715  1.00  0.00     0.186 HD
BRANCH  25  27
HETATM   27  N3  UNL     1       2.842  37.348  20.629  1.00  0.00    -0.276 N 
HETATM   28  C1  UNL     1       1.890  37.858  19.927  1.00  0.00     0.215 C 
HETATM   29  N1  UNL     1       0.728  37.070  19.726  1.00  0.00    -0.065 NA
HETATM   30  N2  UNL     1       1.989  39.158  19.370  1.00  0.00    -0.065 NA
ATOM     31  H3  UNL     1       2.707  36.407  21.000  1.00  0.00     0.189 HD
ENDBRANCH  25  27
ENDBRANCH   1  24
TORSDOF 6
ENDMDL
MODEL 3
REMARK VINA RESULT: -7.969123679      2.346      3.113
REMARK  6 active torsions:
REMARK  status: ('A' for Active; 'I' for Inactive)
REMARK    1  A    between atoms: N3_4  and  N4_6 
REMARK    2  A    between atoms: C2_8  and  C3_9 
REMARK    3  A    between atoms: C4_10  and  C5_11 
REMARK    4  A    between atoms: C5_11  and  N5_12 
REMARK    5  A    between atoms: N6_14  and  N7_16 
REMARK       I    between atoms: N8_18  and  C6_20 
REMARK    6  A    between atoms: N10_22  and  O1_24 
ROOT
HETATM    1  C3  UNL     1       5.073  36.886  20.301  1.00  0.00     0.076 A 
HETATM    2  C4  UNL     1       5.990  36.008  20.906  1.00  0.00     0.062 A 
HETATM    3  N11 UNL     1       6.494  36.653  21.962  1.00  0.00    -0.299 N 
ATOM      4  H11 UNL     1       7.189  36.257  22.595  1.00  0.00     0.186 HD
HETATM    5  N12 UNL     1       5.992  37.848  22.088  1.00  0.00    -0.266 N 
ATOM      6  H12 UNL     1       6.223  38.525  22.816  1.00  0.00     0.190 HD
HETATM    7  C7  UNL     1       5.096  38.030  21.064  1.00  0.00     0.273 A 
HETATM    8  O2  UNL     1       4.443  39.102  20.919  1.00  0.00    -0.266 OA
ENDROOT
BRANCH   2   9
HETATM    9  C5  UNL     1       6.342  34.615  20.462  1.00  0.00     0.200 C 
BRANCH   9  10
HETATM   10  N5  UNL     1       6.612  33.767  21.587  1.00  0.00    -0.315 N 
HETATM   11  N6  UNL     1       5.781  32.890  22.016  1.00  0.00    -0.232 N 
ATOM     12  H6  UNL     1       6.004  32.302  22.819  1.00  0.00     0.209 HD
ATOM     13  H5  UNL     1       7.506  33.866  22.067  1.00  0.00     0.182 HD
BRANCH  11  14
HETATM   14  N7  UNL     1       4.550  32.762  21.346  1.00  0.00    -0.226 N 
HETATM   15  N8  UNL     1       3.561  33.517  21.644  1.00  0.00    -0.256 N 
HETATM   16  C6  UNL     1       2.346  33.370  20.964  1.00  0.00     0.228 C 
ATOM     17  H8  UNL     1       3.656  34.222  22.375  1.00  0.00     0.191 HD
HETATM   18  N9  UNL     1       1.119  33.634  21.614  1.00  0.00    -0.060 NA
HETATM   19  N10 UNL     1       2.336  32.993  19.735  1.00  0.00    -0.240 N 
ATOM     20  H10 UNL     1       1.447  32.887  19.244  1.00  0.00     0.197 HD
ATOM     21  H7  UNL     1       4.446  32.060  20.614  1.00  0.00     0.210 HD
BRANCH  19  22
HETATM   22  O1  UNL     1       3.493  32.735  19.090  1.00  0.00    -0.287 OA
ATOM     23  H1  UNL     1       3.838  33.353  18.456  1.00  0.00     0.244 HD
ENDBRANCH  19  22
ENDBRANCH  11  14
ENDBRANCH   9  10
ENDBRANCH   2   9
BRANCH   1  24
HETATM   24  C2  UNL     1       4.303  36.578  19.120  1.00  0.00     0.126 C 
HETATM   25  N4  UNL     1       3.088  36.388  18.970  1.00  0.00    -0.309 N 
ATOM     26  H4  UNL     1       2.845  36.187  18.000  1.00  0.00     0.186 HD
BRANCH  25  27
HETATM   27  N3  UNL     1       2.013  36.383  19.777  1.00  0.00    -0.276 N 
HETATM   28  C1  UNL     1       1.237  37.394  19.964  1.00  0.00     0.215 C 
HETATM   29  N1  UNL     1       0.143  37.226  20.849  1.00  0.00    -0.065 NA
HETATM   30  N2  UNL     1       1.458  38.634  19.313  1.00  0.00    -0.065 NA
ATOM     31  H3  UNL     1       1.797  35.519  20.275  1.00  0.00     0.189 HD
ENDBRANCH  25  27
ENDBRANCH   1  24
TORSDOF 6
ENDMDL
MODEL 4
REMARK VINA RESULT: -7.905397489      2.355      3.672
REMARK  6 active torsions:
REMARK  status: ('A' for Active; 'I' for Inactive)
REMARK    1  A    between atoms: N3_4  and  N4_6 
REMARK    2  A    between atoms: C2_8  and  C3_9 
REMARK    3  A    between atoms: C4_10  and  C5_11 
REMARK    4  A    between atoms: C5_11  and  N5_12 
REMARK    5  A    between atoms: N6_14  and  N7_16 
REMARK       I    between atoms: N8_18  and  C6_20 
REMARK    6  A    between atoms: N10_22  and  O1_24 
ROOT
HETATM    1  C3  UNL     1       5.718  37.538  19.065  1.00  0.00     0.076 A 
HETATM    2  C4  UNL     1       5.104  36.351  18.625  1.00  0.00     0.062 A 
HETATM    3  N11 UNL     1       5.699  36.018  17.477  1.00  0.00    -0.299 N 
ATOM      4  H11 UNL     1       5.457  35.193  16.926  1.00  0.00     0.186 HD
HETATM    5  N12 UNL     1       6.626  36.869  17.143  1.00  0.00    -0.266 N 
ATOM      6  H12 UNL     1       7.214  36.825  16.310  1.00  0.00     0.190 HD
HETATM    7  C7  UNL     1       6.667  37.838  18.116  1.00  0.00     0.273 A 
HETATM    8  O2  UNL     1       7.474  38.809  18.070  1.00  0.00    -0.266 OA
ENDROOT
BRANCH   2   9
HETATM    9  C5  UNL     1       3.995  35.597  19.306  1.00  0.00     0.200 C 
BRANCH   9  10
HETATM   10  N5  UNL     1       3.647  34.416  18.570  1.00  0.00    -0.315 N 
HETATM   11  N6  UNL     1       3.945  33.234  18.967  1.00  0.00    -0.232 N 
ATOM     12  H6  UNL     1       3.682  32.414  18.419  1.00  0.00     0.209 HD
ATOM     13  H5  UNL     1       3.138  34.521  17.693  1.00  0.00     0.182 HD
BRANCH  11  14
HETATM   14  N7  UNL     1       4.647  33.100  20.178  1.00  0.00    -0.226 N 
HETATM   15  N8  UNL     1       5.770  32.489  20.221  1.00  0.00    -0.256 N 
HETATM   16  C6  UNL     1       6.449  32.368  21.439  1.00  0.00     0.228 C 
ATOM     17  H8  UNL     1       6.169  32.090  19.371  1.00  0.00     0.191 HD
HETATM   18  N9  UNL     1       7.254  31.237  21.707  1.00  0.00    -0.060 NA
HETATM   19  N10 UNL     1       6.346  33.288  22.330  1.00  0.00    -0.240 N 
ATOM     20  H10 UNL     1       6.843  33.195  23.216  1.00  0.00     0.197 HD
ATOM     21  H7  UNL     1       4.255  33.494  21.033  1.00  0.00     0.210 HD
BRANCH  19  22
HETATM   22  O1  UNL     1       5.584  34.378  22.100  1.00  0.00    -0.287 OA
ATOM     23  H1  UNL     1       4.690  34.284  21.792  1.00  0.00     0.244 HD
ENDBRANCH  19  22
ENDBRANCH  11  14
ENDBRANCH   9  10
ENDBRANCH   2   9
BRANCH   1  24
HETATM   24  C2  UNL     1       5.368  38.240  20.276  1.00  0.00     0.126 C 
HETATM   25  N4  UNL     1       5.652  38.010  21.459  1.00  0.00    -0.309 N 
ATOM     26  H4  UNL     1       5.249  38.698  22.095  1.00  0.00     0.186 HD
BRANCH  25  27
HETATM   27  N3  UNL     1       6.362  37.071  22.107  1.00  0.00    -0.276 N 
HETATM   28  C1  UNL     1       6.813  37.197  23.308  1.00  0.00     0.215 C 
HETATM   29  N1  UNL     1       7.547  36.113  23.850  1.00  0.00    -0.065 NA
HETATM   30  N2  UNL     1       6.589  38.372  24.068  1.00  0.00    -0.065 NA
ATOM     31  H3  UNL     1       6.558  36.199  21.615  1.00  0.00     0.189 HD
ENDBRANCH  25  27
ENDBRANCH   1  24
TORSDOF 6
ENDMDL
MODEL 5
REMARK VINA RESULT: -7.903136729      2.295      4.682
REMARK  6 active torsions:
REMARK  status: ('A' for Active; 'I' for Inactive)
REMARK    1  A    between atoms: N3_4  and  N4_6 
REMARK    2  A    between atoms: C2_8  and  C3_9 
REMARK    3  A    between atoms: C4_10  and  C5_11 
REMARK    4  A    between atoms: C5_11  and  N5_12 
REMARK    5  A    between atoms: N6_14  and  N7_16 
REMARK       I    between atoms: N8_18  and  C6_20 
REMARK    6  A    between atoms: N10_22  and  O1_24 
ROOT
HETATM    1  C3  UNL     1       4.729  35.946  19.495  1.00  0.00     0.076 A 
HETATM    2  C4  UNL     1       4.319  34.664  19.903  1.00  0.00     0.062 A 
HETATM    3  N11 UNL     1       3.800  34.069  18.826  1.00  0.00    -0.299 N 
ATOM      4  H11 UNL     1       3.419  33.123  18.824  1.00  0.00     0.186 HD
HETATM    5  N12 UNL     1       3.837  34.841  17.778  1.00  0.00    -0.266 N 
ATOM      6  H12 UNL     1       3.500  34.607  16.844  1.00  0.00     0.190 HD
HETATM    7  C7  UNL     1       4.414  36.028  18.158  1.00  0.00     0.273 A 
HETATM    8  O2  UNL     1       4.589  36.985  17.352  1.00  0.00    -0.266 OA
ENDROOT
BRANCH   2   9
HETATM    9  C5  UNL     1       4.438  34.069  21.279  1.00  0.00     0.200 C 
BRANCH   9  10
HETATM   10  N5  UNL     1       3.286  33.278  21.601  1.00  0.00    -0.315 N 
HETATM   11  N6  UNL     1       2.113  33.776  21.740  1.00  0.00    -0.232 N 
ATOM     12  H6  UNL     1       1.314  33.185  21.968  1.00  0.00     0.209 HD
ATOM     13  H5  UNL     1       3.405  32.273  21.724  1.00  0.00     0.182 HD
BRANCH  11  14
HETATM   14  N7  UNL     1       1.960  35.164  21.567  1.00  0.00    -0.226 N 
HETATM   15  N8  UNL     1       1.279  35.631  20.589  1.00  0.00    -0.256 N 
HETATM   16  C6  UNL     1       1.142  37.016  20.438  1.00  0.00     0.228 C 
ATOM     17  H8  UNL     1       0.839  34.997  19.922  1.00  0.00     0.191 HD
HETATM   18  N9  UNL     1       1.023  37.593  19.154  1.00  0.00    -0.060 NA
HETATM   19  N10 UNL     1       1.123  37.780  21.472  1.00  0.00    -0.240 N 
ATOM     20  H10 UNL     1       1.022  38.789  21.356  1.00  0.00     0.197 HD
ATOM     21  H7  UNL     1       2.396  35.805  22.229  1.00  0.00     0.210 HD
BRANCH  19  22
HETATM   22  O1  UNL     1       1.234  37.255  22.710  1.00  0.00    -0.287 OA
ATOM     23  H1  UNL     1       1.956  36.676  22.924  1.00  0.00     0.244 HD
ENDBRANCH  19  22
ENDBRANCH  11  14
ENDBRANCH   9  10
ENDBRANCH   2   9
BRANCH   1  24
HETATM   24  C2  UNL     1       5.346  36.922  20.360  1.00  0.00     0.126 C 
HETATM   25  N4  UNL     1       6.248  37.743  20.145  1.00  0.00    -0.309 N 
ATOM     26  H4  UNL     1       6.468  38.302  20.970  1.00  0.00     0.186 HD
BRANCH  25  27
HETATM   27  N3  UNL     1       7.007  38.075  19.087  1.00  0.00    -0.276 N 
HETATM   28  C1  UNL     1       6.824  39.122  18.358  1.00  0.00     0.215 C 
HETATM   29  N1  UNL     1       7.714  39.330  17.274  1.00  0.00    -0.065 NA
HETATM   30  N2  UNL     1       5.775  40.039  18.620  1.00  0.00    -0.065 NA
ATOM     31  H3  UNL     1       7.782  37.457  18.845  1.00  0.00     0.189 HD
ENDBRANCH  25  27
ENDBRANCH   1  24
TORSDOF 6
ENDMDL
