MODEL 1
REMARK VINA RESULT: -6.559334102      0.000      0.000
REMARK  8 active torsions:
REMARK  status: ('A' for Active; 'I' for Inactive)
REMARK    1  A    between atoms: C2_2  and  N1_3 
REMARK    2  A    between atoms: N1_3  and  C3_5 
REMARK    3  A    between atoms: C4_6  and  N2_7 
REMARK    4  A    between atoms: N2_7  and  C5_9 
REMARK    5  A    between atoms: C5_9  and  C6_10 
REMARK    6  A    between atoms: C6_10  and  C7_11 
REMARK    7  A    between atoms: C7_11  and  N3_12 
REMARK    8  A    between atoms: C10_23  and  N7_24 
ROOT
HETATM    1  C3  UNL     1       3.719  36.639  19.754  1.00  0.00     0.158 A 
HETATM    2  C4  UNL     1       3.598  35.466  19.015  1.00  0.00     0.148 A 
HETATM    3  N4  UNL     1       4.184  35.301  17.804  1.00  0.00    -0.325 N 
ATOM      4  H4  UNL     1       4.075  34.427  17.290  1.00  0.00     0.169 HD
HETATM    5  C8  UNL     1       4.908  36.307  17.295  1.00  0.00     0.163 A 
HETATM    6  N5  UNL     1       5.530  36.141  16.018  1.00  0.00    -0.079 NA
HETATM    7  C9  UNL     1       5.039  37.477  18.014  1.00  0.00     0.174 A 
HETATM    8  N6  UNL     1       5.774  38.476  17.480  1.00  0.00    -0.173 N 
ATOM      9  H6  UNL     1       6.221  38.366  16.570  1.00  0.00     0.186 HD
HETATM   10  C10 UNL     1       5.902  39.605  18.170  1.00  0.00     0.681 A 
HETATM   11  N8  UNL     1       5.320  39.773  19.377  1.00  0.00    -0.141 N 
ATOM     12  H8  UNL     1       5.439  40.654  19.879  1.00  0.00     0.189 HD
HETATM   13  C11 UNL     1       4.590  38.795  19.918  1.00  0.00     0.348 A 
HETATM   14  O1  UNL     1       4.029  38.919  21.051  1.00  0.00    -0.245 OA
HETATM   15  N9  UNL     1       4.457  37.640  19.217  1.00  0.00    -0.227 N 
ENDROOT
BRANCH   2  16
HETATM   16  N2  UNL     1       2.906  34.518  19.511  1.00  0.00    -0.373 N 
ATOM     17  H2  UNL     1       1.895  34.638  19.578  1.00  0.00     0.161 HD
BRANCH  16  18
HETATM   18  C5  UNL     1       3.474  33.306  19.973  1.00  0.00     0.123 C 
BRANCH  18  19
HETATM   19  C6  UNL     1       3.913  33.319  21.418  1.00  0.00     0.047 C 
BRANCH  19  20
HETATM   20  C7  UNL     1       5.406  33.178  21.451  1.00  0.00     0.231 C 
BRANCH  20  21
HETATM   21  N3  UNL     1       5.936  32.645  20.208  1.00  0.00    -0.079 N 
ATOM     22  H33 UNL     1       5.191  32.481  19.531  1.00  0.00     0.274 HD
ATOM     23  H32 UNL     1       6.465  33.352  19.699  1.00  0.00     0.274 HD
ATOM     24  H31 UNL     1       6.492  31.803  20.355  1.00  0.00     0.274 HD
ENDBRANCH  20  21
ENDBRANCH  19  20
ENDBRANCH  18  19
ENDBRANCH  16  18
ENDBRANCH   2  16
BRANCH   1  25
HETATM   25  N1  UNL     1       3.179  36.796  20.876  1.00  0.00    -0.373 N 
ATOM     26  H1  UNL     1       3.835  37.031  21.622  1.00  0.00     0.161 HD
BRANCH  25  27
HETATM   27  C2  UNL     1       1.833  36.709  21.303  1.00  0.00     0.117 C 
HETATM   28  C1  UNL     1       0.914  37.468  20.331  1.00  0.00     0.026 C 
ENDBRANCH  25  27
ENDBRANCH   1  25
BRANCH  10  29
HETATM   29  N7  UNL     1       6.609  40.555  17.648  1.00  0.00    -0.234 N 
ATOM     30  H72 UNL     1       6.825  40.548  16.651  1.00  0.00     0.174 HD
ATOM     31  H71 UNL     1       6.935  41.299  18.265  1.00  0.00     0.174 HD
ENDBRANCH  10  29
TORSDOF 8
ENDMDL
MODEL 2
REMARK VINA RESULT: -6.483365455      2.479      4.608
REMARK  8 active torsions:
REMARK  status: ('A' for Active; 'I' for Inactive)
REMARK    1  A    between atoms: C2_2  and  N1_3 
REMARK    2  A    between atoms: N1_3  and  C3_5 
REMARK    3  A    between atoms: C4_6  and  N2_7 
REMARK    4  A    between atoms: N2_7  and  C5_9 
REMARK    5  A    between atoms: C5_9  and  C6_10 
REMARK    6  A    between atoms: C6_10  and  C7_11 
REMARK    7  A    between atoms: C7_11  and  N3_12 
REMARK    8  A    between atoms: C10_23  and  N7_24 
ROOT
HETATM    1  C3  UNL     1       4.733  34.960  19.690  1.00  0.00     0.158 A 
HETATM    2  C4  UNL     1       4.980  33.738  20.309  1.00  0.00     0.148 A 
HETATM    3  N4  UNL     1       4.061  33.110  21.080  1.00  0.00    -0.325 N 
ATOM      4  H4  UNL     1       4.276  32.215  21.519  1.00  0.00     0.169 HD
HETATM    5  C8  UNL     1       2.863  33.686  21.257  1.00  0.00     0.163 A 
HETATM    6  N5  UNL     1       1.888  33.029  22.070  1.00  0.00    -0.079 NA
HETATM    7  C9  UNL     1       2.601  34.897  20.651  1.00  0.00     0.174 A 
HETATM    8  N6  UNL     1       1.387  35.457  20.843  1.00  0.00    -0.173 N 
ATOM      9  H6  UNL     1       0.685  34.996  21.422  1.00  0.00     0.186 HD
HETATM   10  C10 UNL     1       1.130  36.625  20.261  1.00  0.00     0.681 A 
HETATM   11  N8  UNL     1       2.044  37.254  19.491  1.00  0.00    -0.141 N 
ATOM     12  H8  UNL     1       1.813  38.149  19.059  1.00  0.00     0.189 HD
HETATM   13  C11 UNL     1       3.248  36.713  19.291  1.00  0.00     0.348 A 
HETATM   14  O1  UNL     1       4.131  37.277  18.573  1.00  0.00    -0.245 OA
HETATM   15  N9  UNL     1       3.515  35.521  19.884  1.00  0.00    -0.227 N 
ENDROOT
BRANCH   2  16
HETATM   16  N2  UNL     1       6.123  33.202  20.133  1.00  0.00    -0.373 N 
ATOM     17  H2  UNL     1       6.756  33.619  19.451  1.00  0.00     0.161 HD
BRANCH  16  18
HETATM   18  C5  UNL     1       6.554  32.053  20.839  1.00  0.00     0.123 C 
BRANCH  18  19
HETATM   19  C6  UNL     1       7.601  32.312  21.897  1.00  0.00     0.047 C 
BRANCH  19  20
HETATM   20  C7  UNL     1       6.949  33.061  23.022  1.00  0.00     0.231 C 
BRANCH  20  21
HETATM   21  N3  UNL     1       7.548  32.751  24.308  1.00  0.00    -0.079 N 
ATOM     22  H33 UNL     1       8.506  33.097  24.361  1.00  0.00     0.274 HD
ATOM     23  H32 UNL     1       7.132  33.310  25.052  1.00  0.00     0.274 HD
ATOM     24  H31 UNL     1       7.502  31.756  24.525  1.00  0.00     0.274 HD
ENDBRANCH  20  21
ENDBRANCH  19  20
ENDBRANCH  18  19
ENDBRANCH  16  18
ENDBRANCH   2  16
BRANCH   1  25
HETATM   25  N1  UNL     1       5.581  35.546  18.974  1.00  0.00    -0.373 N 
ATOM     26  H1  UNL     1       5.397  35.474  17.973  1.00  0.00     0.161 HD
BRANCH  25  27
HETATM   27  C2  UNL     1       6.743  36.286  19.291  1.00  0.00     0.117 C 
HETATM   28  C1  UNL     1       6.670  36.801  20.739  1.00  0.00     0.026 C 
ENDBRANCH  25  27
ENDBRANCH   1  25
BRANCH  10  29
HETATM   29  N7  UNL     1      -0.036  37.151  20.453  1.00  0.00    -0.234 N 
ATOM     30  H72 UNL     1      -0.789  36.599  20.864  1.00  0.00     0.174 HD
ATOM     31  H71 UNL     1      -0.168  38.126  20.181  1.00  0.00     0.174 HD
ENDBRANCH  10  29
TORSDOF 8
ENDMDL
MODEL 3
REMARK VINA RESULT: -6.455135850      2.191      5.452
REMARK  8 active torsions:
REMARK  status: ('A' for Active; 'I' for Inactive)
REMARK    1  A    between atoms: C2_2  and  N1_3 
REMARK    2  A    between atoms: N1_3  and  C3_5 
REMARK    3  A    between atoms: C4_6  and  N2_7 
REMARK    4  A    between atoms: N2_7  and  C5_9 
REMARK    5  A    between atoms: C5_9  and  C6_10 
REMARK    6  A    between atoms: C6_10  and  C7_11 
REMARK    7  A    between atoms: C7_11  and  N3_12 
REMARK    8  A    between atoms: C10_23  and  N7_24 
ROOT
HETATM    1  C3  UNL     1       4.054  35.865  19.697  1.00  0.00     0.158 A 
HETATM    2  C4  UNL     1       2.703  35.956  20.023  1.00  0.00     0.148 A 
HETATM    3  N4  UNL     1       2.058  35.004  20.738  1.00  0.00    -0.325 N 
ATOM      4  H4  UNL     1       1.068  35.103  20.960  1.00  0.00     0.169 HD
HETATM    5  C8  UNL     1       2.745  33.928  21.148  1.00  0.00     0.163 A 
HETATM    6  N5  UNL     1       2.071  32.918  21.904  1.00  0.00    -0.079 NA
HETATM    7  C9  UNL     1       4.084  33.821  20.834  1.00  0.00     0.174 A 
HETATM    8  N6  UNL     1       4.754  32.729  21.260  1.00  0.00    -0.173 N 
ATOM      9  H6  UNL     1       4.281  32.003  21.799  1.00  0.00     0.186 HD
HETATM   10  C10 UNL     1       6.045  32.622  20.959  1.00  0.00     0.681 A 
HETATM   11  N8  UNL     1       6.692  33.570  20.246  1.00  0.00    -0.141 N 
ATOM     12  H8  UNL     1       7.683  33.455  20.034  1.00  0.00     0.189 HD
HETATM   13  C11 UNL     1       6.043  34.656  19.819  1.00  0.00     0.348 A 
HETATM   14  O1  UNL     1       6.620  35.566  19.148  1.00  0.00    -0.245 OA
HETATM   15  N9  UNL     1       4.724  34.769  20.124  1.00  0.00    -0.227 N 
ENDROOT
BRANCH   2  16
HETATM   16  N2  UNL     1       2.063  36.984  19.626  1.00  0.00    -0.373 N 
ATOM     17  H2  UNL     1       2.333  37.414  18.741  1.00  0.00     0.161 HD
BRANCH  16  18
HETATM   18  C5  UNL     1       0.994  37.558  20.355  1.00  0.00     0.123 C 
BRANCH  18  19
HETATM   19  C6  UNL     1       1.226  38.977  20.816  1.00  0.00     0.047 C 
BRANCH  19  20
HETATM   20  C7  UNL     1       1.948  38.927  22.130  1.00  0.00     0.231 C 
BRANCH  20  21
HETATM   21  N3  UNL     1       1.439  37.880  22.998  1.00  0.00    -0.079 N 
ATOM     22  H33 UNL     1       0.580  38.172  23.463  1.00  0.00     0.274 HD
ATOM     23  H32 UNL     1       1.072  37.098  22.456  1.00  0.00     0.274 HD
ATOM     24  H31 UNL     1       2.135  37.565  23.673  1.00  0.00     0.274 HD
ENDBRANCH  20  21
ENDBRANCH  19  20
ENDBRANCH  18  19
ENDBRANCH  16  18
ENDBRANCH   2  16
BRANCH   1  25
HETATM   25  N1  UNL     1       4.656  36.746  19.036  1.00  0.00    -0.373 N 
ATOM     26  H1  UNL     1       5.130  36.388  18.206  1.00  0.00     0.161 HD
BRANCH  25  27
HETATM   27  C2  UNL     1       4.802  38.140  19.223  1.00  0.00     0.117 C 
HETATM   28  C1  UNL     1       5.371  38.435  20.621  1.00  0.00     0.026 C 
ENDBRANCH  25  27
ENDBRANCH   1  25
BRANCH  10  29
HETATM   29  N7  UNL     1       6.676  31.571  21.371  1.00  0.00    -0.234 N 
ATOM     30  H72 UNL     1       6.181  30.842  21.887  1.00  0.00     0.174 HD
ATOM     31  H71 UNL     1       7.672  31.502  21.163  1.00  0.00     0.174 HD
ENDBRANCH  10  29
TORSDOF 8
ENDMDL
MODEL 4
REMARK VINA RESULT: -6.276258453      1.738      2.850
REMARK  8 active torsions:
REMARK  status: ('A' for Active; 'I' for Inactive)
REMARK    1  A    between atoms: C2_2  and  N1_3 
REMARK    2  A    between atoms: N1_3  and  C3_5 
REMARK    3  A    between atoms: C4_6  and  N2_7 
REMARK    4  A    between atoms: N2_7  and  C5_9 
REMARK    5  A    between atoms: C5_9  and  C6_10 
REMARK    6  A    between atoms: C6_10  and  C7_11 
REMARK    7  A    between atoms: C7_11  and  N3_12 
REMARK    8  A    between atoms: C10_23  and  N7_24 
ROOT
HETATM    1  C3  UNL     1       5.455  35.664  19.859  1.00  0.00     0.158 A 
HETATM    2  C4  UNL     1       4.667  34.773  19.136  1.00  0.00     0.148 A 
HETATM    3  N4  UNL     1       4.367  34.958  17.828  1.00  0.00    -0.325 N 
ATOM      4  H4  UNL     1       3.787  34.285  17.329  1.00  0.00     0.169 HD
HETATM    5  C8  UNL     1       4.847  36.042  17.203  1.00  0.00     0.163 A 
HETATM    6  N5  UNL     1       4.534  36.244  15.822  1.00  0.00    -0.079 NA
HETATM    7  C9  UNL     1       5.630  36.936  17.904  1.00  0.00     0.174 A 
HETATM    8  N6  UNL     1       6.101  38.019  17.251  1.00  0.00    -0.173 N 
ATOM      9  H6  UNL     1       5.884  38.172  16.266  1.00  0.00     0.186 HD
HETATM   10  C10 UNL     1       6.857  38.883  17.923  1.00  0.00     0.681 A 
HETATM   11  N8  UNL     1       7.158  38.702  19.227  1.00  0.00    -0.141 N 
ATOM     12  H8  UNL     1       7.741  39.386  19.712  1.00  0.00     0.189 HD
HETATM   13  C11 UNL     1       6.700  37.635  19.886  1.00  0.00     0.348 A 
HETATM   14  O1  UNL     1       6.964  37.434  21.112  1.00  0.00    -0.245 OA
HETATM   15  N9  UNL     1       5.928  36.751  19.203  1.00  0.00    -0.227 N 
ENDROOT
BRANCH   2  16
HETATM   16  N2  UNL     1       4.218  33.747  19.744  1.00  0.00    -0.373 N 
ATOM     17  H2  UNL     1       4.885  33.091  20.149  1.00  0.00     0.161 HD
BRANCH  16  18
HETATM   18  C5  UNL     1       2.836  33.475  19.882  1.00  0.00     0.123 C 
BRANCH  18  19
HETATM   19  C6  UNL     1       2.288  33.651  21.279  1.00  0.00     0.047 C 
BRANCH  19  20
HETATM   20  C7  UNL     1       1.336  34.811  21.261  1.00  0.00     0.231 C 
BRANCH  20  21
HETATM   21  N3  UNL     1       2.021  36.086  21.384  1.00  0.00    -0.079 N 
ATOM     22  H33 UNL     1       1.773  36.554  22.256  1.00  0.00     0.274 HD
ATOM     23  H32 UNL     1       3.018  35.953  21.549  1.00  0.00     0.274 HD
ATOM     24  H31 UNL     1       1.857  36.691  20.580  1.00  0.00     0.274 HD
ENDBRANCH  20  21
ENDBRANCH  19  20
ENDBRANCH  18  19
ENDBRANCH  16  18
ENDBRANCH   2  16
BRANCH   1  25
HETATM   25  N1  UNL     1       5.737  35.497  21.071  1.00  0.00    -0.373 N 
ATOM     26  H1  UNL     1       5.739  36.358  21.618  1.00  0.00     0.161 HD
BRANCH  25  27
HETATM   27  C2  UNL     1       6.052  34.340  21.822  1.00  0.00     0.117 C 
HETATM   28  C1  UNL     1       6.885  34.716  23.059  1.00  0.00     0.026 C 
ENDBRANCH  25  27
ENDBRANCH   1  25
BRANCH  10  29
HETATM   29  N7  UNL     1       7.302  39.918  17.287  1.00  0.00    -0.234 N 
ATOM     30  H72 UNL     1       7.733  39.812  16.368  1.00  0.00     0.174 HD
ATOM     31  H71 UNL     1       7.206  40.829  17.735  1.00  0.00     0.174 HD
ENDBRANCH  10  29
TORSDOF 8
ENDMDL
MODEL 5
REMARK VINA RESULT: -6.205399444      2.385      3.499
REMARK  8 active torsions:
REMARK  status: ('A' for Active; 'I' for Inactive)
REMARK    1  A    between atoms: C2_2  and  N1_3 
REMARK    2  A    between atoms: N1_3  and  C3_5 
REMARK    3  A    between atoms: C4_6  and  N2_7 
REMARK    4  A    between atoms: N2_7  and  C5_9 
REMARK    5  A    between atoms: C5_9  and  C6_10 
REMARK    6  A    between atoms: C6_10  and  C7_11 
REMARK    7  A    between atoms: C7_11  and  N3_12 
REMARK    8  A    between atoms: C10_23  and  N7_24 
ROOT
HETATM    1  C3  UNL     1       4.816  34.671  20.135  1.00  0.00     0.158 A 
HETATM    2  C4  UNL     1       5.422  34.425  21.364  1.00  0.00     0.148 A 
HETATM    3  N4  UNL     1       6.215  35.333  21.982  1.00  0.00    -0.325 N 
ATOM      4  H4  UNL     1       6.643  35.119  22.883  1.00  0.00     0.169 HD
HETATM    5  C8  UNL     1       6.427  36.516  21.390  1.00  0.00     0.163 A 
HETATM    6  N5  UNL     1       7.262  37.480  22.037  1.00  0.00    -0.079 NA
HETATM    7  C9  UNL     1       5.833  36.778  20.172  1.00  0.00     0.174 A 
HETATM    8  N6  UNL     1       6.062  37.977  19.595  1.00  0.00    -0.173 N 
ATOM      9  H6  UNL     1       6.656  38.671  20.050  1.00  0.00     0.186 HD
HETATM   10  C10 UNL     1       5.492  38.232  18.421  1.00  0.00     0.681 A 
HETATM   11  N8  UNL     1       4.701  37.330  17.801  1.00  0.00    -0.141 N 
ATOM     12  H8  UNL     1       4.280  37.560  16.900  1.00  0.00     0.189 HD
HETATM   13  C11 UNL     1       4.466  36.140  18.359  1.00  0.00     0.348 A 
HETATM   14  O1  UNL     1       3.727  35.269  17.803  1.00  0.00    -0.245 OA
HETATM   15  N9  UNL     1       5.046  35.875  19.558  1.00  0.00    -0.227 N 
ENDROOT
BRANCH   2  16
HETATM   16  N2  UNL     1       5.213  33.296  21.915  1.00  0.00    -0.373 N 
ATOM     17  H2  UNL     1       4.249  32.988  22.041  1.00  0.00     0.161 HD
BRANCH  16  18
HETATM   18  C5  UNL     1       6.256  32.449  22.362  1.00  0.00     0.123 C 
BRANCH  18  19
HETATM   19  C6  UNL     1       7.047  31.778  21.264  1.00  0.00     0.047 C 
BRANCH  19  20
HETATM   20  C7  UNL     1       7.048  30.301  21.529  1.00  0.00     0.231 C 
BRANCH  20  21
HETATM   21  N3  UNL     1       6.731  29.530  20.340  1.00  0.00    -0.079 N 
ATOM     22  H33 UNL     1       6.354  28.614  20.585  1.00  0.00     0.274 HD
ATOM     23  H32 UNL     1       5.920  29.915  19.856  1.00  0.00     0.274 HD
ATOM     24  H31 UNL     1       7.529  29.444  19.711  1.00  0.00     0.274 HD
ENDBRANCH  20  21
ENDBRANCH  19  20
ENDBRANCH  18  19
ENDBRANCH  16  18
ENDBRANCH   2  16
BRANCH   1  25
HETATM   25  N1  UNL     1       4.080  33.834  19.558  1.00  0.00    -0.373 N 
ATOM     26  H1  UNL     1       4.410  33.562  18.631  1.00  0.00     0.161 HD
BRANCH  25  27
HETATM   27  C2  UNL     1       2.881  33.196  19.949  1.00  0.00     0.117 C 
HETATM   28  C1  UNL     1       2.020  34.148  20.797  1.00  0.00     0.026 C 
ENDBRANCH  25  27
ENDBRANCH   1  25
BRANCH  10  29
HETATM   29  N7  UNL     1       5.718  39.385  17.879  1.00  0.00    -0.234 N 
ATOM     30  H72 UNL     1       5.050  40.148  17.992  1.00  0.00     0.174 HD
ATOM     31  H71 UNL     1       6.578  39.497  17.342  1.00  0.00     0.174 HD
ENDBRANCH  10  29
TORSDOF 8
ENDMDL
