MODEL 1
REMARK VINA RESULT: -4.544816296      0.000      0.000
REMARK  5 active torsions:
REMARK  status: ('A' for Active; 'I' for Inactive)
REMARK    1  A    between atoms: C2_2  and  C3_3 
REMARK    2  A    between atoms: C2_2  and  N2_6 
REMARK    3  A    between atoms: C5_10  and  N4_11 
REMARK    4  A    between atoms: C6_16  and  N6_17 
REMARK    5  A    between atoms: N6_17  and  N7_19 
ROOT
HETATM    1  N2  UNL     1       0.617  15.812  14.994  1.00  0.00    -0.137 N 
HETATM    2  C4  UNL     1      -0.093  16.631  14.168  1.00  0.00     0.224 A 
HETATM    3  N3  UNL     1      -1.412  16.693  14.233  1.00  0.00    -0.186 N 
ATOM      4  H3  UNL     1      -1.920  17.314  13.603  1.00  0.00     0.185 HD
HETATM    5  C5  UNL     1      -2.090  15.949  15.117  1.00  0.00     0.691 A 
HETATM    6  N5  UNL     1      -1.420  15.140  15.935  1.00  0.00    -0.021 N 
ATOM      7  H5  UNL     1      -1.917  14.566  16.615  1.00  0.00     0.203 HD
HETATM    8  C6  UNL     1      -0.082  15.090  15.855  1.00  0.00     0.719 A 
ENDROOT
BRANCH   1   9
HETATM    9  C2  UNL     1       2.009  15.819  14.801  1.00  0.00     0.113 C 
HETATM   10  C1  UNL     1       2.644  16.938  15.211  1.00  0.00     0.049 C 
BRANCH   9  11
HETATM   11  C3  UNL     1       2.784  14.731  14.248  1.00  0.00     0.281 C 
HETATM   12  N1  UNL     1       3.048  14.715  12.827  1.00  0.00    -0.056 NA
HETATM   13  O1  UNL     1       3.254  13.783  14.937  1.00  0.00    -0.269 OA
ENDBRANCH   9  11
ENDBRANCH   1   9
BRANCH   8  14
HETATM   14  N6  UNL     1       0.545  14.268  16.640  1.00  0.00    -0.138 N 
ATOM     15  H6  UNL     1       0.792  13.341  16.293  1.00  0.00     0.205 HD
BRANCH  14  16
HETATM   16  N7  UNL     1       0.888  14.616  17.940  1.00  0.00    -0.331 N 
ATOM     17  H72 UNL     1       0.563  15.515  18.298  1.00  0.00     0.177 HD
ATOM     18  H71 UNL     1       1.448  14.001  18.530  1.00  0.00     0.177 HD
ENDBRANCH  14  16
ENDBRANCH   8  14
BRANCH   5  19
HETATM   19  N4  UNL     1      -3.376  16.007  15.183  1.00  0.00    -0.234 N 
ATOM     20  H42 UNL     1      -3.833  16.877  15.460  1.00  0.00     0.174 HD
ATOM     21  H41 UNL     1      -3.949  15.192  14.962  1.00  0.00     0.174 HD
ENDBRANCH   5  19
TORSDOF 5
ENDMDL
MODEL 2
REMARK VINA RESULT: -4.494123559      9.271     12.342
REMARK  5 active torsions:
REMARK  status: ('A' for Active; 'I' for Inactive)
REMARK    1  A    between atoms: C2_2  and  C3_3 
REMARK    2  A    between atoms: C2_2  and  N2_6 
REMARK    3  A    between atoms: C5_10  and  N4_11 
REMARK    4  A    between atoms: C6_16  and  N6_17 
REMARK    5  A    between atoms: N6_17  and  N7_19 
ROOT
HETATM    1  N2  UNL     1       6.286  10.878   6.335  1.00  0.00    -0.137 N 
HETATM    2  C4  UNL     1       7.496  10.526   6.854  1.00  0.00     0.224 A 
HETATM    3  N3  UNL     1       8.132   9.444   6.437  1.00  0.00    -0.186 N 
ATOM      4  H3  UNL     1       9.036   9.203   6.842  1.00  0.00     0.185 HD
HETATM    5  C5  UNL     1       7.602   8.661   5.488  1.00  0.00     0.691 A 
HETATM    6  N5  UNL     1       6.421   8.983   4.965  1.00  0.00    -0.021 N 
ATOM      7  H5  UNL     1       6.000   8.400   4.242  1.00  0.00     0.203 HD
HETATM    8  C6  UNL     1       5.790  10.083   5.400  1.00  0.00     0.719 A 
ENDROOT
BRANCH   1   9
HETATM    9  C2  UNL     1       5.704  12.033   6.886  1.00  0.00     0.113 C 
HETATM   10  C1  UNL     1       6.215  13.203   6.448  1.00  0.00     0.049 C 
BRANCH   9  11
HETATM   11  C3  UNL     1       4.609  12.050   7.829  1.00  0.00     0.281 C 
HETATM   12  N1  UNL     1       3.557  13.027   7.658  1.00  0.00    -0.056 NA
HETATM   13  O1  UNL     1       4.509  11.254   8.804  1.00  0.00    -0.269 OA
ENDBRANCH   9  11
ENDBRANCH   1   9
BRANCH   8  14
HETATM   14  N6  UNL     1       4.623  10.355   4.898  1.00  0.00    -0.138 N 
ATOM     15  H6  UNL     1       4.282  11.316   4.930  1.00  0.00     0.205 HD
BRANCH  14  16
HETATM   16  N7  UNL     1       3.829   9.374   4.320  1.00  0.00    -0.331 N 
ATOM     17  H72 UNL     1       4.265   8.485   4.076  1.00  0.00     0.177 HD
ATOM     18  H71 UNL     1       2.836   9.525   4.140  1.00  0.00     0.177 HD
ENDBRANCH  14  16
ENDBRANCH   8  14
BRANCH   5  19
HETATM   19  N4  UNL     1       8.219   7.606   5.079  1.00  0.00    -0.234 N 
ATOM     20  H42 UNL     1       9.153   7.394   5.432  1.00  0.00     0.174 HD
ATOM     21  H41 UNL     1       7.787   6.975   4.404  1.00  0.00     0.174 HD
ENDBRANCH   5  19
TORSDOF 5
ENDMDL
MODEL 3
REMARK VINA RESULT: -4.458053507      7.133      9.719
REMARK  5 active torsions:
REMARK  status: ('A' for Active; 'I' for Inactive)
REMARK    1  A    between atoms: C2_2  and  C3_3 
REMARK    2  A    between atoms: C2_2  and  N2_6 
REMARK    3  A    between atoms: C5_10  and  N4_11 
REMARK    4  A    between atoms: C6_16  and  N6_17 
REMARK    5  A    between atoms: N6_17  and  N7_19 
ROOT
HETATM    1  N2  UNL     1       4.960  12.195   7.676  1.00  0.00    -0.137 N 
HETATM    2  C4  UNL     1       4.337  11.669   8.767  1.00  0.00     0.224 A 
HETATM    3  N3  UNL     1       3.812  12.447   9.699  1.00  0.00    -0.186 N 
ATOM      4  H3  UNL     1       3.351  12.028  10.506  1.00  0.00     0.185 HD
HETATM    5  C5  UNL     1       3.879  13.782   9.594  1.00  0.00     0.691 A 
HETATM    6  N5  UNL     1       4.483  14.320   8.537  1.00  0.00    -0.021 N 
ATOM      7  H5  UNL     1       4.544  15.333   8.438  1.00  0.00     0.203 HD
HETATM    8  C6  UNL     1       5.009  13.516   7.603  1.00  0.00     0.719 A 
ENDROOT
BRANCH   1   9
HETATM    9  C2  UNL     1       5.500  11.258   6.777  1.00  0.00     0.113 C 
HETATM   10  C1  UNL     1       4.688  10.897   5.762  1.00  0.00     0.049 C 
BRANCH   9  11
HETATM   11  C3  UNL     1       6.834  10.705   6.845  1.00  0.00     0.281 C 
HETATM   12  N1  UNL     1       7.959  11.560   6.538  1.00  0.00    -0.056 NA
HETATM   13  O1  UNL     1       7.083   9.509   7.162  1.00  0.00    -0.269 OA
ENDBRANCH   9  11
ENDBRANCH   1   9
BRANCH   8  14
HETATM   14  N6  UNL     1       5.623  14.067   6.599  1.00  0.00    -0.138 N 
ATOM     15  H6  UNL     1       5.151  14.118   5.697  1.00  0.00     0.205 HD
BRANCH  14  16
HETATM   16  N7  UNL     1       6.904  14.588   6.723  1.00  0.00    -0.331 N 
ATOM     17  H72 UNL     1       7.122  15.135   7.556  1.00  0.00     0.177 HD
ATOM     18  H71 UNL     1       7.617  14.435   6.009  1.00  0.00     0.177 HD
ENDBRANCH  14  16
ENDBRANCH   8  14
BRANCH   5  19
HETATM   19  N4  UNL     1       3.368  14.543  10.499  1.00  0.00    -0.234 N 
ATOM     20  H42 UNL     1       3.695  15.505  10.599  1.00  0.00     0.174 HD
ATOM     21  H41 UNL     1       2.637  14.198  11.122  1.00  0.00     0.174 HD
ENDBRANCH   5  19
TORSDOF 5
ENDMDL
MODEL 4
REMARK VINA RESULT: -4.423843354      7.188      9.716
REMARK  5 active torsions:
REMARK  status: ('A' for Active; 'I' for Inactive)
REMARK    1  A    between atoms: C2_2  and  C3_3 
REMARK    2  A    between atoms: C2_2  and  N2_6 
REMARK    3  A    between atoms: C5_10  and  N4_11 
REMARK    4  A    between atoms: C6_16  and  N6_17 
REMARK    5  A    between atoms: N6_17  and  N7_19 
ROOT
HETATM    1  N2  UNL     1       4.708  12.282   7.623  1.00  0.00    -0.137 N 
HETATM    2  C4  UNL     1       4.230  11.604   8.704  1.00  0.00     0.224 A 
HETATM    3  N3  UNL     1       3.828  12.243   9.790  1.00  0.00    -0.186 N 
ATOM      4  H3  UNL     1       3.474  11.712  10.586  1.00  0.00     0.185 HD
HETATM    5  C5  UNL     1       3.880  13.580   9.857  1.00  0.00     0.691 A 
HETATM    6  N5  UNL     1       4.344  14.265   8.814  1.00  0.00    -0.021 N 
ATOM      7  H5  UNL     1       4.392  15.283   8.845  1.00  0.00     0.203 HD
HETATM    8  C6  UNL     1       4.747  13.601   7.722  1.00  0.00     0.719 A 
ENDROOT
BRANCH   1   9
HETATM    9  C2  UNL     1       5.129  11.482   6.546  1.00  0.00     0.113 C 
HETATM   10  C1  UNL     1       6.283  10.809   6.742  1.00  0.00     0.049 C 
BRANCH   9  11
HETATM   11  C3  UNL     1       4.414  11.308   5.302  1.00  0.00     0.281 C 
HETATM   12  N1  UNL     1       4.620  12.267   4.240  1.00  0.00    -0.056 NA
HETATM   13  O1  UNL     1       3.613  10.358   5.079  1.00  0.00    -0.269 OA
ENDBRANCH   9  11
ENDBRANCH   1   9
BRANCH   8  14
HETATM   14  N6  UNL     1       5.228  14.291   6.732  1.00  0.00    -0.138 N 
ATOM     15  H6  UNL     1       6.237  14.314   6.587  1.00  0.00     0.205 HD
BRANCH  14  16
HETATM   16  N7  UNL     1       4.404  14.997   5.865  1.00  0.00    -0.331 N 
ATOM     17  H72 UNL     1       4.144  15.950   6.120  1.00  0.00     0.177 HD
ATOM     18  H71 UNL     1       4.063  14.588   4.995  1.00  0.00     0.177 HD
ENDBRANCH  14  16
ENDBRANCH   8  14
BRANCH   5  19
HETATM   19  N4  UNL     1       3.489  14.206  10.914  1.00  0.00    -0.234 N 
ATOM     20  H42 UNL     1       3.410  13.707  11.801  1.00  0.00     0.174 HD
ATOM     21  H41 UNL     1       3.256  15.198  10.878  1.00  0.00     0.174 HD
ENDBRANCH   5  19
TORSDOF 5
ENDMDL
MODEL 5
REMARK VINA RESULT: -4.393905827     10.914     13.752
REMARK  5 active torsions:
REMARK  status: ('A' for Active; 'I' for Inactive)
REMARK    1  A    between atoms: C2_2  and  C3_3 
REMARK    2  A    between atoms: C2_2  and  N2_6 
REMARK    3  A    between atoms: C5_10  and  N4_11 
REMARK    4  A    between atoms: C6_16  and  N6_17 
REMARK    5  A    between atoms: N6_17  and  N7_19 
ROOT
HETATM    1  N2  UNL     1       6.687   9.732   4.953  1.00  0.00    -0.137 N 
HETATM    2  C4  UNL     1       6.629   9.578   3.600  1.00  0.00     0.224 A 
HETATM    3  N3  UNL     1       7.219   8.558   3.001  1.00  0.00    -0.186 N 
ATOM      4  H3  UNL     1       7.161   8.465   1.987  1.00  0.00     0.185 HD
HETATM    5  C5  UNL     1       7.894   7.643   3.711  1.00  0.00     0.691 A 
HETATM    6  N5  UNL     1       7.966   7.772   5.034  1.00  0.00    -0.021 N 
ATOM      7  H5  UNL     1       8.474   7.086   5.592  1.00  0.00     0.203 HD
HETATM    8  C6  UNL     1       7.361   8.813   5.624  1.00  0.00     0.719 A 
ENDROOT
BRANCH   1   9
HETATM    9  C2  UNL     1       6.042  10.874   5.459  1.00  0.00     0.113 C 
HETATM   10  C1  UNL     1       6.790  11.998   5.481  1.00  0.00     0.049 C 
BRANCH   9  11
HETATM   11  C3  UNL     1       4.669  10.932   5.906  1.00  0.00     0.281 C 
HETATM   12  N1  UNL     1       4.378  11.532   7.189  1.00  0.00    -0.056 NA
HETATM   13  O1  UNL     1       3.694  10.490   5.238  1.00  0.00    -0.269 OA
ENDBRANCH   9  11
ENDBRANCH   1   9
BRANCH   8  14
HETATM   14  N6  UNL     1       7.475   8.933   6.913  1.00  0.00    -0.138 N 
ATOM     15  H6  UNL     1       7.464   9.865   7.327  1.00  0.00     0.205 HD
BRANCH  14  16
HETATM   16  N7  UNL     1       7.612   7.828   7.741  1.00  0.00    -0.331 N 
ATOM     17  H72 UNL     1       6.988   7.035   7.592  1.00  0.00     0.177 HD
ATOM     18  H71 UNL     1       8.313   7.795   8.482  1.00  0.00     0.177 HD
ENDBRANCH  14  16
ENDBRANCH   8  14
BRANCH   5  19
HETATM   19  N4  UNL     1       8.471   6.647   3.130  1.00  0.00    -0.234 N 
ATOM     20  H42 UNL     1       8.580   6.644   2.116  1.00  0.00     0.174 HD
ATOM     21  H41 UNL     1       8.821   5.857   3.672  1.00  0.00     0.174 HD
ENDBRANCH   5  19
TORSDOF 5
ENDMDL
