MODEL 1
REMARK VINA RESULT: -8.579973463      0.000      0.000
REMARK  7 active torsions:
REMARK  status: ('A' for Active; 'I' for Inactive)
REMARK    1  A    between atoms: O1_2  and  C2_3 
REMARK    2  A    between atoms: C6_10  and  N2_11 
REMARK    3  A    between atoms: C7_16  and  O3_17 
REMARK    4  A    between atoms: O3_17  and  C8_18 
REMARK    5  A    between atoms: C8_18  and  C9_19 
REMARK    6  A    between atoms: C11_21  and  C12_22 
REMARK    7  A    between atoms: C19_33  and  O6_34 
ROOT
HETATM    1  C2  UNL     1      -0.927   8.824  26.625  1.00  0.00     0.104 A 
HETATM    2  C3  UNL     1      -0.408   9.101  25.377  1.00  0.00     0.078 A 
HETATM    3  C4  UNL     1      -1.096   9.862  24.448  1.00  0.00     0.095 A 
HETATM    4  O2  UNL     1      -0.601  10.125  23.258  1.00  0.00    -0.291 OA
HETATM    5  C5  UNL     1      -1.207  10.836  22.350  1.00  0.00     0.181 A 
HETATM    6  N1  UNL     1      -0.671  11.088  21.135  1.00  0.00    -0.169 N 
ATOM      7  H1  UNL     1       0.249  10.704  20.921  1.00  0.00     0.186 HD
HETATM    8  C6  UNL     1      -1.295  11.822  20.195  1.00  0.00     0.679 A 
HETATM    9  N3  UNL     1      -2.507  12.318  20.496  1.00  0.00    -0.170 N 
ATOM     10  H3  UNL     1      -3.000  12.878  19.799  1.00  0.00     0.186 HD
HETATM   11  C7  UNL     1      -3.083  12.101  21.676  1.00  0.00     0.176 A 
HETATM   12  C15 UNL     1      -2.451  11.348  22.651  1.00  0.00     0.118 A 
HETATM   13  C16 UNL     1      -3.012  11.099  23.887  1.00  0.00     0.203 A 
HETATM   14  O5  UNL     1      -4.145  11.568  24.159  1.00  0.00    -0.286 OA
HETATM   15  C17 UNL     1      -2.334  10.338  24.828  1.00  0.00     0.052 A 
HETATM   16  C18 UNL     1      -2.851  10.060  26.077  1.00  0.00     0.058 A 
HETATM   17  C19 UNL     1      -2.166   9.300  27.004  1.00  0.00     0.102 A 
ENDROOT
BRANCH  11  18
HETATM   18  O3  UNL     1      -4.343  12.599  22.030  1.00  0.00    -0.332 OA
BRANCH  18  19
HETATM   19  C8  UNL     1      -5.360  12.457  21.060  1.00  0.00     0.209 C 
BRANCH  19  20
HETATM   20  C9  UNL     1      -5.764  11.028  20.846  1.00  0.00     0.146 C 
HETATM   21  C10 UNL     1      -7.184  10.908  20.324  1.00  0.00     0.041 C 
HETATM   22  C11 UNL     1      -7.600   9.457  20.348  1.00  0.00     0.022 C 
HETATM   23  C13 UNL     1      -6.436   8.526  20.144  1.00  0.00     0.111 C 
HETATM   24 CL2  UNL     1      -6.878   7.066  19.253  1.00  0.00    -0.122 Cl
HETATM   25  C14 UNL     1      -5.388   9.301  19.348  1.00  0.00     0.188 C 
HETATM   26  O4  UNL     1      -4.850  10.346  20.058  1.00  0.00    -0.382 OA
BRANCH  22  27
HETATM   27  C12 UNL     1      -8.240   9.130  21.666  1.00  0.00     0.121 C 
HETATM   28 CL1  UNL     1      -9.617  10.201  22.020  1.00  0.00    -0.130 Cl
ENDBRANCH  22  27
ENDBRANCH  19  20
ENDBRANCH  18  19
ENDBRANCH  11  18
BRANCH   8  29
HETATM   29  N2  UNL     1      -0.741  12.044  19.027  1.00  0.00    -0.234 N 
ATOM     30  H22 UNL     1      -1.022  11.517  18.201  1.00  0.00     0.174 HD
ATOM     31  H21 UNL     1      -0.015  12.751  18.912  1.00  0.00     0.174 HD
ENDBRANCH   8  29
BRANCH  17  32
HETATM   32  O6  UNL     1      -2.686   9.020  28.264  1.00  0.00    -0.353 OA
HETATM   33  C20 UNL     1      -3.573   7.920  28.378  1.00  0.00     0.210 C 
ENDBRANCH  17  32
BRANCH   1  34
HETATM   34  O1  UNL     1      -0.235   8.061  27.553  1.00  0.00    -0.353 OA
HETATM   35  C1  UNL     1      -0.343   6.642  27.600  1.00  0.00     0.210 C 
ENDBRANCH   1  34
TORSDOF 7
ENDMDL
MODEL 2
REMARK VINA RESULT: -8.404459093      4.038      7.167
REMARK  7 active torsions:
REMARK  status: ('A' for Active; 'I' for Inactive)
REMARK    1  A    between atoms: O1_2  and  C2_3 
REMARK    2  A    between atoms: C6_10  and  N2_11 
REMARK    3  A    between atoms: C7_16  and  O3_17 
REMARK    4  A    between atoms: O3_17  and  C8_18 
REMARK    5  A    between atoms: C8_18  and  C9_19 
REMARK    6  A    between atoms: C11_21  and  C12_22 
REMARK    7  A    between atoms: C19_33  and  O6_34 
ROOT
HETATM    1  C2  UNL     1       0.172  16.412  19.034  1.00  0.00     0.104 A 
HETATM    2  C3  UNL     1       0.458  15.580  20.097  1.00  0.00     0.078 A 
HETATM    3  C4  UNL     1      -0.133  14.337  20.236  1.00  0.00     0.095 A 
HETATM    4  O2  UNL     1       0.139  13.544  21.249  1.00  0.00    -0.291 OA
HETATM    5  C5  UNL     1      -0.389  12.366  21.425  1.00  0.00     0.181 A 
HETATM    6  N1  UNL     1      -0.088  11.574  22.478  1.00  0.00    -0.169 N 
ATOM      7  H1  UNL     1       0.583  11.916  23.166  1.00  0.00     0.186 HD
HETATM    8  C6  UNL     1      -0.632  10.357  22.662  1.00  0.00     0.679 A 
HETATM    9  N3  UNL     1      -1.514   9.925  21.745  1.00  0.00    -0.170 N 
ATOM     10  H3  UNL     1      -1.940   9.005  21.862  1.00  0.00     0.186 HD
HETATM   11  C7  UNL     1      -1.848  10.662  20.687  1.00  0.00     0.176 A 
HETATM   12  C15 UNL     1      -1.295  11.915  20.488  1.00  0.00     0.118 A 
HETATM   13  C16 UNL     1      -1.612  12.712  19.407  1.00  0.00     0.203 A 
HETATM   14  O5  UNL     1      -2.438  12.299  18.555  1.00  0.00    -0.286 OA
HETATM   15  C17 UNL     1      -1.028  13.961  19.255  1.00  0.00     0.052 A 
HETATM   16  C18 UNL     1      -1.312  14.795  18.193  1.00  0.00     0.058 A 
HETATM   17  C19 UNL     1      -0.724  16.036  18.054  1.00  0.00     0.102 A 
ENDROOT
BRANCH  11  18
HETATM   18  O3  UNL     1      -2.761  10.251  19.710  1.00  0.00    -0.332 OA
BRANCH  18  19
HETATM   19  C8  UNL     1      -3.952   9.656  20.185  1.00  0.00     0.209 C 
BRANCH  19  20
HETATM   20  C9  UNL     1      -4.683   8.890  19.121  1.00  0.00     0.146 C 
HETATM   21  C10 UNL     1      -5.784   8.020  19.698  1.00  0.00     0.041 C 
HETATM   22  C11 UNL     1      -6.321   7.116  18.615  1.00  0.00     0.022 C 
HETATM   23  C13 UNL     1      -6.228   7.743  17.250  1.00  0.00     0.111 C 
HETATM   24 CL2  UNL     1      -7.567   7.279  16.195  1.00  0.00    -0.122 Cl
HETATM   25  C14 UNL     1      -6.256   9.256  17.460  1.00  0.00     0.188 C 
HETATM   26  O4  UNL     1      -5.139   9.721  18.109  1.00  0.00    -0.382 OA
BRANCH  22  27
HETATM   27  C12 UNL     1      -5.549   5.828  18.595  1.00  0.00     0.121 C 
HETATM   28 CL1  UNL     1      -6.592   4.434  18.221  1.00  0.00    -0.130 Cl
ENDBRANCH  22  27
ENDBRANCH  19  20
ENDBRANCH  18  19
ENDBRANCH  11  18
BRANCH   8  29
HETATM   29  N2  UNL     1      -0.314   9.619  23.698  1.00  0.00    -0.234 N 
ATOM     30  H22 UNL     1       0.541   9.793  24.228  1.00  0.00     0.174 HD
ATOM     31  H21 UNL     1      -0.910   8.851  24.004  1.00  0.00     0.174 HD
ENDBRANCH   8  29
BRANCH  17  32
HETATM   32  O6  UNL     1      -1.009  16.877  16.984  1.00  0.00    -0.353 OA
HETATM   33  C20 UNL     1      -0.520  16.502  15.707  1.00  0.00     0.210 C 
ENDBRANCH  17  32
BRANCH   1  34
HETATM   34  O1  UNL     1       0.767  17.658  18.899  1.00  0.00    -0.353 OA
HETATM   35  C1  UNL     1       2.030  17.963  19.482  1.00  0.00     0.210 C 
ENDBRANCH   1  34
TORSDOF 7
ENDMDL
MODEL 3
REMARK VINA RESULT: -8.292463271      0.870      1.845
REMARK  7 active torsions:
REMARK  status: ('A' for Active; 'I' for Inactive)
REMARK    1  A    between atoms: O1_2  and  C2_3 
REMARK    2  A    between atoms: C6_10  and  N2_11 
REMARK    3  A    between atoms: C7_16  and  O3_17 
REMARK    4  A    between atoms: O3_17  and  C8_18 
REMARK    5  A    between atoms: C8_18  and  C9_19 
REMARK    6  A    between atoms: C11_21  and  C12_22 
REMARK    7  A    between atoms: C19_33  and  O6_34 
ROOT
HETATM    1  C2  UNL     1      -0.928   8.822  26.612  1.00  0.00     0.104 A 
HETATM    2  C3  UNL     1      -0.408   9.090  25.362  1.00  0.00     0.078 A 
HETATM    3  C4  UNL     1      -1.086   9.860  24.434  1.00  0.00     0.095 A 
HETATM    4  O2  UNL     1      -0.591  10.115  23.243  1.00  0.00    -0.291 OA
HETATM    5  C5  UNL     1      -1.188  10.834  22.336  1.00  0.00     0.181 A 
HETATM    6  N1  UNL     1      -0.651  11.078  21.120  1.00  0.00    -0.169 N 
ATOM      7  H1  UNL     1       0.263  10.680  20.904  1.00  0.00     0.186 HD
HETATM    8  C6  UNL     1      -1.265  11.820  20.180  1.00  0.00     0.679 A 
HETATM    9  N3  UNL     1      -2.470  12.334  20.483  1.00  0.00    -0.170 N 
ATOM     10  H3  UNL     1      -2.956  12.900  19.787  1.00  0.00     0.186 HD
HETATM   11  C7  UNL     1      -3.047  12.126  21.665  1.00  0.00     0.176 A 
HETATM   12  C15 UNL     1      -2.424  11.365  22.638  1.00  0.00     0.118 A 
HETATM   13  C16 UNL     1      -2.985  11.125  23.876  1.00  0.00     0.203 A 
HETATM   14  O5  UNL     1      -4.111  11.610  24.150  1.00  0.00    -0.286 OA
HETATM   15  C17 UNL     1      -2.317  10.354  24.817  1.00  0.00     0.052 A 
HETATM   16  C18 UNL     1      -2.835  10.085  26.067  1.00  0.00     0.058 A 
HETATM   17  C19 UNL     1      -2.160   9.316  26.993  1.00  0.00     0.102 A 
ENDROOT
BRANCH  11  18
HETATM   18  O3  UNL     1      -4.298  12.642  22.021  1.00  0.00    -0.332 OA
BRANCH  18  19
HETATM   19  C8  UNL     1      -5.167  12.957  20.951  1.00  0.00     0.209 C 
BRANCH  19  20
HETATM   20  C9  UNL     1      -6.459  12.196  21.009  1.00  0.00     0.146 C 
HETATM   21  C10 UNL     1      -6.240  10.718  21.276  1.00  0.00     0.041 C 
HETATM   22  C11 UNL     1      -7.546   9.984  21.098  1.00  0.00     0.022 C 
HETATM   23  C13 UNL     1      -8.735  10.840  21.440  1.00  0.00     0.111 C 
HETATM   24 CL2  UNL     1     -10.058   9.914  22.157  1.00  0.00    -0.122 Cl
HETATM   25  C14 UNL     1      -8.249  11.882  22.446  1.00  0.00     0.188 C 
HETATM   26  O4  UNL     1      -7.354  12.769  21.900  1.00  0.00    -0.382 OA
BRANCH  22  27
HETATM   27  C12 UNL     1      -7.687   9.530  19.673  1.00  0.00     0.121 C 
HETATM   28 CL1  UNL     1      -7.377   7.786  19.497  1.00  0.00    -0.130 Cl
ENDBRANCH  22  27
ENDBRANCH  19  20
ENDBRANCH  18  19
ENDBRANCH  11  18
BRANCH   8  29
HETATM   29  N2  UNL     1      -0.711  12.033  19.011  1.00  0.00    -0.234 N 
ATOM     30  H22 UNL     1      -0.071  11.355  18.599  1.00  0.00     0.174 HD
ATOM     31  H21 UNL     1      -0.904  12.883  18.481  1.00  0.00     0.174 HD
ENDBRANCH   8  29
BRANCH  17  32
HETATM   32  O6  UNL     1      -2.681   9.045  28.254  1.00  0.00    -0.353 OA
HETATM   33  C20 UNL     1      -3.553   7.935  28.378  1.00  0.00     0.210 C 
ENDBRANCH  17  32
BRANCH   1  34
HETATM   34  O1  UNL     1      -0.245   8.050  27.539  1.00  0.00    -0.353 OA
HETATM   35  C1  UNL     1      -0.367   6.631  27.581  1.00  0.00     0.210 C 
ENDBRANCH   1  34
TORSDOF 7
ENDMDL
MODEL 4
REMARK VINA RESULT: -8.281452880      1.184      1.517
REMARK  7 active torsions:
REMARK  status: ('A' for Active; 'I' for Inactive)
REMARK    1  A    between atoms: O1_2  and  C2_3 
REMARK    2  A    between atoms: C6_10  and  N2_11 
REMARK    3  A    between atoms: C7_16  and  O3_17 
REMARK    4  A    between atoms: O3_17  and  C8_18 
REMARK    5  A    between atoms: C8_18  and  C9_19 
REMARK    6  A    between atoms: C11_21  and  C12_22 
REMARK    7  A    between atoms: C19_33  and  O6_34 
ROOT
HETATM    1  C2  UNL     1      -0.961   8.717  26.665  1.00  0.00     0.104 A 
HETATM    2  C3  UNL     1      -0.434   8.997  25.421  1.00  0.00     0.078 A 
HETATM    3  C4  UNL     1      -1.096   9.796  24.505  1.00  0.00     0.095 A 
HETATM    4  O2  UNL     1      -0.594  10.063  23.319  1.00  0.00    -0.291 OA
HETATM    5  C5  UNL     1      -1.175  10.809  22.424  1.00  0.00     0.181 A 
HETATM    6  N1  UNL     1      -0.632  11.063  21.213  1.00  0.00    -0.169 N 
ATOM      7  H1  UNL     1       0.275  10.652  20.991  1.00  0.00     0.186 HD
HETATM    8  C6  UNL     1      -1.230  11.834  20.286  1.00  0.00     0.679 A 
HETATM    9  N3  UNL     1      -2.425  12.366  20.597  1.00  0.00    -0.170 N 
ATOM     10  H3  UNL     1      -2.899  12.954  19.910  1.00  0.00     0.186 HD
HETATM   11  C7  UNL     1      -3.007  12.149  21.774  1.00  0.00     0.176 A 
HETATM   12  C15 UNL     1      -2.401  11.358  22.735  1.00  0.00     0.118 A 
HETATM   13  C16 UNL     1      -2.969  11.108  23.968  1.00  0.00     0.203 A 
HETATM   14  O5  UNL     1      -4.085  11.610  24.248  1.00  0.00    -0.286 OA
HETATM   15  C17 UNL     1      -2.317  10.308  24.895  1.00  0.00     0.052 A 
HETATM   16  C18 UNL     1      -2.842  10.027  26.140  1.00  0.00     0.058 A 
HETATM   17  C19 UNL     1      -2.183   9.228  27.053  1.00  0.00     0.102 A 
ENDROOT
BRANCH  11  18
HETATM   18  O3  UNL     1      -4.249  12.683  22.138  1.00  0.00    -0.332 OA
BRANCH  18  19
HETATM   19  C8  UNL     1      -5.104  13.046  21.073  1.00  0.00     0.209 C 
BRANCH  19  20
HETATM   20  C9  UNL     1      -5.588  11.862  20.287  1.00  0.00     0.146 C 
HETATM   21  C10 UNL     1      -6.440  10.928  21.127  1.00  0.00     0.041 C 
HETATM   22  C11 UNL     1      -6.700   9.661  20.350  1.00  0.00     0.022 C 
HETATM   23  C13 UNL     1      -6.741   9.899  18.865  1.00  0.00     0.111 C 
HETATM   24 CL2  UNL     1      -7.890   8.843  18.037  1.00  0.00    -0.122 Cl
HETATM   25  C14 UNL     1      -7.163  11.354  18.666  1.00  0.00     0.188 C 
HETATM   26  O4  UNL     1      -6.219  12.245  19.114  1.00  0.00    -0.382 OA
BRANCH  22  27
HETATM   27  C12 UNL     1      -5.622   8.655  20.637  1.00  0.00     0.121 C 
HETATM   28 CL1  UNL     1      -4.742   8.185  19.163  1.00  0.00    -0.130 Cl
ENDBRANCH  22  27
ENDBRANCH  19  20
ENDBRANCH  18  19
ENDBRANCH  11  18
BRANCH   8  29
HETATM   29  N2  UNL     1      -0.670  12.057  19.122  1.00  0.00    -0.234 N 
ATOM     30  H22 UNL     1      -0.207  11.308  18.606  1.00  0.00     0.174 HD
ATOM     31  H21 UNL     1      -0.681  12.984  18.698  1.00  0.00     0.174 HD
ENDBRANCH   8  29
BRANCH  17  32
HETATM   32  O6  UNL     1      -2.712   8.945  28.308  1.00  0.00    -0.353 OA
HETATM   33  C20 UNL     1      -3.634   7.873  28.405  1.00  0.00     0.210 C 
ENDBRANCH  17  32
BRANCH   1  34
HETATM   34  O1  UNL     1      -0.295   7.915  27.579  1.00  0.00    -0.353 OA
HETATM   35  C1  UNL     1      -0.452   6.500  27.602  1.00  0.00     0.210 C 
ENDBRANCH   1  34
TORSDOF 7
ENDMDL
MODEL 5
REMARK VINA RESULT: -8.248015717      3.285      7.584
REMARK  7 active torsions:
REMARK  status: ('A' for Active; 'I' for Inactive)
REMARK    1  A    between atoms: O1_2  and  C2_3 
REMARK    2  A    between atoms: C6_10  and  N2_11 
REMARK    3  A    between atoms: C7_16  and  O3_17 
REMARK    4  A    between atoms: O3_17  and  C8_18 
REMARK    5  A    between atoms: C8_18  and  C9_19 
REMARK    6  A    between atoms: C11_21  and  C12_22 
REMARK    7  A    between atoms: C19_33  and  O6_34 
ROOT
HETATM    1  C2  UNL     1      -5.818   9.639  17.915  1.00  0.00     0.104 A 
HETATM    2  C3  UNL     1      -4.702  10.448  17.849  1.00  0.00     0.078 A 
HETATM    3  C4  UNL     1      -3.922  10.715  18.961  1.00  0.00     0.095 A 
HETATM    4  O2  UNL     1      -2.858  11.486  18.899  1.00  0.00    -0.291 OA
HETATM    5  C5  UNL     1      -2.092  11.766  19.914  1.00  0.00     0.181 A 
HETATM    6  N1  UNL     1      -1.005  12.563  19.816  1.00  0.00    -0.169 N 
ATOM      7  H1  UNL     1      -0.775  12.963  18.906  1.00  0.00     0.186 HD
HETATM    8  C6  UNL     1      -0.211  12.856  20.863  1.00  0.00     0.679 A 
HETATM    9  N3  UNL     1      -0.531  12.320  22.054  1.00  0.00    -0.170 N 
ATOM     10  H3  UNL     1       0.055  12.527  22.863  1.00  0.00     0.186 HD
HETATM   11  C7  UNL     1      -1.590  11.529  22.209  1.00  0.00     0.176 A 
HETATM   12  C15 UNL     1      -2.414  11.222  21.139  1.00  0.00     0.118 A 
HETATM   13  C16 UNL     1      -3.521  10.406  21.254  1.00  0.00     0.203 A 
HETATM   14  O5  UNL     1      -3.811   9.911  22.371  1.00  0.00    -0.286 OA
HETATM   15  C17 UNL     1      -4.312  10.130  20.149  1.00  0.00     0.052 A 
HETATM   16  C18 UNL     1      -5.428   9.322  20.211  1.00  0.00     0.058 A 
HETATM   17  C19 UNL     1      -6.208   9.056  19.103  1.00  0.00     0.102 A 
ENDROOT
BRANCH  11  18
HETATM   18  O3  UNL     1      -1.959  10.952  23.430  1.00  0.00    -0.332 OA
BRANCH  18  19
HETATM   19  C8  UNL     1      -0.898  10.585  24.288  1.00  0.00     0.209 C 
BRANCH  19  20
HETATM   20  C9  UNL     1      -1.311   9.582  25.325  1.00  0.00     0.146 C 
HETATM   21  C10 UNL     1      -0.161   9.199  26.238  1.00  0.00     0.041 C 
HETATM   22  C11 UNL     1      -0.580   8.034  27.101  1.00  0.00     0.022 C 
HETATM   23  C13 UNL     1      -2.057   8.039  27.391  1.00  0.00     0.111 C 
HETATM   24 CL2  UNL     1      -2.438   7.407  28.996  1.00  0.00    -0.122 Cl
HETATM   25  C14 UNL     1      -2.515   9.493  27.302  1.00  0.00     0.188 C 
HETATM   26  O4  UNL     1      -2.431   9.999  26.028  1.00  0.00    -0.382 OA
BRANCH  22  27
HETATM   27  C12 UNL     1      -0.239   6.741  26.415  1.00  0.00     0.121 C 
HETATM   28 CL1  UNL     1       0.015   5.418  27.579  1.00  0.00    -0.130 Cl
ENDBRANCH  22  27
ENDBRANCH  19  20
ENDBRANCH  18  19
ENDBRANCH  11  18
BRANCH   8  29
HETATM   29  N2  UNL     1       0.835  13.633  20.728  1.00  0.00    -0.234 N 
ATOM     30  H22 UNL     1       1.029  14.109  19.847  1.00  0.00     0.174 HD
ATOM     31  H21 UNL     1       1.485  13.785  21.499  1.00  0.00     0.174 HD
ENDBRANCH   8  29
BRANCH  17  32
HETATM   32  O6  UNL     1      -7.333   8.241  19.166  1.00  0.00    -0.353 OA
HETATM   33  C20 UNL     1      -7.127   6.838  19.166  1.00  0.00     0.210 C 
ENDBRANCH  17  32
BRANCH   1  34
HETATM   34  O1  UNL     1      -6.597   9.375  16.798  1.00  0.00    -0.353 OA
HETATM   35  C1  UNL     1      -6.211   8.422  15.812  1.00  0.00     0.210 C 
ENDBRANCH   1  34
TORSDOF 7
ENDMDL
