MODEL 1
REMARK VINA RESULT: -6.824245734      0.000      0.000
REMARK  9 active torsions:
REMARK  status: ('A' for Active; 'I' for Inactive)
REMARK    1  A    between atoms: N1_1  and  C1_4 
REMARK    2  A    between atoms: C2_7  and  N3_8 
REMARK    3  A    between atoms: N3_8  and  C3_10 
REMARK    4  A    between atoms: C3_10  and  C4_11 
REMARK    5  A    between atoms: C4_11  and  O1_12 
REMARK    6  A    between atoms: C5_16  and  N5_17 
REMARK    7  A    between atoms: N5_17  and  C6_19 
REMARK    8  A    between atoms: C6_19  and  C7_20 
REMARK    9  A    between atoms: C7_20  and  N6_21 
ROOT
HETATM    1  C1  UNL     1       2.091  77.833  23.276  1.00  0.00     0.705 A 
HETATM    2  N2  UNL     1       2.169  78.470  22.105  1.00  0.00    -0.022 N 
ATOM      3  H2  UNL     1       2.985  78.323  21.511  1.00  0.00     0.203 HD
HETATM    4  C2  UNL     1       1.184  79.310  21.686  1.00  0.00     0.707 A 
HETATM    5  N4  UNL     1       0.110  79.497  22.479  1.00  0.00    -0.022 N 
ATOM      6  H4  UNL     1      -0.635  80.125  22.178  1.00  0.00     0.203 HD
HETATM    7  C5  UNL     1       0.009  78.873  23.651  1.00  0.00     0.707 A 
HETATM    8  N8  UNL     1       1.005  78.043  24.041  1.00  0.00    -0.022 N 
ATOM      9  H8  UNL     1       0.930  77.564  24.938  1.00  0.00     0.203 HD
ENDROOT
BRANCH   7  10
HETATM   10  N5  UNL     1      -0.985  79.033  24.414  1.00  0.00    -0.223 N 
ATOM     11  H5  UNL     1      -1.206  79.977  24.733  1.00  0.00     0.177 HD
BRANCH  10  12
HETATM   12  C6  UNL     1      -1.815  77.956  24.850  1.00  0.00     0.168 C 
BRANCH  12  13
HETATM   13  C7  UNL     1      -3.229  78.189  24.435  1.00  0.00     0.292 C 
BRANCH  13  14
HETATM   14  N6  UNL     1      -3.741  77.031  23.721  1.00  0.00     0.093 N 
HETATM   15  C8  UNL     1      -5.138  76.893  24.198  1.00  0.00     0.300 C 
HETATM   16  C9  UNL     1      -5.746  75.815  23.293  1.00  0.00     0.262 C 
HETATM   17  N7  UNL     1      -5.074  74.578  23.640  1.00  0.00    -0.072 N 
HETATM   18  C10 UNL     1      -3.668  74.681  23.314  1.00  0.00     0.262 C 
ATOM     19  H72 UNL     1      -5.225  74.319  24.615  1.00  0.00     0.277 HD
ATOM     20  H71 UNL     1      -5.512  73.767  23.203  1.00  0.00     0.277 HD
HETATM   21  C11 UNL     1      -3.087  75.807  24.155  1.00  0.00     0.300 C 
ENDBRANCH  13  14
ENDBRANCH  12  13
ENDBRANCH  10  12
ENDBRANCH   7  10
BRANCH   4  22
HETATM   22  N3  UNL     1       1.291  79.899  20.562  1.00  0.00    -0.223 N 
ATOM     23  H3  UNL     1       2.150  79.746  20.034  1.00  0.00     0.177 HD
BRANCH  22  24
HETATM   24  C3  UNL     1       0.306  80.755  19.979  1.00  0.00     0.164 C 
BRANCH  24  25
HETATM   25  C4  UNL     1       0.105  80.448  18.495  1.00  0.00     0.184 C 
BRANCH  25  26
HETATM   26  O1  UNL     1       1.129  79.613  18.031  1.00  0.00    -0.399 OA
ATOM     27  H1  UNL     1       0.859  79.178  17.231  1.00  0.00     0.209 HD
ENDBRANCH  25  26
ENDBRANCH  24  25
ENDBRANCH  22  24
ENDBRANCH   4  22
BRANCH   1  28
HETATM   28  N1  UNL     1       3.065  77.052  23.607  1.00  0.00    -0.234 N 
ATOM     29  H12 UNL     1       3.685  77.221  24.399  1.00  0.00     0.174 HD
ATOM     30  H11 UNL     1       3.222  76.217  23.042  1.00  0.00     0.174 HD
ENDBRANCH   1  28
TORSDOF 9
ENDMDL
MODEL 2
REMARK VINA RESULT: -6.817637102      2.694      6.378
REMARK  9 active torsions:
REMARK  status: ('A' for Active; 'I' for Inactive)
REMARK    1  A    between atoms: N1_1  and  C1_4 
REMARK    2  A    between atoms: C2_7  and  N3_8 
REMARK    3  A    between atoms: N3_8  and  C3_10 
REMARK    4  A    between atoms: C3_10  and  C4_11 
REMARK    5  A    between atoms: C4_11  and  O1_12 
REMARK    6  A    between atoms: C5_16  and  N5_17 
REMARK    7  A    between atoms: N5_17  and  C6_19 
REMARK    8  A    between atoms: C6_19  and  C7_20 
REMARK    9  A    between atoms: C7_20  and  N6_21 
ROOT
HETATM    1  C1  UNL     1      -6.286  74.769  22.925  1.00  0.00     0.705 A 
HETATM    2  N2  UNL     1      -6.039  75.086  21.653  1.00  0.00    -0.022 N 
ATOM      3  H2  UNL     1      -6.718  74.832  20.935  1.00  0.00     0.203 HD
HETATM    4  C2  UNL     1      -4.902  75.741  21.292  1.00  0.00     0.707 A 
HETATM    5  N4  UNL     1      -4.012  76.071  22.249  1.00  0.00    -0.022 N 
ATOM      6  H4  UNL     1      -3.155  76.561  21.992  1.00  0.00     0.203 HD
HETATM    7  C5  UNL     1      -4.237  75.765  23.525  1.00  0.00     0.707 A 
HETATM    8  N8  UNL     1      -5.377  75.114  23.854  1.00  0.00    -0.022 N 
ATOM      9  H8  UNL     1      -5.550  74.879  24.831  1.00  0.00     0.203 HD
ENDROOT
BRANCH   7  10
HETATM   10  N5  UNL     1      -3.417  76.061  24.441  1.00  0.00    -0.223 N 
ATOM     11  H5  UNL     1      -2.808  75.327  24.803  1.00  0.00     0.177 HD
BRANCH  10  12
HETATM   12  C6  UNL     1      -3.304  77.373  24.992  1.00  0.00     0.168 C 
BRANCH  12  13
HETATM   13  C7  UNL     1      -1.915  77.612  25.483  1.00  0.00     0.292 C 
BRANCH  13  14
HETATM   14  N6  UNL     1      -1.334  78.760  24.806  1.00  0.00     0.093 N 
HETATM   15  C8  UNL     1      -2.426  79.274  23.948  1.00  0.00     0.300 C 
HETATM   16  C9  UNL     1      -1.892  80.603  23.403  1.00  0.00     0.262 C 
HETATM   17  N7  UNL     1      -0.803  80.259  22.511  1.00  0.00    -0.072 N 
HETATM   18  C10 UNL     1       0.263  79.635  23.264  1.00  0.00     0.262 C 
ATOM     19  H72 UNL     1      -1.113  79.680  21.731  1.00  0.00     0.277 HD
ATOM     20  H71 UNL     1      -0.475  81.063  21.976  1.00  0.00     0.277 HD
HETATM   21  C11 UNL     1      -0.296  78.357  23.871  1.00  0.00     0.300 C 
ENDBRANCH  13  14
ENDBRANCH  12  13
ENDBRANCH  10  12
ENDBRANCH   7  10
BRANCH   4  22
HETATM   22  N3  UNL     1      -4.700  76.030  20.068  1.00  0.00    -0.223 N 
ATOM     23  H3  UNL     1      -3.771  76.365  19.814  1.00  0.00     0.177 HD
BRANCH  22  24
HETATM   24  C3  UNL     1      -5.668  75.926  19.022  1.00  0.00     0.164 C 
BRANCH  24  25
HETATM   25  C4  UNL     1      -5.016  76.023  17.643  1.00  0.00     0.184 C 
BRANCH  25  26
HETATM   26  O1  UNL     1      -4.378  77.262  17.497  1.00  0.00    -0.399 OA
ATOM     27  H1  UNL     1      -4.803  77.771  16.817  1.00  0.00     0.209 HD
ENDBRANCH  25  26
ENDBRANCH  24  25
ENDBRANCH  22  24
ENDBRANCH   4  22
BRANCH   1  28
HETATM   28  N1  UNL     1      -7.386  74.146  23.192  1.00  0.00    -0.234 N 
ATOM     29  H12 UNL     1      -7.445  73.140  23.354  1.00  0.00     0.174 HD
ATOM     30  H11 UNL     1      -8.246  74.693  23.242  1.00  0.00     0.174 HD
ENDBRANCH   1  28
TORSDOF 9
ENDMDL
MODEL 3
REMARK VINA RESULT: -6.800311109      3.424      6.040
REMARK  9 active torsions:
REMARK  status: ('A' for Active; 'I' for Inactive)
REMARK    1  A    between atoms: N1_1  and  C1_4 
REMARK    2  A    between atoms: C2_7  and  N3_8 
REMARK    3  A    between atoms: N3_8  and  C3_10 
REMARK    4  A    between atoms: C3_10  and  C4_11 
REMARK    5  A    between atoms: C4_11  and  O1_12 
REMARK    6  A    between atoms: C5_16  and  N5_17 
REMARK    7  A    between atoms: N5_17  and  C6_19 
REMARK    8  A    between atoms: C6_19  and  C7_20 
REMARK    9  A    between atoms: C7_20  and  N6_21 
ROOT
HETATM    1  C1  UNL     1      -5.351  74.845  23.068  1.00  0.00     0.705 A 
HETATM    2  N2  UNL     1      -5.005  74.884  21.779  1.00  0.00    -0.022 N 
ATOM      3  H2  UNL     1      -4.668  74.034  21.328  1.00  0.00     0.203 HD
HETATM    4  C2  UNL     1      -5.093  76.033  21.055  1.00  0.00     0.707 A 
HETATM    5  N4  UNL     1      -5.540  77.150  21.663  1.00  0.00    -0.022 N 
ATOM      6  H4  UNL     1      -5.610  78.018  21.131  1.00  0.00     0.203 HD
HETATM    7  C5  UNL     1      -5.892  77.135  22.946  1.00  0.00     0.707 A 
HETATM    8  N8  UNL     1      -5.794  75.978  23.641  1.00  0.00    -0.022 N 
ATOM      9  H8  UNL     1      -6.063  75.965  24.625  1.00  0.00     0.203 HD
ENDROOT
BRANCH   7  10
HETATM   10  N5  UNL     1      -6.311  78.170  23.540  1.00  0.00    -0.223 N 
ATOM     11  H5  UNL     1      -7.230  78.535  23.289  1.00  0.00     0.177 HD
BRANCH  10  12
HETATM   12  C6  UNL     1      -5.558  78.851  24.544  1.00  0.00     0.168 C 
BRANCH  12  13
HETATM   13  C7  UNL     1      -4.371  79.521  23.936  1.00  0.00     0.292 C 
BRANCH  13  14
HETATM   14  N6  UNL     1      -3.188  78.693  24.099  1.00  0.00     0.093 N 
HETATM   15  C8  UNL     1      -3.309  78.143  25.470  1.00  0.00     0.300 C 
HETATM   16  C9  UNL     1      -2.186  77.105  25.567  1.00  0.00     0.262 C 
HETATM   17  N7  UNL     1      -0.946  77.855  25.539  1.00  0.00    -0.072 N 
HETATM   18  C10 UNL     1      -0.813  78.526  24.264  1.00  0.00     0.262 C 
ATOM     19  H72 UNL     1      -0.870  78.502  26.324  1.00  0.00     0.277 HD
ATOM     20  H71 UNL     1      -0.138  77.271  25.752  1.00  0.00     0.277 HD
HETATM   21  C11 UNL     1      -1.977  79.497  24.136  1.00  0.00     0.300 C 
ENDBRANCH  13  14
ENDBRANCH  12  13
ENDBRANCH  10  12
ENDBRANCH   7  10
BRANCH   4  22
HETATM   22  N3  UNL     1      -4.757  76.033  19.827  1.00  0.00    -0.223 N 
ATOM     23  H3  UNL     1      -3.786  76.256  19.607  1.00  0.00     0.177 HD
BRANCH  22  24
HETATM   24  C3  UNL     1      -5.627  75.746  18.730  1.00  0.00     0.164 C 
BRANCH  24  25
HETATM   25  C4  UNL     1      -4.961  76.056  17.390  1.00  0.00     0.184 C 
BRANCH  25  26
HETATM   26  O1  UNL     1      -4.338  77.310  17.438  1.00  0.00    -0.399 OA
ATOM     27  H1  UNL     1      -4.148  77.615  16.559  1.00  0.00     0.209 HD
ENDBRANCH  25  26
ENDBRANCH  24  25
ENDBRANCH  22  24
ENDBRANCH   4  22
BRANCH   1  28
HETATM   28  N1  UNL     1      -5.240  73.718  23.691  1.00  0.00    -0.234 N 
ATOM     29  H12 UNL     1      -4.413  73.440  24.220  1.00  0.00     0.174 HD
ATOM     30  H11 UNL     1      -6.027  73.070  23.651  1.00  0.00     0.174 HD
ENDBRANCH   1  28
TORSDOF 9
ENDMDL
MODEL 4
REMARK VINA RESULT: -6.781789297      4.311      6.132
REMARK  9 active torsions:
REMARK  status: ('A' for Active; 'I' for Inactive)
REMARK    1  A    between atoms: N1_1  and  C1_4 
REMARK    2  A    between atoms: C2_7  and  N3_8 
REMARK    3  A    between atoms: N3_8  and  C3_10 
REMARK    4  A    between atoms: C3_10  and  C4_11 
REMARK    5  A    between atoms: C4_11  and  O1_12 
REMARK    6  A    between atoms: C5_16  and  N5_17 
REMARK    7  A    between atoms: N5_17  and  C6_19 
REMARK    8  A    between atoms: C6_19  and  C7_20 
REMARK    9  A    between atoms: C7_20  and  N6_21 
ROOT
HETATM    1  C1  UNL     1      -6.247  74.714  22.876  1.00  0.00     0.705 A 
HETATM    2  N2  UNL     1      -6.062  75.134  21.622  1.00  0.00    -0.022 N 
ATOM      3  H2  UNL     1      -6.808  75.007  20.938  1.00  0.00     0.203 HD
HETATM    4  C2  UNL     1      -4.900  75.728  21.236  1.00  0.00     0.707 A 
HETATM    5  N4  UNL     1      -3.920  75.891  22.148  1.00  0.00    -0.022 N 
ATOM      6  H4  UNL     1      -3.044  76.334  21.872  1.00  0.00     0.203 HD
HETATM    7  C5  UNL     1      -4.082  75.481  23.404  1.00  0.00     0.707 A 
HETATM    8  N8  UNL     1      -5.249  74.893  23.759  1.00  0.00    -0.022 N 
ATOM      9  H8  UNL     1      -5.374  74.579  24.721  1.00  0.00     0.203 HD
ENDROOT
BRANCH   7  10
HETATM   10  N5  UNL     1      -3.178  75.619  24.277  1.00  0.00    -0.223 N 
ATOM     11  H5  UNL     1      -2.802  74.782  24.724  1.00  0.00     0.177 HD
BRANCH  10  12
HETATM   12  C6  UNL     1      -2.659  76.891  24.666  1.00  0.00     0.168 C 
BRANCH  12  13
HETATM   13  C7  UNL     1      -3.566  77.540  25.657  1.00  0.00     0.292 C 
BRANCH  13  14
HETATM   14  N6  UNL     1      -4.076  78.794  25.125  1.00  0.00     0.093 N 
HETATM   15  C8  UNL     1      -5.469  78.485  24.727  1.00  0.00     0.300 C 
HETATM   16  C9  UNL     1      -6.076  79.847  24.371  1.00  0.00     0.262 C 
HETATM   17  N7  UNL     1      -5.397  80.284  23.168  1.00  0.00    -0.072 N 
HETATM   18  C10 UNL     1      -3.993  80.491  23.450  1.00  0.00     0.262 C 
ATOM     19  H72 UNL     1      -5.542  79.641  22.389  1.00  0.00     0.277 HD
ATOM     20  H71 UNL     1      -5.833  81.111  22.759  1.00  0.00     0.277 HD
HETATM   21  C11 UNL     1      -3.413  79.152  23.882  1.00  0.00     0.300 C 
ENDBRANCH  13  14
ENDBRANCH  12  13
ENDBRANCH  10  12
ENDBRANCH   7  10
BRANCH   4  22
HETATM   22  N3  UNL     1      -4.759  76.119  20.032  1.00  0.00    -0.223 N 
ATOM     23  H3  UNL     1      -3.911  76.638  19.805  1.00  0.00     0.177 HD
BRANCH  22  24
HETATM   24  C3  UNL     1      -5.691  75.891  18.973  1.00  0.00     0.164 C 
BRANCH  24  25
HETATM   25  C4  UNL     1      -5.022  76.003  17.603  1.00  0.00     0.184 C 
BRANCH  25  26
HETATM   26  O1  UNL     1      -4.392  77.248  17.475  1.00  0.00    -0.399 OA
ATOM     27  H1  UNL     1      -4.504  77.581  16.592  1.00  0.00     0.209 HD
ENDBRANCH  25  26
ENDBRANCH  24  25
ENDBRANCH  22  24
ENDBRANCH   4  22
BRANCH   1  28
HETATM   28  N1  UNL     1      -7.376  74.159  23.168  1.00  0.00    -0.234 N 
ATOM     29  H12 UNL     1      -7.653  73.899  24.115  1.00  0.00     0.174 HD
ATOM     30  H11 UNL     1      -8.027  73.969  22.406  1.00  0.00     0.174 HD
ENDBRANCH   1  28
TORSDOF 9
ENDMDL
MODEL 5
REMARK VINA RESULT: -6.670017408      2.616      6.332
REMARK  9 active torsions:
REMARK  status: ('A' for Active; 'I' for Inactive)
REMARK    1  A    between atoms: N1_1  and  C1_4 
REMARK    2  A    between atoms: C2_7  and  N3_8 
REMARK    3  A    between atoms: N3_8  and  C3_10 
REMARK    4  A    between atoms: C3_10  and  C4_11 
REMARK    5  A    between atoms: C4_11  and  O1_12 
REMARK    6  A    between atoms: C5_16  and  N5_17 
REMARK    7  A    between atoms: N5_17  and  C6_19 
REMARK    8  A    between atoms: C6_19  and  C7_20 
REMARK    9  A    between atoms: C7_20  and  N6_21 
ROOT
HETATM    1  C1  UNL     1      -5.170  74.721  23.237  1.00  0.00     0.705 A 
HETATM    2  N2  UNL     1      -5.066  74.886  21.916  1.00  0.00    -0.022 N 
ATOM      3  H2  UNL     1      -5.051  74.065  21.311  1.00  0.00     0.203 HD
HETATM    4  C2  UNL     1      -4.980  76.125  21.360  1.00  0.00     0.707 A 
HETATM    5  N4  UNL     1      -5.001  77.202  22.170  1.00  0.00    -0.022 N 
ATOM      6  H4  UNL     1      -4.936  78.137  21.766  1.00  0.00     0.203 HD
HETATM    7  C5  UNL     1      -5.104  77.063  23.490  1.00  0.00     0.707 A 
HETATM    8  N8  UNL     1      -5.188  75.818  24.015  1.00  0.00    -0.022 N 
ATOM      9  H8  UNL     1      -5.268  75.709  25.025  1.00  0.00     0.203 HD
ENDROOT
BRANCH   7  10
HETATM   10  N5  UNL     1      -5.123  78.056  24.271  1.00  0.00    -0.223 N 
ATOM     11  H5  UNL     1      -5.945  78.199  24.857  1.00  0.00     0.177 HD
BRANCH  10  12
HETATM   12  C6  UNL     1      -4.046  78.989  24.370  1.00  0.00     0.168 C 
BRANCH  12  13
HETATM   13  C7  UNL     1      -2.790  78.290  24.771  1.00  0.00     0.292 C 
BRANCH  13  14
HETATM   14  N6  UNL     1      -1.686  78.719  23.928  1.00  0.00     0.093 N 
HETATM   15  C8  UNL     1      -0.488  78.573  24.787  1.00  0.00     0.300 C 
HETATM   16  C9  UNL     1       0.694  78.813  23.841  1.00  0.00     0.262 C 
HETATM   17  N7  UNL     1       0.629  80.213  23.471  1.00  0.00    -0.072 N 
HETATM   18  C10 UNL     1      -0.586  80.463  22.726  1.00  0.00     0.262 C 
ATOM     19  H72 UNL     1       0.718  80.829  24.279  1.00  0.00     0.277 HD
ATOM     20  H71 UNL     1       1.460  80.515  22.963  1.00  0.00     0.277 HD
HETATM   21  C11 UNL     1      -1.756  80.143  23.643  1.00  0.00     0.300 C 
ENDBRANCH  13  14
ENDBRANCH  12  13
ENDBRANCH  10  12
ENDBRANCH   7  10
BRANCH   4  22
HETATM   22  N3  UNL     1      -4.884  76.245  20.096  1.00  0.00    -0.223 N 
ATOM     23  H3  UNL     1      -4.068  76.738  19.733  1.00  0.00     0.177 HD
BRANCH  22  24
HETATM   24  C3  UNL     1      -5.826  75.747  19.144  1.00  0.00     0.164 C 
BRANCH  24  25
HETATM   25  C4  UNL     1      -5.314  75.906  17.712  1.00  0.00     0.184 C 
BRANCH  25  26
HETATM   26  O1  UNL     1      -4.529  77.062  17.606  1.00  0.00    -0.399 OA
ATOM     27  H1  UNL     1      -3.691  76.853  17.213  1.00  0.00     0.209 HD
ENDBRANCH  25  26
ENDBRANCH  24  25
ENDBRANCH  22  24
ENDBRANCH   4  22
BRANCH   1  28
HETATM   28  N1  UNL     1      -5.246  73.514  23.693  1.00  0.00    -0.234 N 
ATOM     29  H12 UNL     1      -4.453  72.875  23.746  1.00  0.00     0.174 HD
ATOM     30  H11 UNL     1      -6.155  73.182  24.018  1.00  0.00     0.174 HD
ENDBRANCH   1  28
TORSDOF 9
ENDMDL
