MODEL 1
REMARK VINA RESULT: -10.147575072      0.000      0.000
REMARK  4 active torsions:
REMARK  status: ('A' for Active; 'I' for Inactive)
REMARK    1  A    between atoms: C5_7  and  C6_8 
REMARK    2  A    between atoms: C9_15  and  N4_16 
REMARK    3  A    between atoms: C10_21  and  N6_22 
REMARK    4  A    between atoms: C19_34  and  C20_35 
ROOT
HETATM    1  C6  UNL     1      39.399 -10.349  35.323  1.00  0.00     0.060 A 
HETATM    2  C7  UNL     1      39.975 -11.183  34.367  1.00  0.00     0.120 A 
HETATM    3  N2  UNL     1      41.113 -10.916  33.733  1.00  0.00    -0.348 N 
ATOM      4  H2  UNL     1      41.491 -11.564  33.041  1.00  0.00     0.167 HD
HETATM    5  C8  UNL     1      41.752  -9.771  34.028  1.00  0.00     0.151 A 
HETATM    6  N3  UNL     1      42.917  -9.484  33.417  1.00  0.00    -0.174 N 
ATOM      7  H3  UNL     1      43.315 -10.116  32.722  1.00  0.00     0.186 HD
HETATM    8  C9  UNL     1      43.538  -8.347  33.746  1.00  0.00     0.679 A 
HETATM    9  N5  UNL     1      43.050  -7.510  34.638  1.00  0.00    -0.174 N 
ATOM     10  H5  UNL     1      43.573  -6.660  34.845  1.00  0.00     0.186 HD
HETATM   11  C10 UNL     1      41.860  -7.734  35.306  1.00  0.00     0.152 A 
HETATM   12  C28 UNL     1      41.215  -8.895  34.982  1.00  0.00     0.123 A 
HETATM   13  N9  UNL     1      40.066  -9.214  35.591  1.00  0.00    -0.348 N 
ATOM     14  H9  UNL     1      39.682  -8.571  36.283  1.00  0.00     0.166 HD
ENDROOT
BRANCH  11  15
HETATM   15  N6  UNL     1      41.474  -6.754  36.218  1.00  0.00    -0.328 N 
HETATM   16  C11 UNL     1      41.916  -6.149  37.526  1.00  0.00     0.166 A 
HETATM   17  C12 UNL     1      41.966  -6.958  38.752  1.00  0.00    -0.005 A 
HETATM   18  C19 UNL     1      40.683  -5.778  36.943  1.00  0.00     0.170 A 
HETATM   19  C13 UNL     1      43.235  -7.337  39.250  1.00  0.00     0.012 A 
HETATM   20  C17 UNL     1      40.868  -7.239  39.493  1.00  0.00     0.043 A 
HETATM   21  C14 UNL     1      43.362  -7.971  40.461  1.00  0.00     0.001 A 
HETATM   22  C15 UNL     1      42.236  -8.245  41.206  1.00  0.00     0.002 A 
HETATM   23  C16 UNL     1      40.992  -7.885  40.734  1.00  0.00     0.030 A 
HETATM   24  N7  UNL     1      39.592  -7.019  38.925  1.00  0.00    -0.324 N 
HETATM   25  C18 UNL     1      39.514  -6.534  37.613  1.00  0.00     0.258 C 
ATOM     26  H7  UNL     1      38.745  -7.209  39.461  1.00  0.00     0.169 HD
HETATM   27  O1  UNL     1      38.438  -6.746  36.963  1.00  0.00    -0.270 OA
BRANCH  18  28
HETATM   28  C20 UNL     1      40.262  -4.469  36.469  1.00  0.00    -0.006 A 
HETATM   29  C21 UNL     1      40.049  -4.183  35.123  1.00  0.00     0.011 A 
HETATM   30  C22 UNL     1      39.518  -2.983  34.653  1.00  0.00     0.003 A 
HETATM   31  C23 UNL     1      39.185  -2.027  35.569  1.00  0.00     0.030 A 
HETATM   32  C24 UNL     1      39.368  -2.233  36.920  1.00  0.00     0.043 A 
HETATM   33  N8  UNL     1      39.138  -1.419  37.985  1.00  0.00    -0.365 N 
HETATM   34  C27 UNL     1      39.903  -3.443  37.365  1.00  0.00     0.001 A 
HETATM   35  C25 UNL     1      39.514  -2.076  39.071  1.00  0.00     0.089 A 
ATOM     36  H8  UNL     1      38.749  -0.477  37.952  1.00  0.00     0.165 HD
HETATM   37  C26 UNL     1      39.997  -3.336  38.733  1.00  0.00     0.031 A 
ENDBRANCH  18  28
ENDBRANCH  11  15
BRANCH   8  38
HETATM   38  N4  UNL     1      44.677  -8.037  33.169  1.00  0.00    -0.234 N 
ATOM     39  H42 UNL     1      45.117  -8.738  32.574  1.00  0.00     0.174 HD
ATOM     40  H41 UNL     1      45.090  -7.118  33.327  1.00  0.00     0.174 HD
ENDBRANCH   8  38
BRANCH   1  41
HETATM   41  C5  UNL     1      38.180 -10.740  36.011  1.00  0.00     0.008 A 
HETATM   42  C4  UNL     1      37.326 -11.669  35.485  1.00  0.00     0.101 A 
HETATM   43  N1  UNL     1      36.194 -12.063  36.142  1.00  0.00    -0.374 N 
HETATM   44  C3  UNL     1      35.883 -11.544  37.330  1.00  0.00     0.094 A 
ATOM     45  H1  UNL     1      35.581 -12.760  35.719  1.00  0.00     0.164 HD
HETATM   46  C2  UNL     1      36.695 -10.610  37.910  1.00  0.00    -0.046 A 
HETATM   47  C1  UNL     1      36.343 -10.044  39.223  1.00  0.00     0.049 C 
HETATM   48  C29 UNL     1      37.852 -10.214  37.230  1.00  0.00     0.023 A 
ENDBRANCH   1  41
TORSDOF 4
ENDMDL
MODEL 2
REMARK VINA RESULT: -9.703534546      1.870      7.420
REMARK  4 active torsions:
REMARK  status: ('A' for Active; 'I' for Inactive)
REMARK    1  A    between atoms: C5_7  and  C6_8 
REMARK    2  A    between atoms: C9_15  and  N4_16 
REMARK    3  A    between atoms: C10_21  and  N6_22 
REMARK    4  A    between atoms: C19_34  and  C20_35 
ROOT
HETATM    1  C6  UNL     1      39.523  -4.384  37.354  1.00  0.00     0.060 A 
HETATM    2  C7  UNL     1      40.047  -3.600  38.380  1.00  0.00     0.120 A 
HETATM    3  N2  UNL     1      40.651  -4.089  39.459  1.00  0.00    -0.348 N 
ATOM      4  H2  UNL     1      41.017  -3.468  40.181  1.00  0.00     0.167 HD
HETATM    5  C8  UNL     1      40.764  -5.424  39.573  1.00  0.00     0.151 A 
HETATM    6  N3  UNL     1      41.389  -5.947  40.646  1.00  0.00    -0.174 N 
ATOM      7  H3  UNL     1      41.764  -5.346  41.380  1.00  0.00     0.186 HD
HETATM    8  C9  UNL     1      41.504  -7.276  40.721  1.00  0.00     0.679 A 
HETATM    9  N5  UNL     1      41.029  -8.079  39.791  1.00  0.00    -0.174 N 
ATOM     10  H5  UNL     1      41.149  -9.084  39.907  1.00  0.00     0.186 HD
HETATM   11  C10 UNL     1      40.375  -7.617  38.663  1.00  0.00     0.152 A 
HETATM   12  C28 UNL     1      40.253  -6.259  38.570  1.00  0.00     0.123 A 
HETATM   13  N9  UNL     1      39.655  -5.712  37.505  1.00  0.00    -0.348 N 
ATOM     14  H9  UNL     1      39.286  -6.327  36.779  1.00  0.00     0.166 HD
ENDROOT
BRANCH  11  15
HETATM   15  N6  UNL     1      39.927  -8.591  37.771  1.00  0.00    -0.328 N 
HETATM   16  C11 UNL     1      40.448  -9.753  36.966  1.00  0.00     0.166 A 
HETATM   17  C12 UNL     1      41.440  -9.548  35.901  1.00  0.00    -0.005 A 
HETATM   18  C19 UNL     1      39.113  -9.318  36.817  1.00  0.00     0.170 A 
HETATM   19  C13 UNL     1      42.772  -9.962  36.141  1.00  0.00     0.012 A 
HETATM   20  C17 UNL     1      41.111  -9.109  34.664  1.00  0.00     0.043 A 
HETATM   21  C14 UNL     1      43.716  -9.930  35.145  1.00  0.00     0.001 A 
HETATM   22  C15 UNL     1      43.364  -9.486  33.890  1.00  0.00     0.002 A 
HETATM   23  C16 UNL     1      42.072  -9.076  33.640  1.00  0.00     0.030 A 
HETATM   24  N7  UNL     1      39.834  -8.536  34.466  1.00  0.00    -0.324 N 
HETATM   25  C18 UNL     1      38.966  -8.429  35.561  1.00  0.00     0.258 C 
ATOM     26  H7  UNL     1      39.550  -8.206  33.543  1.00  0.00     0.169 HD
HETATM   27  O1  UNL     1      38.040  -7.555  35.504  1.00  0.00    -0.270 OA
BRANCH  18  28
HETATM   28  C20 UNL     1      37.885 -10.046  37.092  1.00  0.00    -0.006 A 
HETATM   29  C21 UNL     1      37.009  -9.697  38.117  1.00  0.00     0.011 A 
HETATM   30  C22 UNL     1      35.765 -10.291  38.319  1.00  0.00     0.003 A 
HETATM   31  C23 UNL     1      35.379 -11.278  37.460  1.00  0.00     0.030 A 
HETATM   32  C24 UNL     1      36.190 -11.684  36.421  1.00  0.00     0.043 A 
HETATM   33  N8  UNL     1      36.019 -12.653  35.483  1.00  0.00    -0.365 N 
HETATM   34  C27 UNL     1      37.432 -11.074  36.241  1.00  0.00     0.001 A 
HETATM   35  C25 UNL     1      37.109 -12.669  34.731  1.00  0.00     0.089 A 
ATOM     36  H8  UNL     1      35.203 -13.254  35.378  1.00  0.00     0.165 HD
HETATM   37  C26 UNL     1      38.013 -11.707  35.167  1.00  0.00     0.031 A 
ENDBRANCH  18  28
ENDBRANCH  11  15
BRANCH   8  38
HETATM   38  N4  UNL     1      42.108  -7.820  41.753  1.00  0.00    -0.234 N 
ATOM     39  H42 UNL     1      42.431  -7.202  42.497  1.00  0.00     0.174 HD
ATOM     40  H41 UNL     1      42.240  -8.831  41.787  1.00  0.00     0.174 HD
ENDBRANCH   8  38
BRANCH   1  41
HETATM   41  C5  UNL     1      38.926  -3.769  36.180  1.00  0.00     0.008 A 
HETATM   42  C4  UNL     1      37.583  -3.525  36.103  1.00  0.00     0.101 A 
HETATM   43  N1  UNL     1      37.020  -2.919  35.016  1.00  0.00    -0.374 N 
HETATM   44  C3  UNL     1      37.774  -2.544  33.982  1.00  0.00     0.094 A 
ATOM     45  H1  UNL     1      36.014  -2.752  34.994  1.00  0.00     0.164 HD
HETATM   46  C2  UNL     1      39.124  -2.759  33.996  1.00  0.00    -0.046 A 
HETATM   47  C1  UNL     1      39.947  -2.340  32.850  1.00  0.00     0.049 C 
HETATM   48  C29 UNL     1      39.691  -3.380  35.115  1.00  0.00     0.023 A 
ENDBRANCH   1  41
TORSDOF 4
ENDMDL
MODEL 3
REMARK VINA RESULT: -9.119888287      3.406      7.356
REMARK  4 active torsions:
REMARK  status: ('A' for Active; 'I' for Inactive)
REMARK    1  A    between atoms: C5_7  and  C6_8 
REMARK    2  A    between atoms: C9_15  and  N4_16 
REMARK    3  A    between atoms: C10_21  and  N6_22 
REMARK    4  A    between atoms: C19_34  and  C20_35 
ROOT
HETATM    1  C6  UNL     1      44.100  -8.211  35.558  1.00  0.00     0.060 A 
HETATM    2  C7  UNL     1      45.117  -7.704  36.363  1.00  0.00     0.120 A 
HETATM    3  N2  UNL     1      45.048  -7.620  37.688  1.00  0.00    -0.348 N 
ATOM      4  H2  UNL     1      45.824  -7.240  38.230  1.00  0.00     0.167 HD
HETATM    5  C8  UNL     1      43.927  -8.050  38.294  1.00  0.00     0.151 A 
HETATM    6  N3  UNL     1      43.837  -7.996  39.638  1.00  0.00    -0.174 N 
ATOM      7  H3  UNL     1      44.601  -7.621  40.200  1.00  0.00     0.186 HD
HETATM    8  C9  UNL     1      42.719  -8.449  40.212  1.00  0.00     0.679 A 
HETATM    9  N5  UNL     1      41.715  -8.937  39.513  1.00  0.00    -0.174 N 
ATOM     10  H5  UNL     1      40.889  -9.267  40.012  1.00  0.00     0.186 HD
HETATM   11  C10 UNL     1      41.733  -9.024  38.133  1.00  0.00     0.152 A 
HETATM   12  C28 UNL     1      42.872  -8.568  37.531  1.00  0.00     0.123 A 
HETATM   13  N9  UNL     1      42.996  -8.629  36.200  1.00  0.00    -0.348 N 
ATOM     14  H9  UNL     1      42.223  -9.008  35.651  1.00  0.00     0.166 HD
ENDROOT
BRANCH  11  15
HETATM   15  N6  UNL     1      40.593  -9.562  37.537  1.00  0.00    -0.328 N 
HETATM   16  C11 UNL     1      40.188 -10.671  36.601  1.00  0.00     0.166 A 
HETATM   17  C12 UNL     1      40.658 -10.691  35.208  1.00  0.00    -0.005 A 
HETATM   18  C19 UNL     1      39.240  -9.721  37.041  1.00  0.00     0.170 A 
HETATM   19  C13 UNL     1      41.648 -11.637  34.851  1.00  0.00     0.012 A 
HETATM   20  C17 UNL     1      40.093  -9.943  34.231  1.00  0.00     0.043 A 
HETATM   21  C14 UNL     1      42.030 -11.805  33.544  1.00  0.00     0.001 A 
HETATM   22  C15 UNL     1      41.443 -11.041  32.560  1.00  0.00     0.002 A 
HETATM   23  C16 UNL     1      40.479 -10.113  32.891  1.00  0.00     0.030 A 
HETATM   24  N7  UNL     1      39.233  -8.883  34.600  1.00  0.00    -0.324 N 
HETATM   25  C18 UNL     1      39.012  -8.638  35.961  1.00  0.00     0.258 C 
ATOM     26  H7  UNL     1      38.782  -8.308  33.887  1.00  0.00     0.169 HD
HETATM   27  O1  UNL     1      38.623  -7.473  36.301  1.00  0.00    -0.270 OA
BRANCH  18  28
HETATM   28  C20 UNL     1      38.039  -9.936  37.832  1.00  0.00    -0.006 A 
HETATM   29  C21 UNL     1      37.881  -9.439  39.122  1.00  0.00     0.011 A 
HETATM   30  C22 UNL     1      36.696  -9.515  39.851  1.00  0.00     0.003 A 
HETATM   31  C23 UNL     1      35.620 -10.115  39.263  1.00  0.00     0.030 A 
HETATM   32  C24 UNL     1      35.696 -10.635  37.988  1.00  0.00     0.043 A 
HETATM   33  N8  UNL     1      34.772 -11.291  37.237  1.00  0.00    -0.365 N 
HETATM   34  C27 UNL     1      36.896 -10.548  37.281  1.00  0.00     0.001 A 
HETATM   35  C25 UNL     1      35.353 -11.616  36.093  1.00  0.00     0.089 A 
ATOM     36  H8  UNL     1      33.809 -11.494  37.506  1.00  0.00     0.165 HD
HETATM   37  C26 UNL     1      36.673 -11.176  36.078  1.00  0.00     0.031 A 
ENDBRANCH  18  28
ENDBRANCH  11  15
BRANCH   8  38
HETATM   38  N4  UNL     1      42.598  -8.412  41.520  1.00  0.00    -0.234 N 
ATOM     39  H42 UNL     1      43.198  -7.769  42.037  1.00  0.00     0.174 HD
ATOM     40  H41 UNL     1      41.920  -9.017  41.982  1.00  0.00     0.174 HD
ENDBRANCH   8  38
BRANCH   1  41
HETATM   41  C5  UNL     1      44.275  -8.319  34.119  1.00  0.00     0.008 A 
HETATM   42  C4  UNL     1      44.125  -7.237  33.295  1.00  0.00     0.101 A 
HETATM   43  N1  UNL     1      44.320  -7.326  31.946  1.00  0.00    -0.374 N 
HETATM   44  C3  UNL     1      44.664  -8.485  31.383  1.00  0.00     0.094 A 
ATOM     45  H1  UNL     1      44.201  -6.497  31.362  1.00  0.00     0.164 HD
HETATM   46  C2  UNL     1      44.829  -9.603  32.151  1.00  0.00    -0.046 A 
HETATM   47  C1  UNL     1      45.209 -10.878  31.520  1.00  0.00     0.049 C 
HETATM   48  C29 UNL     1      44.628  -9.503  33.533  1.00  0.00     0.023 A 
ENDBRANCH   1  41
TORSDOF 4
ENDMDL
MODEL 4
REMARK VINA RESULT: -9.063303367      1.917      5.994
REMARK  4 active torsions:
REMARK  status: ('A' for Active; 'I' for Inactive)
REMARK    1  A    between atoms: C5_7  and  C6_8 
REMARK    2  A    between atoms: C9_15  and  N4_16 
REMARK    3  A    between atoms: C10_21  and  N6_22 
REMARK    4  A    between atoms: C19_34  and  C20_35 
ROOT
HETATM    1  C6  UNL     1      42.696  -7.469  34.761  1.00  0.00     0.060 A 
HETATM    2  C7  UNL     1      42.871  -6.348  33.953  1.00  0.00     0.120 A 
HETATM    3  N2  UNL     1      42.287  -5.173  34.170  1.00  0.00    -0.348 N 
ATOM      4  H2  UNL     1      42.451  -4.383  33.545  1.00  0.00     0.167 HD
HETATM    5  C8  UNL     1      41.474  -5.054  35.235  1.00  0.00     0.151 A 
HETATM    6  N3  UNL     1      40.885  -3.870  35.491  1.00  0.00    -0.174 N 
ATOM      7  H3  UNL     1      41.035  -3.067  34.881  1.00  0.00     0.186 HD
HETATM    8  C9  UNL     1      40.099  -3.778  36.568  1.00  0.00     0.679 A 
HETATM    9  N5  UNL     1      39.885  -4.798  37.373  1.00  0.00    -0.174 N 
ATOM     10  H5  UNL     1      39.275  -4.663  38.179  1.00  0.00     0.186 HD
HETATM   11  C10 UNL     1      40.453  -6.044  37.176  1.00  0.00     0.152 A 
HETATM   12  C28 UNL     1      41.262  -6.152  36.080  1.00  0.00     0.123 A 
HETATM   13  N9  UNL     1      41.877  -7.311  35.814  1.00  0.00    -0.348 N 
ATOM     14  H9  UNL     1      41.717  -8.106  36.434  1.00  0.00     0.166 HD
ENDROOT
BRANCH  11  15
HETATM   15  N6  UNL     1      40.128  -7.022  38.114  1.00  0.00    -0.328 N 
HETATM   16  C11 UNL     1      40.096  -7.233  39.605  1.00  0.00     0.166 A 
HETATM   17  C12 UNL     1      41.334  -7.197  40.398  1.00  0.00    -0.005 A 
HETATM   18  C19 UNL     1      39.823  -8.303  38.723  1.00  0.00     0.170 A 
HETATM   19  C13 UNL     1      41.566  -6.070  41.221  1.00  0.00     0.012 A 
HETATM   20  C17 UNL     1      42.187  -8.245  40.478  1.00  0.00     0.043 A 
HETATM   21  C14 UNL     1      42.627  -6.032  42.090  1.00  0.00     0.001 A 
HETATM   22  C15 UNL     1      43.483  -7.108  42.165  1.00  0.00     0.002 A 
HETATM   23  C16 UNL     1      43.273  -8.213  41.368  1.00  0.00     0.030 A 
HETATM   24  N7  UNL     1      42.060  -9.296  39.541  1.00  0.00    -0.324 N 
HETATM   25  C18 UNL     1      41.068  -9.203  38.556  1.00  0.00     0.258 C 
ATOM     26  H7  UNL     1      42.679 -10.106  39.581  1.00  0.00     0.169 HD
HETATM   27  O1  UNL     1      41.222  -9.883  37.489  1.00  0.00    -0.270 OA
BRANCH  18  28
HETATM   28  C20 UNL     1      38.595  -9.068  38.579  1.00  0.00    -0.006 A 
HETATM   29  C21 UNL     1      37.885  -9.573  39.665  1.00  0.00     0.011 A 
HETATM   30  C22 UNL     1      36.640 -10.193  39.565  1.00  0.00     0.003 A 
HETATM   31  C23 UNL     1      36.081 -10.312  38.327  1.00  0.00     0.030 A 
HETATM   32  C24 UNL     1      36.722  -9.840  37.201  1.00  0.00     0.043 A 
HETATM   33  N8  UNL     1      36.367  -9.882  35.889  1.00  0.00    -0.365 N 
HETATM   34  C27 UNL     1      37.969  -9.225  37.327  1.00  0.00     0.001 A 
HETATM   35  C25 UNL     1      37.347  -9.320  35.197  1.00  0.00     0.089 A 
ATOM     36  H8  UNL     1      35.505 -10.273  35.509  1.00  0.00     0.165 HD
HETATM   37  C26 UNL     1      38.362  -8.900  36.050  1.00  0.00     0.031 A 
ENDBRANCH  18  28
ENDBRANCH  11  15
BRANCH   8  38
HETATM   38  N4  UNL     1      39.510  -2.639  36.847  1.00  0.00    -0.234 N 
ATOM     39  H42 UNL     1      38.863  -2.254  36.160  1.00  0.00     0.174 HD
ATOM     40  H41 UNL     1      39.709  -2.170  37.732  1.00  0.00     0.174 HD
ENDBRANCH   8  38
BRANCH   1  41
HETATM   41  C5  UNL     1      43.414  -8.702  34.486  1.00  0.00     0.008 A 
HETATM   42  C4  UNL     1      44.693  -8.694  34.002  1.00  0.00     0.101 A 
HETATM   43  N1  UNL     1      45.384  -9.850  33.771  1.00  0.00    -0.374 N 
HETATM   44  C3  UNL     1      44.825 -11.036  34.012  1.00  0.00     0.094 A 
ATOM     45  H1  UNL     1      46.338  -9.806  33.410  1.00  0.00     0.164 HD
HETATM   46  C2  UNL     1      43.549 -11.112  34.497  1.00  0.00    -0.046 A 
HETATM   47  C1  UNL     1      42.940 -12.427  34.760  1.00  0.00     0.049 C 
HETATM   48  C29 UNL     1      42.849  -9.923  34.731  1.00  0.00     0.023 A 
ENDBRANCH   1  41
TORSDOF 4
ENDMDL
MODEL 5
REMARK VINA RESULT: -9.043500362      2.273      4.251
REMARK  4 active torsions:
REMARK  status: ('A' for Active; 'I' for Inactive)
REMARK    1  A    between atoms: C5_7  and  C6_8 
REMARK    2  A    between atoms: C9_15  and  N4_16 
REMARK    3  A    between atoms: C10_21  and  N6_22 
REMARK    4  A    between atoms: C19_34  and  C20_35 
ROOT
HETATM    1  C6  UNL     1      37.911 -11.090  35.516  1.00  0.00     0.060 A 
HETATM    2  C7  UNL     1      37.744 -12.197  34.687  1.00  0.00     0.120 A 
HETATM    3  N2  UNL     1      38.654 -12.620  33.815  1.00  0.00    -0.348 N 
ATOM      4  H2  UNL     1      38.480 -13.440  33.233  1.00  0.00     0.167 HD
HETATM    5  C8  UNL     1      39.810 -11.940  33.723  1.00  0.00     0.151 A 
HETATM    6  N3  UNL     1      40.759 -12.358  32.863  1.00  0.00    -0.174 N 
ATOM      7  H3  UNL     1      40.608 -13.174  32.270  1.00  0.00     0.186 HD
HETATM    8  C9  UNL     1      41.905 -11.673  32.808  1.00  0.00     0.679 A 
HETATM    9  N5  UNL     1      42.130 -10.614  33.558  1.00  0.00    -0.174 N 
ATOM     10  H5  UNL     1      43.025 -10.135  33.469  1.00  0.00     0.186 HD
HETATM   11  C10 UNL     1      41.205 -10.124  34.462  1.00  0.00     0.152 A 
HETATM   12  C28 UNL     1      40.029 -10.817  34.532  1.00  0.00     0.123 A 
HETATM   13  N9  UNL     1      39.078 -10.435  35.394  1.00  0.00    -0.348 N 
ATOM     14  H9  UNL     1      39.246  -9.617  35.979  1.00  0.00     0.166 HD
ENDROOT
BRANCH  11  15
HETATM   15  N6  UNL     1      41.590  -8.994  35.181  1.00  0.00    -0.328 N 
HETATM   16  C11 UNL     1      42.168  -7.620  34.960  1.00  0.00     0.166 A 
HETATM   17  C12 UNL     1      43.516  -7.451  34.399  1.00  0.00    -0.005 A 
HETATM   18  C19 UNL     1      41.976  -8.115  36.269  1.00  0.00     0.170 A 
HETATM   19  C13 UNL     1      43.632  -7.000  33.063  1.00  0.00     0.012 A 
HETATM   20  C17 UNL     1      44.642  -7.576  35.140  1.00  0.00     0.043 A 
HETATM   21  C14 UNL     1      44.854  -6.688  32.522  1.00  0.00     0.001 A 
HETATM   22  C15 UNL     1      45.989  -6.815  33.291  1.00  0.00     0.002 A 
HETATM   23  C16 UNL     1      45.895  -7.256  34.593  1.00  0.00     0.030 A 
HETATM   24  N7  UNL     1      44.551  -8.186  36.413  1.00  0.00    -0.324 N 
HETATM   25  C18 UNL     1      43.304  -8.652  36.849  1.00  0.00     0.258 C 
ATOM     26  H7  UNL     1      45.379  -8.286  37.002  1.00  0.00     0.169 HD
HETATM   27  O1  UNL     1      43.286  -9.557  37.746  1.00  0.00    -0.270 OA
BRANCH  18  28
HETATM   28  C20 UNL     1      41.115  -7.594  37.318  1.00  0.00    -0.006 A 
HETATM   29  C21 UNL     1      40.334  -8.409  38.134  1.00  0.00     0.011 A 
HETATM   30  C22 UNL     1      39.606  -7.951  39.230  1.00  0.00     0.003 A 
HETATM   31  C23 UNL     1      39.660  -6.620  39.525  1.00  0.00     0.030 A 
HETATM   32  C24 UNL     1      40.408  -5.746  38.764  1.00  0.00     0.043 A 
HETATM   33  N8  UNL     1      40.575  -4.401  38.860  1.00  0.00    -0.365 N 
HETATM   34  C27 UNL     1      41.127  -6.230  37.671  1.00  0.00     0.001 A 
HETATM   35  C25 UNL     1      41.368  -4.031  37.865  1.00  0.00     0.089 A 
ATOM     36  H8  UNL     1      40.167  -3.790  39.567  1.00  0.00     0.165 HD
HETATM   37  C26 UNL     1      41.732  -5.134  37.100  1.00  0.00     0.031 A 
ENDBRANCH  18  28
ENDBRANCH  11  15
BRANCH   8  38
HETATM   38  N4  UNL     1      42.852 -12.054  31.981  1.00  0.00    -0.234 N 
ATOM     39  H42 UNL     1      42.606 -12.716  31.245  1.00  0.00     0.174 HD
ATOM     40  H41 UNL     1      43.797 -11.685  32.090  1.00  0.00     0.174 HD
ENDBRANCH   8  38
BRANCH   1  41
HETATM   41  C5  UNL     1      36.888 -10.724  36.482  1.00  0.00     0.008 A 
HETATM   42  C4  UNL     1      35.565 -10.678  36.142  1.00  0.00     0.101 A 
HETATM   43  N1  UNL     1      34.596 -10.366  37.054  1.00  0.00    -0.374 N 
HETATM   44  C3  UNL     1      34.917 -10.090  38.319  1.00  0.00     0.094 A 
ATOM     45  H1  UNL     1      33.618 -10.343  36.765  1.00  0.00     0.164 HD
HETATM   46  C2  UNL     1      36.222 -10.118  38.722  1.00  0.00    -0.046 A 
HETATM   47  C1  UNL     1      36.566  -9.813  40.121  1.00  0.00     0.049 C 
HETATM   48  C29 UNL     1      37.207 -10.440  37.781  1.00  0.00     0.023 A 
ENDBRANCH   1  41
TORSDOF 4
ENDMDL
