MODEL 1
REMARK VINA RESULT: -8.438081325      0.000      0.000
REMARK  7 active torsions:
REMARK  status: ('A' for Active; 'I' for Inactive)
REMARK    1  A    between atoms: C4_4  and  O1_5 
REMARK    2  A    between atoms: O1_5  and  C5_6 
REMARK    3  A    between atoms: C8_15  and  N2_16 
REMARK    4  A    between atoms: C13_24  and  C14_25 
REMARK    5  A    between atoms: C14_25  and  N4_26 
REMARK    6  A    between atoms: N4_26  and  S1_28 
REMARK    7  A    between atoms: S1_28  and  C15_31 
ROOT
HETATM    1  N2  UNL     1       9.717  63.948   1.440  1.00  0.00    -0.262 N 
HETATM    2  C9  UNL     1       9.087  63.685   0.183  1.00  0.00     0.326 C 
HETATM    3  O2  UNL     1       9.332  64.315  -0.902  1.00  0.00    -0.247 OA
HETATM    4  N3  UNL     1       8.156  62.632   0.314  1.00  0.00    -0.324 N 
ATOM      5  H3  UNL     1       7.747  62.090  -0.447  1.00  0.00     0.165 HD
HETATM    6  C10 UNL     1       7.889  62.464   1.708  1.00  0.00     0.116 C 
HETATM    7  C11 UNL     1       7.636  61.047   2.114  1.00  0.00     0.041 C 
HETATM    8  C12 UNL     1       6.860  61.058   3.412  1.00  0.00     0.009 C 
HETATM    9  C13 UNL     1       5.489  61.610   3.211  1.00  0.00     0.004 C 
HETATM   10  C18 UNL     1       5.471  62.505   1.974  1.00  0.00     0.009 C 
HETATM   11  C19 UNL     1       6.706  63.374   2.063  1.00  0.00     0.041 C 
HETATM   12  C20 UNL     1       9.137  63.021   2.338  1.00  0.00     0.256 C 
HETATM   13  O5  UNL     1       9.519  62.671   3.459  1.00  0.00    -0.270 OA
ENDROOT
BRANCH   1  14
HETATM   14  C8  UNL     1      10.711  64.970   1.744  1.00  0.00     0.111 C 
HETATM   15  C2  UNL     1      12.097  64.419   1.931  1.00  0.00     0.026 C 
HETATM   16  C1  UNL     1      13.106  65.351   1.208  1.00  0.00     0.021 C 
HETATM   17  C3  UNL     1      12.279  63.080   1.260  1.00  0.00     0.021 C 
HETATM   18  C4  UNL     1      12.587  64.334   3.330  1.00  0.00     0.339 C 
HETATM   19  N1  UNL     1      12.338  65.625   3.960  1.00  0.00    -0.048 N 
HETATM   20  C6  UNL     1      10.942  65.924   4.067  1.00  0.00     0.237 C 
ATOM     21  H12 UNL     1      12.797  65.684   4.869  1.00  0.00     0.280 HD
ATOM     22  H11 UNL     1      12.837  66.371   3.476  1.00  0.00     0.280 HD
HETATM   23  C7  UNL     1      10.204  65.891   2.770  1.00  0.00     0.054 C 
BRANCH  18  24
HETATM   24  O1  UNL     1      13.985  64.210   3.308  1.00  0.00    -0.263 OA
BRANCH  24  25
HETATM   25  C5  UNL     1      14.542  64.114   4.573  1.00  0.00     0.526 C 
HETATM   26  F1  UNL     1      13.634  64.226   5.602  1.00  0.00    -0.144 F 
HETATM   27  F2  UNL     1      15.444  65.151   4.741  1.00  0.00    -0.144 F 
HETATM   28  F3  UNL     1      15.181  62.894   4.748  1.00  0.00    -0.144 F 
ENDBRANCH  24  25
ENDBRANCH  18  24
ENDBRANCH   1  14
BRANCH   9  29
HETATM   29  C14 UNL     1       4.521  60.439   3.011  1.00  0.00     0.136 C 
BRANCH  29  30
HETATM   30  N4  UNL     1       5.166  59.262   3.514  1.00  0.00    -0.319 N 
ATOM     31  H4  UNL     1       5.652  59.243   4.411  1.00  0.00     0.172 HD
BRANCH  30  32
HETATM   32  S1  UNL     1       5.060  57.895   2.497  1.00  0.00     0.230 S 
HETATM   33  O3  UNL     1       3.769  57.169   2.649  1.00  0.00    -0.206 OA
HETATM   34  O4  UNL     1       5.264  58.368   1.069  1.00  0.00    -0.206 OA
BRANCH  32  35
HETATM   35  C15 UNL     1       6.415  56.807   2.859  1.00  0.00     0.129 A 
HETATM   36  C16 UNL     1       6.517  56.179   4.201  1.00  0.00     0.023 A 
HETATM   37  C17 UNL     1       7.410  57.339   3.847  1.00  0.00     0.023 A 
ENDBRANCH  32  35
ENDBRANCH  30  32
ENDBRANCH  29  30
ENDBRANCH   9  29
TORSDOF 7
ENDMDL
MODEL 2
REMARK VINA RESULT: -8.364242105      4.355      8.652
REMARK  7 active torsions:
REMARK  status: ('A' for Active; 'I' for Inactive)
REMARK    1  A    between atoms: C4_4  and  O1_5 
REMARK    2  A    between atoms: O1_5  and  C5_6 
REMARK    3  A    between atoms: C8_15  and  N2_16 
REMARK    4  A    between atoms: C13_24  and  C14_25 
REMARK    5  A    between atoms: C14_25  and  N4_26 
REMARK    6  A    between atoms: N4_26  and  S1_28 
REMARK    7  A    between atoms: S1_28  and  C15_31 
ROOT
HETATM    1  N2  UNL     1       5.981  62.124   1.640  1.00  0.00    -0.262 N 
HETATM    2  C9  UNL     1       5.916  63.500   2.027  1.00  0.00     0.326 C 
HETATM    3  O2  UNL     1       4.836  64.174   2.138  1.00  0.00    -0.247 OA
HETATM    4  N3  UNL     1       7.212  64.003   2.265  1.00  0.00    -0.324 N 
ATOM      5  H3  UNL     1       7.444  64.858   2.769  1.00  0.00     0.165 HD
HETATM    6  C10 UNL     1       8.142  63.095   1.671  1.00  0.00     0.116 C 
HETATM    7  C11 UNL     1       9.430  62.962   2.422  1.00  0.00     0.041 C 
HETATM    8  C12 UNL     1      10.484  62.448   1.467  1.00  0.00     0.009 C 
HETATM    9  C13 UNL     1      10.798  63.463   0.420  1.00  0.00     0.004 C 
HETATM   10  C18 UNL     1       9.618  64.419   0.260  1.00  0.00     0.009 C 
HETATM   11  C19 UNL     1       8.376  63.555   0.226  1.00  0.00     0.041 C 
HETATM   12  C20 UNL     1       7.361  61.809   1.651  1.00  0.00     0.256 C 
HETATM   13  O5  UNL     1       7.914  60.705   1.646  1.00  0.00    -0.270 OA
ENDROOT
BRANCH   1  14
HETATM   14  C8  UNL     1       4.877  61.245   1.276  1.00  0.00     0.111 C 
HETATM   15  C2  UNL     1       4.669  60.115   2.246  1.00  0.00     0.026 C 
HETATM   16  C1  UNL     1       3.146  59.948   2.499  1.00  0.00     0.021 C 
HETATM   17  C3  UNL     1       5.243  60.413   3.610  1.00  0.00     0.021 C 
HETATM   18  C4  UNL     1       5.133  58.775   1.803  1.00  0.00     0.339 C 
HETATM   19  N1  UNL     1       4.609  58.552   0.462  1.00  0.00    -0.048 N 
HETATM   20  C6  UNL     1       5.142  59.471  -0.497  1.00  0.00     0.237 C 
ATOM     21  H12 UNL     1       4.756  57.586   0.167  1.00  0.00     0.280 HD
ATOM     22  H11 UNL     1       3.589  58.569   0.460  1.00  0.00     0.280 HD
HETATM   23  C7  UNL     1       4.937  60.909  -0.153  1.00  0.00     0.054 C 
BRANCH  18  24
HETATM   24  O1  UNL     1       4.511  57.801   2.599  1.00  0.00    -0.263 OA
BRANCH  24  25
HETATM   25  C5  UNL     1       5.381  56.810   3.024  1.00  0.00     0.526 C 
HETATM   26  F1  UNL     1       6.141  56.254   2.020  1.00  0.00    -0.144 F 
HETATM   27  F2  UNL     1       4.642  55.772   3.567  1.00  0.00    -0.144 F 
HETATM   28  F3  UNL     1       6.277  57.299   3.964  1.00  0.00    -0.144 F 
ENDBRANCH  24  25
ENDBRANCH  18  24
ENDBRANCH   1  14
BRANCH   9  29
HETATM   29  C14 UNL     1      12.037  64.247   0.865  1.00  0.00     0.136 C 
BRANCH  29  30
HETATM   30  N4  UNL     1      12.621  63.535   1.962  1.00  0.00    -0.319 N 
ATOM     31  H4  UNL     1      12.751  62.523   1.953  1.00  0.00     0.172 HD
BRANCH  30  32
HETATM   32  S1  UNL     1      13.084  64.509   3.286  1.00  0.00     0.230 S 
HETATM   33  O3  UNL     1      13.393  65.908   2.885  1.00  0.00    -0.206 OA
HETATM   34  O4  UNL     1      11.960  64.460   4.306  1.00  0.00    -0.206 OA
BRANCH  32  35
HETATM   35  C15 UNL     1      14.498  63.775   4.068  1.00  0.00     0.129 A 
HETATM   36  C16 UNL     1      14.745  64.009   5.514  1.00  0.00     0.023 A 
HETATM   37  C17 UNL     1      15.566  64.742   4.486  1.00  0.00     0.023 A 
ENDBRANCH  32  35
ENDBRANCH  30  32
ENDBRANCH  29  30
ENDBRANCH   9  29
TORSDOF 7
ENDMDL
MODEL 3
REMARK VINA RESULT: -8.256212988      3.943      8.302
REMARK  7 active torsions:
REMARK  status: ('A' for Active; 'I' for Inactive)
REMARK    1  A    between atoms: C4_4  and  O1_5 
REMARK    2  A    between atoms: O1_5  and  C5_6 
REMARK    3  A    between atoms: C8_15  and  N2_16 
REMARK    4  A    between atoms: C13_24  and  C14_25 
REMARK    5  A    between atoms: C14_25  and  N4_26 
REMARK    6  A    between atoms: N4_26  and  S1_28 
REMARK    7  A    between atoms: S1_28  and  C15_31 
ROOT
HETATM    1  N2  UNL     1       7.294  63.261   2.760  1.00  0.00    -0.262 N 
HETATM    2  C9  UNL     1       7.330  64.506   3.464  1.00  0.00     0.326 C 
HETATM    3  O2  UNL     1       6.299  65.145   3.866  1.00  0.00    -0.247 OA
HETATM    4  N3  UNL     1       8.664  64.926   3.647  1.00  0.00    -0.324 N 
ATOM      5  H3  UNL     1       8.989  65.634   4.304  1.00  0.00     0.165 HD
HETATM    6  C10 UNL     1       9.479  64.177   2.743  1.00  0.00     0.116 C 
HETATM    7  C11 UNL     1      10.842  63.857   3.272  1.00  0.00     0.041 C 
HETATM    8  C12 UNL     1      11.752  63.575   2.097  1.00  0.00     0.009 C 
HETATM    9  C13 UNL     1      11.976  64.807   1.287  1.00  0.00     0.004 C 
HETATM   10  C18 UNL     1      10.824  65.785   1.507  1.00  0.00     0.009 C 
HETATM   11  C19 UNL     1       9.554  64.966   1.429  1.00  0.00     0.041 C 
HETATM   12  C20 UNL     1       8.652  62.940   2.521  1.00  0.00     0.256 C 
HETATM   13  O5  UNL     1       9.156  61.863   2.186  1.00  0.00    -0.270 OA
ENDROOT
BRANCH   1  14
HETATM   14  C8  UNL     1       6.120  62.504   2.343  1.00  0.00     0.111 C 
HETATM   15  C2  UNL     1       5.935  61.222   3.106  1.00  0.00     0.026 C 
HETATM   16  C1  UNL     1       4.430  61.066   3.460  1.00  0.00     0.021 C 
HETATM   17  C3  UNL     1       6.632  61.243   4.444  1.00  0.00     0.021 C 
HETATM   18  C4  UNL     1       6.292  59.972   2.388  1.00  0.00     0.339 C 
HETATM   19  N1  UNL     1       5.649  60.019   1.081  1.00  0.00    -0.048 N 
HETATM   20  C6  UNL     1       6.149  61.081   0.261  1.00  0.00     0.237 C 
ATOM     21  H12 UNL     1       5.723  59.121   0.604  1.00  0.00     0.280 HD
ATOM     22  H11 UNL     1       4.635  60.073   1.173  1.00  0.00     0.280 HD
HETATM   23  C7  UNL     1       6.046  62.436   0.877  1.00  0.00     0.054 C 
BRANCH  18  24
HETATM   24  O1  UNL     1       5.687  58.890   3.047  1.00  0.00    -0.263 OA
BRANCH  24  25
HETATM   25  C5  UNL     1       6.594  57.922   3.446  1.00  0.00     0.526 C 
HETATM   26  F1  UNL     1       6.582  57.657   4.797  1.00  0.00    -0.144 F 
HETATM   27  F2  UNL     1       7.873  58.364   3.152  1.00  0.00    -0.144 F 
HETATM   28  F3  UNL     1       6.350  56.712   2.811  1.00  0.00    -0.144 F 
ENDBRANCH  24  25
ENDBRANCH  18  24
ENDBRANCH   1  14
BRANCH   9  29
HETATM   29  C14 UNL     1      13.290  65.452   1.743  1.00  0.00     0.136 C 
BRANCH  29  30
HETATM   30  N4  UNL     1      13.395  65.251   3.157  1.00  0.00    -0.319 N 
ATOM     31  H4  UNL     1      12.666  65.543   3.809  1.00  0.00     0.172 HD
BRANCH  30  32
HETATM   32  S1  UNL     1      14.833  64.486   3.670  1.00  0.00     0.230 S 
HETATM   33  O3  UNL     1      14.776  63.006   3.522  1.00  0.00    -0.206 OA
HETATM   34  O4  UNL     1      15.979  65.079   2.868  1.00  0.00    -0.206 OA
BRANCH  32  35
HETATM   35  C15 UNL     1      15.136  64.916   5.365  1.00  0.00     0.129 A 
HETATM   36  C16 UNL     1      14.894  63.914   6.434  1.00  0.00     0.023 A 
HETATM   37  C17 UNL     1      13.909  65.034   6.219  1.00  0.00     0.023 A 
ENDBRANCH  32  35
ENDBRANCH  30  32
ENDBRANCH  29  30
ENDBRANCH   9  29
TORSDOF 7
ENDMDL
MODEL 4
REMARK VINA RESULT: -8.223986734      4.411      8.709
REMARK  7 active torsions:
REMARK  status: ('A' for Active; 'I' for Inactive)
REMARK    1  A    between atoms: C4_4  and  O1_5 
REMARK    2  A    between atoms: O1_5  and  C5_6 
REMARK    3  A    between atoms: C8_15  and  N2_16 
REMARK    4  A    between atoms: C13_24  and  C14_25 
REMARK    5  A    between atoms: C14_25  and  N4_26 
REMARK    6  A    between atoms: N4_26  and  S1_28 
REMARK    7  A    between atoms: S1_28  and  C15_31 
ROOT
HETATM    1  N2  UNL     1       5.883  62.095   1.620  1.00  0.00    -0.262 N 
HETATM    2  C9  UNL     1       5.817  63.463   2.034  1.00  0.00     0.326 C 
HETATM    3  O2  UNL     1       4.737  64.134   2.162  1.00  0.00    -0.247 OA
HETATM    4  N3  UNL     1       7.115  63.962   2.277  1.00  0.00    -0.324 N 
ATOM      5  H3  UNL     1       7.347  64.808   2.797  1.00  0.00     0.165 HD
HETATM    6  C10 UNL     1       8.043  63.067   1.662  1.00  0.00     0.116 C 
HETATM    7  C11 UNL     1       9.333  62.921   2.406  1.00  0.00     0.041 C 
HETATM    8  C12 UNL     1      10.384  62.427   1.437  1.00  0.00     0.009 C 
HETATM    9  C13 UNL     1      10.694  63.462   0.409  1.00  0.00     0.004 C 
HETATM   10  C18 UNL     1       9.512  64.420   0.272  1.00  0.00     0.009 C 
HETATM   11  C19 UNL     1       8.271  63.556   0.226  1.00  0.00     0.041 C 
HETATM   12  C20 UNL     1       7.263  61.781   1.620  1.00  0.00     0.256 C 
HETATM   13  O5  UNL     1       7.817  60.677   1.591  1.00  0.00    -0.270 OA
ENDROOT
BRANCH   1  14
HETATM   14  C8  UNL     1       4.778  61.222   1.243  1.00  0.00     0.111 C 
HETATM   15  C2  UNL     1       4.565  60.082   2.200  1.00  0.00     0.026 C 
HETATM   16  C1  UNL     1       3.040  59.915   2.446  1.00  0.00     0.021 C 
HETATM   17  C3  UNL     1       5.135  60.364   3.568  1.00  0.00     0.021 C 
HETATM   18  C4  UNL     1       5.028  58.746   1.744  1.00  0.00     0.339 C 
HETATM   19  N1  UNL     1       4.508  58.538   0.399  1.00  0.00    -0.048 N 
HETATM   20  C6  UNL     1       5.046  59.467  -0.548  1.00  0.00     0.237 C 
ATOM     21  H12 UNL     1       4.654  57.576   0.093  1.00  0.00     0.280 HD
ATOM     22  H11 UNL     1       3.488  58.558   0.393  1.00  0.00     0.280 HD
HETATM   23  C7  UNL     1       4.842  60.901  -0.189  1.00  0.00     0.054 C 
BRANCH  18  24
HETATM   24  O1  UNL     1       4.401  57.764   2.527  1.00  0.00    -0.263 OA
BRANCH  24  25
HETATM   25  C5  UNL     1       5.271  56.775   2.955  1.00  0.00     0.526 C 
HETATM   26  F1  UNL     1       6.062  56.245   1.961  1.00  0.00    -0.144 F 
HETATM   27  F2  UNL     1       4.530  55.720   3.462  1.00  0.00    -0.144 F 
HETATM   28  F3  UNL     1       6.139  57.256   3.926  1.00  0.00    -0.144 F 
ENDBRANCH  24  25
ENDBRANCH  18  24
ENDBRANCH   1  14
BRANCH   9  29
HETATM   29  C14 UNL     1      11.934  64.239   0.865  1.00  0.00     0.136 C 
BRANCH  29  30
HETATM   30  N4  UNL     1      12.658  63.395   1.768  1.00  0.00    -0.319 N 
ATOM     31  H4  UNL     1      12.631  62.376   1.709  1.00  0.00     0.172 HD
BRANCH  30  32
HETATM   32  S1  UNL     1      13.568  64.222   2.952  1.00  0.00     0.230 S 
HETATM   33  O3  UNL     1      14.577  63.349   3.611  1.00  0.00    -0.206 OA
HETATM   34  O4  UNL     1      14.225  65.413   2.276  1.00  0.00    -0.206 OA
BRANCH  32  35
HETATM   35  C15 UNL     1      12.457  64.890   4.165  1.00  0.00     0.129 A 
HETATM   36  C16 UNL     1      12.144  66.341   4.157  1.00  0.00     0.023 A 
HETATM   37  C17 UNL     1      13.094  65.785   5.185  1.00  0.00     0.023 A 
ENDBRANCH  32  35
ENDBRANCH  30  32
ENDBRANCH  29  30
ENDBRANCH   9  29
TORSDOF 7
ENDMDL
MODEL 5
REMARK VINA RESULT: -8.152306689      3.921      8.264
REMARK  7 active torsions:
REMARK  status: ('A' for Active; 'I' for Inactive)
REMARK    1  A    between atoms: C4_4  and  O1_5 
REMARK    2  A    between atoms: O1_5  and  C5_6 
REMARK    3  A    between atoms: C8_15  and  N2_16 
REMARK    4  A    between atoms: C13_24  and  C14_25 
REMARK    5  A    between atoms: C14_25  and  N4_26 
REMARK    6  A    between atoms: N4_26  and  S1_28 
REMARK    7  A    between atoms: S1_28  and  C15_31 
ROOT
HETATM    1  N2  UNL     1       7.239  63.084   1.905  1.00  0.00    -0.262 N 
HETATM    2  C9  UNL     1       7.784  62.755   0.623  1.00  0.00     0.326 C 
HETATM    3  O2  UNL     1       7.268  61.920  -0.195  1.00  0.00    -0.247 OA
HETATM    4  N3  UNL     1       8.970  63.485   0.395  1.00  0.00    -0.324 N 
ATOM      5  H3  UNL     1       9.427  63.625  -0.505  1.00  0.00     0.165 HD
HETATM    6  C10 UNL     1       9.414  63.990   1.656  1.00  0.00     0.116 C 
HETATM    7  C11 UNL     1      10.077  65.329   1.577  1.00  0.00     0.041 C 
HETATM    8  C12 UNL     1      10.952  65.496   2.799  1.00  0.00     0.009 C 
HETATM    9  C13 UNL     1      12.097  64.541   2.773  1.00  0.00     0.004 C 
HETATM   10  C18 UNL     1      11.748  63.343   1.892  1.00  0.00     0.009 C 
HETATM   11  C19 UNL     1      10.342  62.935   2.273  1.00  0.00     0.041 C 
HETATM   12  C20 UNL     1       8.135  64.035   2.447  1.00  0.00     0.256 C 
HETATM   13  O5  UNL     1       7.978  64.807   3.398  1.00  0.00    -0.270 OA
ENDROOT
BRANCH   1  14
HETATM   14  C8  UNL     1       6.046  62.533   2.536  1.00  0.00     0.111 C 
HETATM   15  C2  UNL     1       6.335  61.380   3.456  1.00  0.00     0.026 C 
HETATM   16  C1  UNL     1       5.485  61.545   4.745  1.00  0.00     0.021 C 
HETATM   17  C3  UNL     1       7.762  61.379   3.947  1.00  0.00     0.021 C 
HETATM   18  C4  UNL     1       5.996  60.028   2.942  1.00  0.00     0.339 C 
HETATM   19  N1  UNL     1       4.635  60.087   2.423  1.00  0.00    -0.048 N 
HETATM   20  C6  UNL     1       4.514  60.960   1.295  1.00  0.00     0.237 C 
ATOM     21  H12 UNL     1       4.286  59.153   2.204  1.00  0.00     0.280 HD
ATOM     22  H11 UNL     1       3.974  60.341   3.157  1.00  0.00     0.280 HD
HETATM   23  C7  UNL     1       4.975  62.357   1.545  1.00  0.00     0.054 C 
BRANCH  18  24
HETATM   24  O1  UNL     1       5.928  59.141   4.028  1.00  0.00    -0.263 OA
BRANCH  24  25
HETATM   25  C5  UNL     1       6.663  57.984   3.831  1.00  0.00     0.526 C 
HETATM   26  F1  UNL     1       6.973  57.305   4.987  1.00  0.00    -0.144 F 
HETATM   27  F2  UNL     1       7.872  58.320   3.246  1.00  0.00    -0.144 F 
HETATM   28  F3  UNL     1       5.977  57.086   3.024  1.00  0.00    -0.144 F 
ENDBRANCH  24  25
ENDBRANCH  18  24
ENDBRANCH   1  14
BRANCH   9  29
HETATM   29  C14 UNL     1      13.316  65.266   2.192  1.00  0.00     0.136 C 
BRANCH  29  30
HETATM   30  N4  UNL     1      14.113  65.711   3.296  1.00  0.00    -0.319 N 
ATOM     31  H4  UNL     1      14.199  66.696   3.550  1.00  0.00     0.172 HD
BRANCH  30  32
HETATM   32  S1  UNL     1      14.910  64.469   4.155  1.00  0.00     0.230 S 
HETATM   33  O3  UNL     1      15.025  63.212   3.365  1.00  0.00    -0.206 OA
HETATM   34  O4  UNL     1      16.276  64.994   4.560  1.00  0.00    -0.206 OA
BRANCH  32  35
HETATM   35  C15 UNL     1      14.028  64.160   5.664  1.00  0.00     0.129 A 
HETATM   36  C16 UNL     1      13.719  65.287   6.580  1.00  0.00     0.023 A 
HETATM   37  C17 UNL     1      14.834  64.332   6.916  1.00  0.00     0.023 A 
ENDBRANCH  32  35
ENDBRANCH  30  32
ENDBRANCH  29  30
ENDBRANCH   9  29
TORSDOF 7
ENDMDL
