MODEL 1
REMARK VINA RESULT: -4.910678977      0.000      0.000
REMARK  4 active torsions:
REMARK  status: ('A' for Active; 'I' for Inactive)
REMARK    1  A    between atoms: N1_1  and  C1_4 
REMARK    2  A    between atoms: N4_12  and  N5_14 
REMARK    3  A    between atoms: C4_17  and  N6_18 
REMARK    4  A    between atoms: N6_18  and  C5_20 
ROOT
HETATM    1  C1  UNL     1      18.637   7.214  51.677  1.00  0.00     0.681 C 
HETATM    2  N2  UNL     1      17.915   7.550  50.581  1.00  0.00    -0.141 N 
ATOM      3  H2  UNL     1      18.347   7.366  49.675  1.00  0.00     0.189 HD
HETATM    4  C2  UNL     1      16.686   8.102  50.561  1.00  0.00     0.340 C 
HETATM    5  O1  UNL     1      16.010   8.026  49.498  1.00  0.00    -0.246 OA
HETATM    6  N3  UNL     1      16.091   8.748  51.599  1.00  0.00    -0.290 N 
ATOM      7  H3  UNL     1      15.408   9.459  51.335  1.00  0.00     0.172 HD
HETATM    8  C3  UNL     1      16.271   8.587  52.929  1.00  0.00     0.169 C 
HETATM    9  N4  UNL     1      15.443   9.232  53.712  1.00  0.00    -0.289 N 
ATOM     10  H4  UNL     1      15.552   9.131  54.720  1.00  0.00     0.188 HD
HETATM   11  C4  UNL     1      17.222   7.827  53.571  1.00  0.00     0.169 C 
HETATM   12  N7  UNL     1      18.304   7.282  52.986  1.00  0.00    -0.173 N 
ATOM     13  H7  UNL     1      18.975   6.858  53.626  1.00  0.00     0.186 HD
ENDROOT
BRANCH   9  14
HETATM   14  N5  UNL     1      14.436  10.034  53.244  1.00  0.00    -0.344 N 
ATOM     15  H52 UNL     1      14.163   9.921  52.267  1.00  0.00     0.176 HD
ATOM     16  H51 UNL     1      13.958  10.726  53.821  1.00  0.00     0.176 HD
ENDBRANCH   9  14
BRANCH  11  17
HETATM   17  N6  UNL     1      17.028   7.643  54.827  1.00  0.00    -0.317 N 
ATOM     18  H6  UNL     1      16.095   7.816  55.200  1.00  0.00     0.169 HD
BRANCH  17  19
HETATM   19  C5  UNL     1      18.036   7.214  55.724  1.00  0.00     0.354 C 
HETATM   20  O2  UNL     1      18.503   6.048  55.705  1.00  0.00    -0.283 OA
ENDBRANCH  17  19
ENDBRANCH  11  17
BRANCH   1  21
HETATM   21  N1  UNL     1      19.801   6.771  51.387  1.00  0.00    -0.234 N 
ATOM     22  H12 UNL     1      20.107   6.855  50.417  1.00  0.00     0.174 HD
ATOM     23  H11 UNL     1      20.287   6.378  52.193  1.00  0.00     0.174 HD
ENDBRANCH   1  21
TORSDOF 4
ENDMDL
MODEL 2
REMARK VINA RESULT: -4.693348315      1.996      3.495
REMARK  4 active torsions:
REMARK  status: ('A' for Active; 'I' for Inactive)
REMARK    1  A    between atoms: N1_1  and  C1_4 
REMARK    2  A    between atoms: N4_12  and  N5_14 
REMARK    3  A    between atoms: C4_17  and  N6_18 
REMARK    4  A    between atoms: N6_18  and  C5_20 
ROOT
HETATM    1  C1  UNL     1      17.105   7.828  50.753  1.00  0.00     0.681 C 
HETATM    2  N2  UNL     1      18.258   7.116  50.730  1.00  0.00    -0.141 N 
ATOM      3  H2  UNL     1      18.573   6.785  49.818  1.00  0.00     0.189 HD
HETATM    4  C2  UNL     1      19.033   6.799  51.786  1.00  0.00     0.340 C 
HETATM    5  O1  UNL     1      20.228   6.455  51.573  1.00  0.00    -0.246 OA
HETATM    6  N3  UNL     1      18.643   6.815  53.088  1.00  0.00    -0.290 N 
ATOM      7  H3  UNL     1      19.141   6.168  53.700  1.00  0.00     0.172 HD
HETATM    8  C3  UNL     1      17.691   7.562  53.692  1.00  0.00     0.169 C 
HETATM    9  N4  UNL     1      17.634   7.491  54.998  1.00  0.00    -0.289 N 
ATOM     10  H4  UNL     1      16.927   8.042  55.483  1.00  0.00     0.188 HD
HETATM   11  C4  UNL     1      16.765   8.394  53.105  1.00  0.00     0.169 C 
HETATM   12  N7  UNL     1      16.485   8.437  51.789  1.00  0.00    -0.173 N 
ATOM     13  H7  UNL     1      15.685   9.016  51.535  1.00  0.00     0.186 HD
ENDROOT
BRANCH   9  14
HETATM   14  N5  UNL     1      18.478   6.712  55.745  1.00  0.00    -0.344 N 
ATOM     15  H52 UNL     1      18.936   5.933  55.274  1.00  0.00     0.176 HD
ATOM     16  H51 UNL     1      18.663   6.878  56.735  1.00  0.00     0.176 HD
ENDBRANCH   9  14
BRANCH  11  17
HETATM   17  N6  UNL     1      16.138   9.178  53.905  1.00  0.00    -0.317 N 
ATOM     18  H6  UNL     1      16.688   9.757  54.541  1.00  0.00     0.169 HD
BRANCH  17  19
HETATM   19  C5  UNL     1      14.727   9.285  53.957  1.00  0.00     0.354 C 
HETATM   20  O2  UNL     1      13.967   8.355  53.593  1.00  0.00    -0.283 OA
ENDBRANCH  17  19
ENDBRANCH  11  17
BRANCH   1  21
HETATM   21  N1  UNL     1      16.552   7.911  49.603  1.00  0.00    -0.234 N 
ATOM     22  H12 UNL     1      16.734   8.752  49.054  1.00  0.00     0.174 HD
ATOM     23  H11 UNL     1      15.981   7.096  49.379  1.00  0.00     0.174 HD
ENDBRANCH   1  21
TORSDOF 4
ENDMDL
MODEL 3
REMARK VINA RESULT: -4.676740741      2.518      4.196
REMARK  4 active torsions:
REMARK  status: ('A' for Active; 'I' for Inactive)
REMARK    1  A    between atoms: N1_1  and  C1_4 
REMARK    2  A    between atoms: N4_12  and  N5_14 
REMARK    3  A    between atoms: C4_17  and  N6_18 
REMARK    4  A    between atoms: N6_18  and  C5_20 
ROOT
HETATM    1  C1  UNL     1      17.534   7.994  50.891  1.00  0.00     0.681 C 
HETATM    2  N2  UNL     1      18.024   6.938  51.585  1.00  0.00    -0.141 N 
ATOM      3  H2  UNL     1      17.941   6.023  51.142  1.00  0.00     0.189 HD
HETATM    4  C2  UNL     1      18.607   6.971  52.798  1.00  0.00     0.340 C 
HETATM    5  O1  UNL     1      19.319   5.990  53.149  1.00  0.00    -0.246 OA
HETATM    6  N3  UNL     1      18.501   7.981  53.702  1.00  0.00    -0.290 N 
ATOM      7  H3  UNL     1      18.604   7.704  54.678  1.00  0.00     0.172 HD
HETATM    8  C3  UNL     1      18.278   9.299  53.497  1.00  0.00     0.169 C 
HETATM    9  N4  UNL     1      18.385  10.078  54.543  1.00  0.00    -0.289 N 
ATOM     10  H4  UNL     1      18.223  11.078  54.421  1.00  0.00     0.188 HD
HETATM   11  C4  UNL     1      17.949   9.931  52.319  1.00  0.00     0.169 C 
HETATM   12  N7  UNL     1      17.557   9.312  51.190  1.00  0.00    -0.173 N 
ATOM     13  H7  UNL     1      17.227   9.931  50.450  1.00  0.00     0.186 HD
ENDROOT
BRANCH   9  14
HETATM   14  N5  UNL     1      18.705   9.619  55.793  1.00  0.00    -0.344 N 
ATOM     15  H52 UNL     1      19.446   8.921  55.860  1.00  0.00     0.176 HD
ATOM     16  H51 UNL     1      18.241   9.940  56.643  1.00  0.00     0.176 HD
ENDBRANCH   9  14
BRANCH  11  17
HETATM   17  N6  UNL     1      18.034  11.212  52.336  1.00  0.00    -0.317 N 
ATOM     18  H6  UNL     1      17.699  11.706  53.163  1.00  0.00     0.169 HD
BRANCH  17  19
HETATM   19  C5  UNL     1      18.567  11.978  51.271  1.00  0.00     0.354 C 
HETATM   20  O2  UNL     1      18.195  11.828  50.081  1.00  0.00    -0.283 OA
ENDBRANCH  17  19
ENDBRANCH  11  17
BRANCH   1  21
HETATM   21  N1  UNL     1      16.974   7.648  49.794  1.00  0.00    -0.234 N 
ATOM     22  H12 UNL     1      16.628   8.392  49.187  1.00  0.00     0.174 HD
ATOM     23  H11 UNL     1      16.946   6.636  49.667  1.00  0.00     0.174 HD
ENDBRANCH   1  21
TORSDOF 4
ENDMDL
MODEL 4
REMARK VINA RESULT: -4.657332088      1.910      3.596
REMARK  4 active torsions:
REMARK  status: ('A' for Active; 'I' for Inactive)
REMARK    1  A    between atoms: N1_1  and  C1_4 
REMARK    2  A    between atoms: N4_12  and  N5_14 
REMARK    3  A    between atoms: C4_17  and  N6_18 
REMARK    4  A    between atoms: N6_18  and  C5_20 
ROOT
HETATM    1  C1  UNL     1      16.960   7.839  50.567  1.00  0.00     0.681 C 
HETATM    2  N2  UNL     1      18.028   7.021  50.729  1.00  0.00    -0.141 N 
ATOM      3  H2  UNL     1      18.361   6.534  49.897  1.00  0.00     0.189 HD
HETATM    4  C2  UNL     1      18.696   6.782  51.874  1.00  0.00     0.340 C 
HETATM    5  O1  UNL     1      19.857   6.294  51.802  1.00  0.00    -0.246 OA
HETATM    6  N3  UNL     1      18.228   7.021  53.128  1.00  0.00    -0.290 N 
ATOM      7  H3  UNL     1      18.614   6.422  53.858  1.00  0.00     0.172 HD
HETATM    8  C3  UNL     1      17.328   7.937  53.551  1.00  0.00     0.169 C 
HETATM    9  N4  UNL     1      17.182   8.058  54.846  1.00  0.00    -0.289 N 
ATOM     10  H4  UNL     1      16.511   8.741  55.196  1.00  0.00     0.188 HD
HETATM   11  C4  UNL     1      16.537   8.765  52.787  1.00  0.00     0.169 C 
HETATM   12  N7  UNL     1      16.346   8.648  51.460  1.00  0.00    -0.173 N 
ATOM     13  H7  UNL     1      15.631   9.261  51.069  1.00  0.00     0.186 HD
ENDROOT
BRANCH   9  14
HETATM   14  N5  UNL     1      17.888   7.314  55.754  1.00  0.00    -0.344 N 
ATOM     15  H52 UNL     1      17.727   6.307  55.760  1.00  0.00     0.176 HD
ATOM     16  H51 UNL     1      18.554   7.719  56.413  1.00  0.00     0.176 HD
ENDBRANCH   9  14
BRANCH  11  17
HETATM   17  N6  UNL     1      15.950   9.713  53.424  1.00  0.00    -0.317 N 
ATOM     18  H6  UNL     1      15.283   9.461  54.153  1.00  0.00     0.169 HD
BRANCH  17  19
HETATM   19  C5  UNL     1      16.177  11.088  53.172  1.00  0.00     0.354 C 
HETATM   20  O2  UNL     1      16.917  11.489  52.240  1.00  0.00    -0.283 OA
ENDBRANCH  17  19
ENDBRANCH  11  17
BRANCH   1  21
HETATM   21  N1  UNL     1      16.492   7.813  49.376  1.00  0.00    -0.234 N 
ATOM     22  H12 UNL     1      16.258   6.901  48.983  1.00  0.00     0.174 HD
ATOM     23  H11 UNL     1      16.413   8.742  48.962  1.00  0.00     0.174 HD
ENDBRANCH   1  21
TORSDOF 4
ENDMDL
MODEL 5
REMARK VINA RESULT: -4.645972078      2.129      3.758
REMARK  4 active torsions:
REMARK  status: ('A' for Active; 'I' for Inactive)
REMARK    1  A    between atoms: N1_1  and  C1_4 
REMARK    2  A    between atoms: N4_12  and  N5_14 
REMARK    3  A    between atoms: C4_17  and  N6_18 
REMARK    4  A    between atoms: N6_18  and  C5_20 
ROOT
HETATM    1  C1  UNL     1      18.202   7.155  54.699  1.00  0.00     0.681 C 
HETATM    2  N2  UNL     1      17.057   7.880  54.675  1.00  0.00    -0.141 N 
ATOM      3  H2  UNL     1      16.591   8.027  55.570  1.00  0.00     0.189 HD
HETATM    4  C2  UNL     1      16.470   8.427  53.593  1.00  0.00     0.340 C 
HETATM    5  O1  UNL     1      15.631   9.352  53.768  1.00  0.00    -0.246 OA
HETATM    6  N3  UNL     1      16.700   8.069  52.301  1.00  0.00    -0.290 N 
ATOM      7  H3  UNL     1      15.921   8.227  51.661  1.00  0.00     0.172 HD
HETATM    8  C3  UNL     1      17.807   7.534  51.741  1.00  0.00     0.169 C 
HETATM    9  N4  UNL     1      17.813   7.439  50.435  1.00  0.00    -0.289 N 
ATOM     10  H4  UNL     1      18.635   7.040  49.982  1.00  0.00     0.188 HD
HETATM   11  C4  UNL     1      18.940   7.073  52.372  1.00  0.00     0.169 C 
HETATM   12  N7  UNL     1      19.056   6.854  53.695  1.00  0.00    -0.173 N 
ATOM     13  H7  UNL     1      19.918   6.390  53.984  1.00  0.00     0.186 HD
ENDROOT
BRANCH   9  14
HETATM   14  N5  UNL     1      16.770   7.849  49.647  1.00  0.00    -0.344 N 
ATOM     15  H52 UNL     1      16.818   8.791  49.259  1.00  0.00     0.176 HD
ATOM     16  H51 UNL     1      15.963   7.261  49.437  1.00  0.00     0.176 HD
ENDBRANCH   9  14
BRANCH  11  17
HETATM   17  N6  UNL     1      19.946   6.844  51.608  1.00  0.00    -0.317 N 
ATOM     18  H6  UNL     1      19.788   6.316  50.750  1.00  0.00     0.169 HD
BRANCH  17  19
HETATM   19  C5  UNL     1      21.263   7.283  51.888  1.00  0.00     0.354 C 
HETATM   20  O2  UNL     1      21.855   6.997  52.957  1.00  0.00    -0.283 OA
ENDBRANCH  17  19
ENDBRANCH  11  17
BRANCH   1  21
HETATM   21  N1  UNL     1      18.480   6.706  55.864  1.00  0.00    -0.234 N 
ATOM     22  H12 UNL     1      18.765   7.383  56.573  1.00  0.00     0.174 HD
ATOM     23  H11 UNL     1      18.376   5.693  55.933  1.00  0.00     0.174 HD
ENDBRANCH   1  21
TORSDOF 4
ENDMDL
