MODEL 1
REMARK VINA RESULT: -6.114009185      0.000      0.000
REMARK  8 active torsions:
REMARK  status: ('A' for Active; 'I' for Inactive)
REMARK    1  A    between atoms: N1_1  and  C1_4 
REMARK    2  A    between atoms: C4_9  and  N3_10 
REMARK       I    between atoms: N5_16  and  C6_17 
REMARK    3  A    between atoms: C6_17  and  C7_19 
REMARK    4  A    between atoms: C7_19  and  N6_20 
REMARK    5  A    between atoms: C8_23  and  C9_24 
REMARK    6  A    between atoms: C9_24  and  N8_25 
REMARK    7  A    between atoms: N9_28  and  N10_29 
REMARK    8  A    between atoms: C10_32  and  O4_33 
ROOT
HETATM    1  C1  UNL     1       3.952   9.936   2.410  1.00  0.00     0.677 A 
HETATM    2  N2  UNL     1       2.944  10.838   2.288  1.00  0.00    -0.195 N 
ATOM      3  H2  UNL     1       2.712  11.191   1.360  1.00  0.00     0.184 HD
HETATM    4  C2  UNL     1       2.244  11.281   3.336  1.00  0.00     0.040 A 
HETATM    5  C3  UNL     1       2.542  10.817   4.586  1.00  0.00     0.027 A 
HETATM    6  C4  UNL     1       3.575   9.892   4.702  1.00  0.00     0.124 A 
HETATM    7  N4  UNL     1       4.269   9.459   3.639  1.00  0.00    -0.177 N 
ATOM      8  H4  UNL     1       5.023   8.781   3.754  1.00  0.00     0.185 HD
HETATM    9  C5  UNL     1       1.797  11.285   5.751  1.00  0.00     0.170 C 
HETATM   10  N5  UNL     1       0.549  11.934   5.435  1.00  0.00    -0.346 N 
HETATM   11  C6  UNL     1      -0.216  12.414   6.532  1.00  0.00     0.239 C 
HETATM   12  O1  UNL     1       0.217  12.257   7.731  1.00  0.00    -0.271 OA
HETATM   13  C11 UNL     1       0.048  12.117   4.104  1.00  0.00     0.132 C 
HETATM   14  C12 UNL     1       1.156  12.263   3.080  1.00  0.00     0.078 C 
ENDROOT
BRANCH  11  15
HETATM   15  C7  UNL     1      -1.500  13.087   6.272  1.00  0.00     0.250 C 
BRANCH  15  16
HETATM   16  N6  UNL     1      -1.437  14.502   6.661  1.00  0.00    -0.270 N 
HETATM   17  N7  UNL     1      -0.401  15.232   7.168  1.00  0.00    -0.284 N 
HETATM   18  C8  UNL     1      -0.739  16.439   7.479  1.00  0.00     0.141 C 
ATOM     19  H7  UNL     1       0.542  14.862   7.288  1.00  0.00     0.188 HD
HETATM   20  N9  UNL     1      -2.113  16.572   7.171  1.00  0.00    -0.235 N 
HETATM   21  C10 UNL     1      -2.601  15.350   6.527  1.00  0.00     0.367 C 
BRANCH  18  22
HETATM   22  C9  UNL     1       0.152  17.493   8.057  1.00  0.00     0.280 C 
BRANCH  22  23
HETATM   23  N8  UNL     1       1.533  17.267   7.840  1.00  0.00    -0.148 N 
HETATM   24  O2  UNL     1       2.223  17.982   7.059  1.00  0.00    -0.536 OA
HETATM   25  O3  UNL     1       2.193  16.256   8.472  1.00  0.00    -0.536 OA
ENDBRANCH  22  23
ENDBRANCH  18  22
BRANCH  20  26
HETATM   26  N10 UNL     1      -2.958  17.672   7.402  1.00  0.00    -0.338 N 
ATOM     27 2H10 UNL     1      -2.674  18.623   7.167  1.00  0.00     0.177 HD
ATOM     28 1H10 UNL     1      -3.893  17.677   7.809  1.00  0.00     0.177 HD
ENDBRANCH  20  26
BRANCH  21  29
HETATM   29  O4  UNL     1      -3.672  14.809   7.239  1.00  0.00    -0.357 OA
ATOM     30  H4  UNL     1      -3.410  14.629   8.134  1.00  0.00     0.214 HD
ENDBRANCH  21  29
ENDBRANCH  15  16
ENDBRANCH  11  15
BRANCH   6  31
HETATM   31  N3  UNL     1       3.881   9.436   5.868  1.00  0.00    -0.385 N 
ATOM     32  H32 UNL     1       3.620   8.478   6.103  1.00  0.00     0.157 HD
ATOM     33  H31 UNL     1       4.376  10.041   6.524  1.00  0.00     0.157 HD
ENDBRANCH   6  31
BRANCH   1  34
HETATM   34  N1  UNL     1       4.619   9.520   1.386  1.00  0.00    -0.234 N 
ATOM     35  H12 UNL     1       5.517   9.953   1.173  1.00  0.00     0.174 HD
ATOM     36  H11 UNL     1       4.271   8.774   0.785  1.00  0.00     0.174 HD
ENDBRANCH   1  34
TORSDOF 8
ENDMDL
MODEL 2
REMARK VINA RESULT: -5.970125763      1.100      1.933
REMARK  8 active torsions:
REMARK  status: ('A' for Active; 'I' for Inactive)
REMARK    1  A    between atoms: N1_1  and  C1_4 
REMARK    2  A    between atoms: C4_9  and  N3_10 
REMARK       I    between atoms: N5_16  and  C6_17 
REMARK    3  A    between atoms: C6_17  and  C7_19 
REMARK    4  A    between atoms: C7_19  and  N6_20 
REMARK    5  A    between atoms: C8_23  and  C9_24 
REMARK    6  A    between atoms: C9_24  and  N8_25 
REMARK    7  A    between atoms: N9_28  and  N10_29 
REMARK    8  A    between atoms: C10_32  and  O4_33 
ROOT
HETATM    1  C1  UNL     1       4.259   9.916   3.519  1.00  0.00     0.677 A 
HETATM    2  N2  UNL     1       3.686  10.039   4.744  1.00  0.00    -0.195 N 
ATOM      3  H2  UNL     1       4.206   9.720   5.562  1.00  0.00     0.184 HD
HETATM    4  C2  UNL     1       2.469  10.560   4.921  1.00  0.00     0.040 A 
HETATM    5  C3  UNL     1       1.760  10.992   3.835  1.00  0.00     0.027 A 
HETATM    6  C4  UNL     1       2.355  10.863   2.584  1.00  0.00     0.124 A 
HETATM    7  N4  UNL     1       3.578  10.337   2.424  1.00  0.00    -0.177 N 
ATOM      8  H4  UNL     1       3.989  10.254   1.494  1.00  0.00     0.185 HD
HETATM    9  C5  UNL     1       0.426  11.563   3.997  1.00  0.00     0.170 C 
HETATM   10  N5  UNL     1       0.113  11.963   5.346  1.00  0.00    -0.346 N 
HETATM   11  C6  UNL     1      -1.176  12.522   5.561  1.00  0.00     0.239 C 
HETATM   12  O1  UNL     1      -1.991  12.648   4.577  1.00  0.00    -0.271 OA
HETATM   13  C11 UNL     1       1.009  11.833   6.457  1.00  0.00     0.132 C 
HETATM   14  C12 UNL     1       1.947  10.652   6.312  1.00  0.00     0.078 C 
ENDROOT
BRANCH  11  15
HETATM   15  C7  UNL     1      -1.556  12.949   6.919  1.00  0.00     0.250 C 
BRANCH  15  16
HETATM   16  N6  UNL     1      -1.485  14.410   7.047  1.00  0.00    -0.270 N 
HETATM   17  N7  UNL     1      -0.446  15.214   7.418  1.00  0.00    -0.284 N 
HETATM   18  C8  UNL     1      -0.776  16.459   7.506  1.00  0.00     0.141 C 
ATOM     19  H7  UNL     1       0.495  14.866   7.605  1.00  0.00     0.188 HD
HETATM   20  N9  UNL     1      -2.149  16.542   7.174  1.00  0.00    -0.235 N 
HETATM   21  C10 UNL     1      -2.643  15.227   6.759  1.00  0.00     0.367 C 
BRANCH  18  22
HETATM   22  C9  UNL     1       0.120  17.595   7.887  1.00  0.00     0.280 C 
BRANCH  22  23
HETATM   23  N8  UNL     1       1.501  17.292   7.815  1.00  0.00    -0.148 N 
HETATM   24  O2  UNL     1       2.306  17.961   7.107  1.00  0.00    -0.536 OA
HETATM   25  O3  UNL     1       2.037  16.252   8.515  1.00  0.00    -0.536 OA
ENDBRANCH  22  23
ENDBRANCH  18  22
BRANCH  20  26
HETATM   26  N10 UNL     1      -2.987  17.671   7.202  1.00  0.00    -0.338 N 
ATOM     27 2H10 UNL     1      -2.653  18.593   6.921  1.00  0.00     0.177 HD
ATOM     28 1H10 UNL     1      -3.964  17.726   7.488  1.00  0.00     0.177 HD
ENDBRANCH  20  26
BRANCH  21  29
HETATM   29  O4  UNL     1      -3.719  14.830   7.554  1.00  0.00    -0.357 OA
ATOM     30  H4  UNL     1      -4.109  15.586   7.976  1.00  0.00     0.214 HD
ENDBRANCH  21  29
ENDBRANCH  15  16
ENDBRANCH  11  15
BRANCH   6  31
HETATM   31  N3  UNL     1       1.711  11.261   1.540  1.00  0.00    -0.385 N 
ATOM     32  H32 UNL     1       0.780  11.660   1.661  1.00  0.00     0.157 HD
ATOM     33  H31 UNL     1       2.148  11.169   0.623  1.00  0.00     0.157 HD
ENDBRANCH   6  31
BRANCH   1  34
HETATM   34  N1  UNL     1       5.436   9.408   3.367  1.00  0.00    -0.234 N 
ATOM     35  H12 UNL     1       5.975   9.154   4.194  1.00  0.00     0.174 HD
ATOM     36  H11 UNL     1       5.840   9.257   2.443  1.00  0.00     0.174 HD
ENDBRANCH   1  34
TORSDOF 8
ENDMDL
MODEL 3
REMARK VINA RESULT: -5.943730944      5.900      8.829
REMARK  8 active torsions:
REMARK  status: ('A' for Active; 'I' for Inactive)
REMARK    1  A    between atoms: N1_1  and  C1_4 
REMARK    2  A    between atoms: C4_9  and  N3_10 
REMARK       I    between atoms: N5_16  and  C6_17 
REMARK    3  A    between atoms: C6_17  and  C7_19 
REMARK    4  A    between atoms: C7_19  and  N6_20 
REMARK    5  A    between atoms: C8_23  and  C9_24 
REMARK    6  A    between atoms: C9_24  and  N8_25 
REMARK    7  A    between atoms: N9_28  and  N10_29 
REMARK    8  A    between atoms: C10_32  and  O4_33 
ROOT
HETATM    1  C1  UNL     1      -2.577  17.448   7.729  1.00  0.00     0.677 A 
HETATM    2  N2  UNL     1      -2.581  16.598   8.787  1.00  0.00    -0.195 N 
ATOM      3  H2  UNL     1      -3.477  16.313   9.183  1.00  0.00     0.184 HD
HETATM    4  C2  UNL     1      -1.459  16.119   9.332  1.00  0.00     0.040 A 
HETATM    5  C3  UNL     1      -0.251  16.491   8.813  1.00  0.00     0.027 A 
HETATM    6  C4  UNL     1      -0.255  17.362   7.728  1.00  0.00     0.124 A 
HETATM    7  N4  UNL     1      -1.391  17.834   7.194  1.00  0.00    -0.177 N 
ATOM      8  H4  UNL     1      -1.364  18.472   6.398  1.00  0.00     0.185 HD
HETATM    9  C5  UNL     1       0.993  15.987   9.389  1.00  0.00     0.170 C 
HETATM   10  N5  UNL     1       0.828  14.836  10.240  1.00  0.00    -0.346 N 
HETATM   11  C6  UNL     1       2.007  14.306  10.831  1.00  0.00     0.239 C 
HETATM   12  O1  UNL     1       3.143  14.854  10.593  1.00  0.00    -0.271 OA
HETATM   13  C11 UNL     1      -0.431  14.208  10.517  1.00  0.00     0.132 C 
HETATM   14  C12 UNL     1      -1.588  15.187  10.485  1.00  0.00     0.078 C 
ENDROOT
BRANCH  11  15
HETATM   15  C7  UNL     1       1.903  13.130  11.712  1.00  0.00     0.250 C 
BRANCH  15  16
HETATM   16  N6  UNL     1       3.217  12.765  12.256  1.00  0.00    -0.270 N 
HETATM   17  N7  UNL     1       3.933  13.319  13.278  1.00  0.00    -0.284 N 
HETATM   18  C8  UNL     1       5.102  12.788  13.421  1.00  0.00     0.141 C 
ATOM     19  H7  UNL     1       3.581  14.073  13.868  1.00  0.00     0.188 HD
HETATM   20  N9  UNL     1       5.221  11.788  12.427  1.00  0.00    -0.235 N 
HETATM   21  C10 UNL     1       3.959  11.659  11.694  1.00  0.00     0.367 C 
BRANCH  18  22
HETATM   22  C9  UNL     1       6.132  13.161  14.439  1.00  0.00     0.280 C 
BRANCH  22  23
HETATM   23  N8  UNL     1       6.038  14.499  14.894  1.00  0.00    -0.148 N 
HETATM   24  O2  UNL     1       6.914  15.370  14.624  1.00  0.00    -0.536 OA
HETATM   25  O3  UNL     1       4.988  14.918  15.655  1.00  0.00    -0.536 OA
ENDBRANCH  22  23
ENDBRANCH  18  22
BRANCH  20  26
HETATM   26  N10 UNL     1       6.336  10.987  12.124  1.00  0.00    -0.338 N 
ATOM     27 2H10 UNL     1       7.206  11.059  12.651  1.00  0.00     0.177 HD
ATOM     28 1H10 UNL     1       6.429  10.283  11.392  1.00  0.00     0.177 HD
ENDBRANCH  20  26
BRANCH  21  29
HETATM   29  O4  UNL     1       4.158  11.859  10.328  1.00  0.00    -0.357 OA
ATOM     30  H4  UNL     1       4.694  11.162   9.971  1.00  0.00     0.214 HD
ENDBRANCH  21  29
ENDBRANCH  15  16
ENDBRANCH  11  15
BRANCH   6  31
HETATM   31  N3  UNL     1       0.869  17.732   7.216  1.00  0.00    -0.385 N 
ATOM     32  H32 UNL     1       1.729  17.531   7.727  1.00  0.00     0.157 HD
ATOM     33  H31 UNL     1       0.871  18.212   6.316  1.00  0.00     0.157 HD
ENDBRANCH   6  31
BRANCH   1  34
HETATM   34  N1  UNL     1      -3.671  17.901   7.217  1.00  0.00    -0.234 N 
ATOM     35  H12 UNL     1      -4.556  17.469   7.479  1.00  0.00     0.174 HD
ATOM     36  H11 UNL     1      -3.673  18.679   6.556  1.00  0.00     0.174 HD
ENDBRANCH   1  34
TORSDOF 8
ENDMDL
MODEL 4
REMARK VINA RESULT: -5.711697070      1.616      2.461
REMARK  8 active torsions:
REMARK  status: ('A' for Active; 'I' for Inactive)
REMARK    1  A    between atoms: N1_1  and  C1_4 
REMARK    2  A    between atoms: C4_9  and  N3_10 
REMARK       I    between atoms: N5_16  and  C6_17 
REMARK    3  A    between atoms: C6_17  and  C7_19 
REMARK    4  A    between atoms: C7_19  and  N6_20 
REMARK    5  A    between atoms: C8_23  and  C9_24 
REMARK    6  A    between atoms: C9_24  and  N8_25 
REMARK    7  A    between atoms: N9_28  and  N10_29 
REMARK    8  A    between atoms: C10_32  and  O4_33 
ROOT
HETATM    1  C1  UNL     1       4.083   9.691   2.408  1.00  0.00     0.677 A 
HETATM    2  N2  UNL     1       3.149  10.675   2.370  1.00  0.00    -0.195 N 
ATOM      3  H2  UNL     1       2.904  11.084   1.468  1.00  0.00     0.184 HD
HETATM    4  C2  UNL     1       2.537  11.130   3.467  1.00  0.00     0.040 A 
HETATM    5  C3  UNL     1       2.854  10.593   4.683  1.00  0.00     0.027 A 
HETATM    6  C4  UNL     1       3.811   9.585   4.713  1.00  0.00     0.124 A 
HETATM    7  N4  UNL     1       4.417   9.140   3.602  1.00  0.00    -0.177 N 
ATOM      8  H4  UNL     1       5.117   8.399   3.654  1.00  0.00     0.185 HD
HETATM    9  C5  UNL     1       2.204  11.072   5.900  1.00  0.00     0.170 C 
HETATM   10  N5  UNL     1       1.001  11.832   5.669  1.00  0.00    -0.346 N 
HETATM   11  C6  UNL     1       0.330  12.327   6.820  1.00  0.00     0.239 C 
HETATM   12  O1  UNL     1       0.803  12.087   7.989  1.00  0.00    -0.271 OA
HETATM   13  C11 UNL     1       0.455  12.109   4.373  1.00  0.00     0.132 C 
HETATM   14  C12 UNL     1       1.523  12.207   3.301  1.00  0.00     0.078 C 
ENDROOT
BRANCH  11  15
HETATM   15  C7  UNL     1      -0.905  13.111   6.649  1.00  0.00     0.250 C 
BRANCH  15  16
HETATM   16  N6  UNL     1      -0.716  14.492   7.111  1.00  0.00    -0.270 N 
HETATM   17  N7  UNL     1      -1.601  15.358   7.688  1.00  0.00    -0.284 N 
HETATM   18  C8  UNL     1      -1.103  16.534   7.883  1.00  0.00     0.141 C 
ATOM     19  H7  UNL     1      -2.557  15.102   7.939  1.00  0.00     0.188 HD
HETATM   20  N9  UNL     1       0.229  16.497   7.409  1.00  0.00    -0.235 N 
HETATM   21  C10 UNL     1       0.571  15.138   6.983  1.00  0.00     0.367 C 
BRANCH  18  22
HETATM   22  C9  UNL     1      -1.802  17.708   8.491  1.00  0.00     0.280 C 
BRANCH  22  23
HETATM   23  N8  UNL     1      -2.439  17.428   9.725  1.00  0.00    -0.148 N 
HETATM   24  O2  UNL     1      -1.945  16.637  10.579  1.00  0.00    -0.536 OA
HETATM   25  O3  UNL     1      -3.629  18.004  10.056  1.00  0.00    -0.536 OA
ENDBRANCH  22  23
ENDBRANCH  18  22
BRANCH  20  26
HETATM   26  N10 UNL     1       1.157  17.551   7.330  1.00  0.00    -0.338 N 
ATOM     27 2H10 UNL     1       1.900  17.663   8.020  1.00  0.00     0.177 HD
ATOM     28 1H10 UNL     1       1.212  18.294   6.635  1.00  0.00     0.177 HD
ENDBRANCH  20  26
BRANCH  21  29
HETATM   29  O4  UNL     1       0.982  15.126   5.651  1.00  0.00    -0.357 OA
ATOM     30  H4  UNL     1       0.894  15.993   5.274  1.00  0.00     0.214 HD
ENDBRANCH  21  29
ENDBRANCH  15  16
ENDBRANCH  11  15
BRANCH   6  31
HETATM   31  N3  UNL     1       4.132   9.058   5.845  1.00  0.00    -0.385 N 
ATOM     32  H32 UNL     1       5.094   8.752   5.988  1.00  0.00     0.157 HD
ATOM     33  H31 UNL     1       3.418   8.961   6.568  1.00  0.00     0.157 HD
ENDBRANCH   6  31
BRANCH   1  34
HETATM   34  N1  UNL     1       4.666   9.265   1.338  1.00  0.00    -0.234 N 
ATOM     35  H12 UNL     1       4.093   8.920   0.568  1.00  0.00     0.174 HD
ATOM     36  H11 UNL     1       5.681   9.263   1.244  1.00  0.00     0.174 HD
ENDBRANCH   1  34
TORSDOF 8
ENDMDL
MODEL 5
REMARK VINA RESULT: -5.695195529      6.038      8.873
REMARK  8 active torsions:
REMARK  status: ('A' for Active; 'I' for Inactive)
REMARK    1  A    between atoms: N1_1  and  C1_4 
REMARK    2  A    between atoms: C4_9  and  N3_10 
REMARK       I    between atoms: N5_16  and  C6_17 
REMARK    3  A    between atoms: C6_17  and  C7_19 
REMARK    4  A    between atoms: C7_19  and  N6_20 
REMARK    5  A    between atoms: C8_23  and  C9_24 
REMARK    6  A    between atoms: C9_24  and  N8_25 
REMARK    7  A    between atoms: N9_28  and  N10_29 
REMARK    8  A    between atoms: C10_32  and  O4_33 
ROOT
HETATM    1  C1  UNL     1      -2.520  17.510   7.771  1.00  0.00     0.677 A 
HETATM    2  N2  UNL     1      -2.526  16.815   8.937  1.00  0.00    -0.195 N 
ATOM      3  H2  UNL     1      -3.416  16.652   9.406  1.00  0.00     0.184 HD
HETATM    4  C2  UNL     1      -1.411  16.335   9.496  1.00  0.00     0.040 A 
HETATM    5  C3  UNL     1      -0.209  16.545   8.879  1.00  0.00     0.027 A 
HETATM    6  C4  UNL     1      -0.212  17.257   7.685  1.00  0.00     0.124 A 
HETATM    7  N4  UNL     1      -1.341  17.733   7.138  1.00  0.00    -0.177 N 
ATOM      8  H4  UNL     1      -1.313  18.253   6.261  1.00  0.00     0.185 HD
HETATM    9  C5  UNL     1       1.027  16.036   9.467  1.00  0.00     0.170 C 
HETATM   10  N5  UNL     1       0.831  15.026  10.477  1.00  0.00    -0.346 N 
HETATM   11  C6  UNL     1       2.002  14.499  11.086  1.00  0.00     0.239 C 
HETATM   12  O1  UNL     1       3.158  14.926  10.726  1.00  0.00    -0.271 OA
HETATM   13  C11 UNL     1      -0.450  14.535  10.891  1.00  0.00     0.132 C 
HETATM   14  C12 UNL     1      -1.541  15.581  10.772  1.00  0.00     0.078 C 
ENDROOT
BRANCH  11  15
HETATM   15  C7  UNL     1       1.866  13.464  12.126  1.00  0.00     0.250 C 
BRANCH  15  16
HETATM   16  N6  UNL     1       2.186  14.009  13.452  1.00  0.00    -0.270 N 
HETATM   17  N7  UNL     1       1.453  14.816  14.274  1.00  0.00    -0.284 N 
HETATM   18  C8  UNL     1       2.095  15.173  15.336  1.00  0.00     0.141 C 
ATOM     19  H7  UNL     1       0.496  15.107  14.070  1.00  0.00     0.188 HD
HETATM   20  N9  UNL     1       3.376  14.576  15.258  1.00  0.00    -0.235 N 
HETATM   21  C10 UNL     1       3.453  13.708  14.081  1.00  0.00     0.367 C 
BRANCH  18  22
HETATM   22  C9  UNL     1       1.585  16.050  16.434  1.00  0.00     0.280 C 
BRANCH  22  23
HETATM   23  N8  UNL     1       0.255  16.498  16.247  1.00  0.00    -0.148 N 
HETATM   24  O2  UNL     1      -0.604  16.480  17.174  1.00  0.00    -0.536 OA
HETATM   25  O3  UNL     1      -0.169  16.978  15.044  1.00  0.00    -0.536 OA
ENDBRANCH  22  23
ENDBRANCH  18  22
BRANCH  20  26
HETATM   26  N10 UNL     1       4.464  14.728  16.136  1.00  0.00    -0.338 N 
ATOM     27 2H10 UNL     1       4.345  15.104  17.076  1.00  0.00     0.177 HD
ATOM     28 1H10 UNL     1       5.446  14.508  15.969  1.00  0.00     0.177 HD
ENDBRANCH  20  26
BRANCH  21  29
HETATM   29  O4  UNL     1       4.504  14.094  13.250  1.00  0.00    -0.357 OA
ATOM     30  H4  UNL     1       4.367  13.758  12.372  1.00  0.00     0.214 HD
ENDBRANCH  21  29
ENDBRANCH  15  16
ENDBRANCH  11  15
BRANCH   6  31
HETATM   31  N3  UNL     1       0.906  17.472   7.079  1.00  0.00    -0.385 N 
ATOM     32  H32 UNL     1       1.722  16.923   7.349  1.00  0.00     0.157 HD
ATOM     33  H31 UNL     1       0.946  18.182   6.348  1.00  0.00     0.157 HD
ENDBRANCH   6  31
BRANCH   1  34
HETATM   34  N1  UNL     1      -3.607  17.967   7.247  1.00  0.00    -0.234 N 
ATOM     35  H12 UNL     1      -3.682  18.967   7.059  1.00  0.00     0.174 HD
ATOM     36  H11 UNL     1      -4.392  17.357   7.019  1.00  0.00     0.174 HD
ENDBRANCH   1  34
TORSDOF 8
ENDMDL
