MODEL 1
REMARK VINA RESULT: -8.582339191      0.000      0.000
REMARK  2 active torsions:
REMARK  status: ('A' for Active; 'I' for Inactive)
REMARK    1  A    between atoms: C1_2  and  C2_3 
REMARK       I    between atoms: C1_2  and  N2_24 
REMARK    2  A    between atoms: C12_14  and  C13_15 
ROOT
HETATM    1  C2  UNL     1      10.201   4.583   8.559  1.00  0.00     0.149 A 
HETATM    2  C3  UNL     1      10.464   5.212   9.864  1.00  0.00    -0.007 A 
HETATM    3  C4  UNL     1      11.687   5.879  10.083  1.00  0.00     0.011 A 
HETATM    4  C5  UNL     1      11.938   6.452  11.304  1.00  0.00     0.001 A 
HETATM    5  C6  UNL     1      11.013   6.383  12.319  1.00  0.00     0.003 A 
HETATM    6  C7  UNL     1       9.828   5.730  12.087  1.00  0.00     0.038 A 
HETATM    7  C8  UNL     1       9.529   5.135  10.865  1.00  0.00     0.083 A 
HETATM    8  O2  UNL     1       8.312   4.491  10.686  1.00  0.00    -0.310 OA
HETATM    9  C9  UNL     1       8.012   3.901   9.467  1.00  0.00     0.083 A 
HETATM   10  C10 UNL     1       6.768   3.270   9.348  1.00  0.00     0.039 A 
HETATM   11  C11 UNL     1       6.405   2.667   8.163  1.00  0.00     0.015 A 
HETATM   12  C12 UNL     1       7.292   2.697   7.097  1.00  0.00    -0.024 A 
HETATM   13  C18 UNL     1       8.498   3.324   7.254  1.00  0.00     0.023 A 
HETATM   14  C19 UNL     1       8.906   3.945   8.432  1.00  0.00    -0.006 A 
ENDROOT
BRANCH   1  15
HETATM   15  C1  UNL     1      10.547   5.448   7.396  1.00  0.00     0.237 C 
HETATM   16  O1  UNL     1       9.643   6.161   6.872  1.00  0.00    -0.272 OA
HETATM   17  N2  UNL     1      11.849   5.504   6.844  1.00  0.00    -0.312 N 
HETATM   18  C20 UNL     1      13.009   4.646   7.220  1.00  0.00     0.173 A 
HETATM   19  C27 UNL     1      12.231   6.383   5.798  1.00  0.00     0.050 A 
HETATM   20  C21 UNL     1      14.080   5.117   6.290  1.00  0.00    -0.010 A 
HETATM   21  C22 UNL     1      15.391   5.056   5.796  1.00  0.00     0.098 A 
HETATM   22  C28 UNL     1      13.526   6.099   5.537  1.00  0.00     0.027 A 
HETATM   23  N3  UNL     1      15.513   5.998   4.796  1.00  0.00    -0.365 N 
HETATM   24  C23 UNL     1      14.361   6.653   4.626  1.00  0.00     0.045 A 
ATOM     25  H3  UNL     1      16.365   6.171   4.262  1.00  0.00     0.165 HD
HETATM   26  C24 UNL     1      13.798   7.659   3.851  1.00  0.00     0.030 A 
HETATM   27  C25 UNL     1      12.467   8.017   4.055  1.00  0.00     0.005 A 
HETATM   28  C26 UNL     1      11.652   7.399   5.021  1.00  0.00     0.031 A 
ENDBRANCH   1  15
BRANCH  12  29
HETATM   29  C13 UNL     1       6.894   2.057   5.853  1.00  0.00    -0.011 A 
HETATM   30  C14 UNL     1       7.445   0.860   5.487  1.00  0.00     0.015 A 
HETATM   31  C15 UNL     1       7.090   0.229   4.319  1.00  0.00     0.018 A 
HETATM   32  C16 UNL     1       6.152   0.844   3.516  1.00  0.00     0.087 A 
HETATM   33  N1  UNL     1       5.599   2.029   3.867  1.00  0.00    -0.374 N 
HETATM   34  C17 UNL     1       5.952   2.639   5.013  1.00  0.00     0.099 A 
ATOM     35  H1  UNL     1       4.906   2.463   3.257  1.00  0.00     0.164 HD
ENDBRANCH  12  29
TORSDOF 2
ENDMDL
MODEL 2
REMARK VINA RESULT: -6.307208161      1.757      5.920
REMARK  2 active torsions:
REMARK  status: ('A' for Active; 'I' for Inactive)
REMARK    1  A    between atoms: C1_2  and  C2_3 
REMARK       I    between atoms: C1_2  and  N2_24 
REMARK    2  A    between atoms: C12_14  and  C13_15 
ROOT
HETATM    1  C2  UNL     1       8.791   4.588   7.197  1.00  0.00     0.149 A 
HETATM    2  C3  UNL     1       8.114   3.411   6.626  1.00  0.00    -0.007 A 
HETATM    3  C4  UNL     1       7.630   3.461   5.302  1.00  0.00     0.011 A 
HETATM    4  C5  UNL     1       6.985   2.371   4.775  1.00  0.00     0.001 A 
HETATM    5  C6  UNL     1       6.804   1.229   5.520  1.00  0.00     0.003 A 
HETATM    6  C7  UNL     1       7.284   1.199   6.806  1.00  0.00     0.038 A 
HETATM    7  C8  UNL     1       7.944   2.281   7.383  1.00  0.00     0.083 A 
HETATM    8  O2  UNL     1       8.411   2.192   8.688  1.00  0.00    -0.310 OA
HETATM    9  C9  UNL     1       9.073   3.268   9.261  1.00  0.00     0.083 A 
HETATM   10  C10 UNL     1       9.523   3.116  10.578  1.00  0.00     0.039 A 
HETATM   11  C11 UNL     1      10.191   4.145  11.207  1.00  0.00     0.015 A 
HETATM   12  C12 UNL     1      10.407   5.326  10.514  1.00  0.00    -0.024 A 
HETATM   13  C18 UNL     1       9.951   5.435   9.228  1.00  0.00     0.023 A 
HETATM   14  C19 UNL     1       9.272   4.423   8.554  1.00  0.00    -0.006 A 
ENDROOT
BRANCH   1  15
HETATM   15  C1  UNL     1       9.800   5.200   6.287  1.00  0.00     0.237 C 
HETATM   16  O1  UNL     1       9.403   5.938   5.339  1.00  0.00    -0.272 OA
HETATM   17  N2  UNL     1      11.192   4.988   6.434  1.00  0.00    -0.312 N 
HETATM   18  C20 UNL     1      11.850   4.049   7.388  1.00  0.00     0.173 A 
HETATM   19  C27 UNL     1      12.180   5.627   5.643  1.00  0.00     0.050 A 
HETATM   20  C21 UNL     1      13.299   4.214   7.062  1.00  0.00    -0.010 A 
HETATM   21  C22 UNL     1      14.648   3.895   7.273  1.00  0.00     0.098 A 
HETATM   22  C28 UNL     1      13.363   5.129   6.064  1.00  0.00     0.027 A 
HETATM   23  N3  UNL     1      15.404   4.640   6.391  1.00  0.00    -0.365 N 
HETATM   24  C23 UNL     1      14.617   5.411   5.635  1.00  0.00     0.045 A 
ATOM     25  H3  UNL     1      16.421   4.606   6.326  1.00  0.00     0.165 HD
HETATM   26  C24 UNL     1      14.690   6.348   4.612  1.00  0.00     0.030 A 
HETATM   27  C25 UNL     1      13.516   6.913   4.117  1.00  0.00     0.005 A 
HETATM   28  C26 UNL     1      12.242   6.575   4.609  1.00  0.00     0.031 A 
ENDBRANCH   1  15
BRANCH  12  29
HETATM   29  C13 UNL     1      11.113   6.402  11.191  1.00  0.00    -0.011 A 
HETATM   30  C14 UNL     1      10.669   6.867  12.398  1.00  0.00     0.015 A 
HETATM   31  C15 UNL     1      11.314   7.882  13.063  1.00  0.00     0.018 A 
HETATM   32  C16 UNL     1      12.436   8.426  12.473  1.00  0.00     0.087 A 
HETATM   33  N1  UNL     1      12.887   7.974  11.278  1.00  0.00    -0.374 N 
HETATM   34  C17 UNL     1      12.249   6.980  10.634  1.00  0.00     0.099 A 
ATOM     35  H1  UNL     1      13.720   8.392  10.863  1.00  0.00     0.164 HD
ENDBRANCH  12  29
TORSDOF 2
ENDMDL
MODEL 3
REMARK VINA RESULT: -5.551901199      1.643      2.251
REMARK  2 active torsions:
REMARK  status: ('A' for Active; 'I' for Inactive)
REMARK    1  A    between atoms: C1_2  and  C2_3 
REMARK       I    between atoms: C1_2  and  N2_24 
REMARK    2  A    between atoms: C12_14  and  C13_15 
ROOT
HETATM    1  C2  UNL     1      11.014   3.027   8.678  1.00  0.00     0.149 A 
HETATM    2  C3  UNL     1      11.463   3.556   9.976  1.00  0.00    -0.007 A 
HETATM    3  C4  UNL     1      12.838   3.558  10.290  1.00  0.00     0.011 A 
HETATM    4  C5  UNL     1      13.254   4.037  11.506  1.00  0.00     0.001 A 
HETATM    5  C6  UNL     1      12.349   4.515  12.425  1.00  0.00     0.003 A 
HETATM    6  C7  UNL     1      11.015   4.507  12.100  1.00  0.00     0.038 A 
HETATM    7  C8  UNL     1      10.546   4.031  10.879  1.00  0.00     0.083 A 
HETATM    8  O2  UNL     1       9.185   4.050  10.604  1.00  0.00    -0.310 OA
HETATM    9  C9  UNL     1       8.717   3.580   9.385  1.00  0.00     0.083 A 
HETATM   10  C10 UNL     1       7.335   3.629   9.167  1.00  0.00     0.039 A 
HETATM   11  C11 UNL     1       6.804   3.181   7.976  1.00  0.00     0.015 A 
HETATM   12  C12 UNL     1       7.661   2.684   7.006  1.00  0.00    -0.024 A 
HETATM   13  C18 UNL     1       9.005   2.653   7.259  1.00  0.00     0.023 A 
HETATM   14  C19 UNL     1       9.585   3.094   8.445  1.00  0.00    -0.006 A 
ENDROOT
BRANCH   1  15
HETATM   15  C1  UNL     1      11.820   3.511   7.521  1.00  0.00     0.237 C 
HETATM   16  O1  UNL     1      12.731   2.768   7.055  1.00  0.00    -0.272 OA
HETATM   17  N2  UNL     1      11.613   4.776   6.920  1.00  0.00    -0.312 N 
HETATM   18  C20 UNL     1      10.696   5.848   7.404  1.00  0.00     0.173 A 
HETATM   19  C27 UNL     1      12.300   5.227   5.764  1.00  0.00     0.050 A 
HETATM   20  C21 UNL     1      10.929   6.947   6.418  1.00  0.00    -0.010 A 
HETATM   21  C22 UNL     1      10.669   8.237   5.935  1.00  0.00     0.098 A 
HETATM   22  C28 UNL     1      11.852   6.482   5.541  1.00  0.00     0.027 A 
HETATM   23  N3  UNL     1      11.452   8.438   4.816  1.00  0.00    -0.365 N 
HETATM   24  C23 UNL     1      12.190   7.355   4.561  1.00  0.00     0.045 A 
ATOM     25  H3  UNL     1      11.463   9.293   4.261  1.00  0.00     0.165 HD
HETATM   26  C24 UNL     1      13.137   6.884   3.659  1.00  0.00     0.030 A 
HETATM   27  C25 UNL     1      13.652   5.599   3.815  1.00  0.00     0.005 A 
HETATM   28  C26 UNL     1      13.257   4.742   4.859  1.00  0.00     0.031 A 
ENDBRANCH   1  15
BRANCH  12  29
HETATM   29  C13 UNL     1       7.085   2.215   5.755  1.00  0.00    -0.011 A 
HETATM   30  C14 UNL     1       7.682   1.201   5.058  1.00  0.00     0.015 A 
HETATM   31  C15 UNL     1       7.163   0.736   3.873  1.00  0.00     0.018 A 
HETATM   32  C16 UNL     1       6.009   1.327   3.401  1.00  0.00     0.087 A 
HETATM   33  N1  UNL     1       5.408   2.331   4.082  1.00  0.00    -0.374 N 
HETATM   34  C17 UNL     1       5.923   2.781   5.241  1.00  0.00     0.099 A 
ATOM     35  H1  UNL     1       4.555   2.752   3.713  1.00  0.00     0.164 HD
ENDBRANCH  12  29
TORSDOF 2
ENDMDL
MODEL 4
REMARK VINA RESULT: -5.447956580      1.558      6.968
REMARK  2 active torsions:
REMARK  status: ('A' for Active; 'I' for Inactive)
REMARK    1  A    between atoms: C1_2  and  C2_3 
REMARK       I    between atoms: C1_2  and  N2_24 
REMARK    2  A    between atoms: C12_14  and  C13_15 
ROOT
HETATM    1  C2  UNL     1       9.405   4.622   8.489  1.00  0.00     0.149 A 
HETATM    2  C3  UNL     1       8.961   4.251   9.843  1.00  0.00    -0.007 A 
HETATM    3  C4  UNL     1       7.681   3.687  10.027  1.00  0.00     0.011 A 
HETATM    4  C5  UNL     1       7.262   3.356  11.290  1.00  0.00     0.001 A 
HETATM    5  C6  UNL     1       8.072   3.566  12.381  1.00  0.00     0.003 A 
HETATM    6  C7  UNL     1       9.315   4.114  12.183  1.00  0.00     0.038 A 
HETATM    7  C8  UNL     1       9.783   4.466  10.920  1.00  0.00     0.083 A 
HETATM    8  O2  UNL     1      11.052   5.014  10.778  1.00  0.00    -0.310 OA
HETATM    9  C9  UNL     1      11.521   5.360   9.519  1.00  0.00     0.083 A 
HETATM   10  C10 UNL     1      12.808   5.904   9.442  1.00  0.00     0.039 A 
HETATM   11  C11 UNL     1      13.337   6.267   8.222  1.00  0.00     0.015 A 
HETATM   12  C12 UNL     1      12.572   6.084   7.080  1.00  0.00    -0.024 A 
HETATM   13  C18 UNL     1      11.318   5.550   7.198  1.00  0.00     0.023 A 
HETATM   14  C19 UNL     1      10.745   5.169   8.409  1.00  0.00    -0.006 A 
ENDROOT
BRANCH   1  15
HETATM   15  C1  UNL     1       9.135   3.577   7.461  1.00  0.00     0.237 C 
HETATM   16  O1  UNL     1      10.042   2.742   7.183  1.00  0.00    -0.272 OA
HETATM   17  N2  UNL     1       7.900   3.480   6.776  1.00  0.00    -0.312 N 
HETATM   18  C20 UNL     1       6.763   4.442   6.854  1.00  0.00     0.173 A 
HETATM   19  C27 UNL     1       7.580   2.444   5.861  1.00  0.00     0.050 A 
HETATM   20  C21 UNL     1       5.773   3.859   5.899  1.00  0.00    -0.010 A 
HETATM   21  C22 UNL     1       4.532   3.888   5.249  1.00  0.00     0.098 A 
HETATM   22  C28 UNL     1       6.343   2.734   5.400  1.00  0.00     0.027 A 
HETATM   23  N3  UNL     1       4.460   2.787   4.421  1.00  0.00    -0.365 N 
HETATM   24  C23 UNL     1       5.578   2.062   4.506  1.00  0.00     0.045 A 
ATOM     25  H3  UNL     1       3.663   2.558   3.826  1.00  0.00     0.165 HD
HETATM   26  C24 UNL     1       6.157   0.908   3.991  1.00  0.00     0.030 A 
HETATM   27  C25 UNL     1       7.432   0.535   4.413  1.00  0.00     0.005 A 
HETATM   28  C26 UNL     1       8.174   1.281   5.347  1.00  0.00     0.031 A 
ENDBRANCH   1  15
BRANCH  12  29
HETATM   29  C13 UNL     1      13.144   6.472   5.800  1.00  0.00    -0.011 A 
HETATM   30  C14 UNL     1      12.429   7.252   4.933  1.00  0.00     0.015 A 
HETATM   31  C15 UNL     1      12.942   7.635   3.717  1.00  0.00     0.018 A 
HETATM   32  C16 UNL     1      14.212   7.208   3.391  1.00  0.00     0.087 A 
HETATM   33  N1  UNL     1      14.931   6.437   4.240  1.00  0.00    -0.374 N 
HETATM   34  C17 UNL     1      14.421   6.066   5.429  1.00  0.00     0.099 A 
ATOM     35  H1  UNL     1      15.869   6.134   3.977  1.00  0.00     0.164 HD
ENDBRANCH  12  29
TORSDOF 2
ENDMDL
MODEL 5
REMARK VINA RESULT: -5.411411727      1.917      6.062
REMARK  2 active torsions:
REMARK  status: ('A' for Active; 'I' for Inactive)
REMARK    1  A    between atoms: C1_2  and  C2_3 
REMARK       I    between atoms: C1_2  and  N2_24 
REMARK    2  A    between atoms: C12_14  and  C13_15 
ROOT
HETATM    1  C2  UNL     1       9.203   4.297   7.539  1.00  0.00     0.149 A 
HETATM    2  C3  UNL     1       8.445   3.273   6.800  1.00  0.00    -0.007 A 
HETATM    3  C4  UNL     1       8.659   3.112   5.415  1.00  0.00     0.011 A 
HETATM    4  C5  UNL     1       7.942   2.168   4.724  1.00  0.00     0.001 A 
HETATM    5  C6  UNL     1       7.017   1.377   5.363  1.00  0.00     0.003 A 
HETATM    6  C7  UNL     1       6.823   1.547   6.711  1.00  0.00     0.038 A 
HETATM    7  C8  UNL     1       7.528   2.491   7.454  1.00  0.00     0.083 A 
HETATM    8  O2  UNL     1       7.293   2.617   8.817  1.00  0.00    -0.310 OA
HETATM    9  C9  UNL     1       7.998   3.554   9.558  1.00  0.00     0.083 A 
HETATM   10  C10 UNL     1       7.719   3.630  10.928  1.00  0.00     0.039 A 
HETATM   11  C11 UNL     1       8.385   4.537  11.724  1.00  0.00     0.015 A 
HETATM   12  C12 UNL     1       9.331   5.369  11.143  1.00  0.00    -0.024 A 
HETATM   13  C18 UNL     1       9.574   5.263   9.801  1.00  0.00     0.023 A 
HETATM   14  C19 UNL     1       8.926   4.362   8.960  1.00  0.00    -0.006 A 
ENDROOT
BRANCH   1  15
HETATM   15  C1  UNL     1      10.660   4.310   7.223  1.00  0.00     0.237 C 
HETATM   16  O1  UNL     1      11.413   3.456   7.772  1.00  0.00    -0.272 OA
HETATM   17  N2  UNL     1      11.242   5.245   6.334  1.00  0.00    -0.312 N 
HETATM   18  C20 UNL     1      10.559   6.410   5.700  1.00  0.00     0.173 A 
HETATM   19  C27 UNL     1      12.605   5.226   5.944  1.00  0.00     0.050 A 
HETATM   20  C21 UNL     1      11.661   7.049   4.918  1.00  0.00    -0.010 A 
HETATM   21  C22 UNL     1      12.134   8.051   4.061  1.00  0.00     0.098 A 
HETATM   22  C28 UNL     1      12.766   6.294   5.131  1.00  0.00     0.027 A 
HETATM   23  N3  UNL     1      13.475   7.817   3.832  1.00  0.00    -0.365 N 
HETATM   24  C23 UNL     1      13.878   6.728   4.491  1.00  0.00     0.045 A 
ATOM     25  H3  UNL     1      14.073   8.394   3.241  1.00  0.00     0.165 HD
HETATM   26  C24 UNL     1      15.016   5.958   4.706  1.00  0.00     0.030 A 
HETATM   27  C25 UNL     1      14.938   4.838   5.531  1.00  0.00     0.005 A 
HETATM   28  C26 UNL     1      13.747   4.442   6.167  1.00  0.00     0.031 A 
ENDBRANCH   1  15
BRANCH  12  29
HETATM   29  C13 UNL     1      10.026   6.320  11.996  1.00  0.00    -0.011 A 
HETATM   30  C14 UNL     1      11.208   6.877  11.589  1.00  0.00     0.015 A 
HETATM   31  C15 UNL     1      11.888   7.779  12.371  1.00  0.00     0.018 A 
HETATM   32  C16 UNL     1      11.340   8.112  13.593  1.00  0.00     0.087 A 
HETATM   33  N1  UNL     1      10.171   7.570  14.007  1.00  0.00    -0.374 N 
HETATM   34  C17 UNL     1       9.511   6.687  13.235  1.00  0.00     0.099 A 
ATOM     35  H1  UNL     1       9.785   7.833  14.914  1.00  0.00     0.164 HD
ENDBRANCH  12  29
TORSDOF 2
ENDMDL
