MODEL 1
REMARK VINA RESULT: -8.877206946      0.000      0.000
REMARK  8 active torsions:
REMARK  status: ('A' for Active; 'I' for Inactive)
REMARK    1  A    between atoms: O1_2  and  C2_3 
REMARK    2  A    between atoms: C5_6  and  C6_7 
REMARK    3  A    between atoms: C6_7  and  C7_8 
REMARK    4  A    between atoms: C7_8  and  C8_9 
REMARK       I    between atoms: C8_9  and  N1_11 
REMARK    5  A    between atoms: N1_11  and  N2_13 
REMARK    6  A    between atoms: N2_13  and  C9_14 
REMARK    7  A    between atoms: C9_14  and  C10_15 
REMARK    8  A    between atoms: C10_15  and  C11_17 
ROOT
HETATM    1  C8  UNL     1       3.555   3.965   7.238  1.00  0.00     0.256 C 
HETATM    2  O2  UNL     1       3.727   2.916   7.881  1.00  0.00    -0.267 OA
HETATM    3  N1  UNL     1       3.533   3.806   5.780  1.00  0.00    -0.270 N 
ATOM      4  H1  UNL     1       3.409   4.612   5.167  1.00  0.00     0.185 HD
ENDROOT
BRANCH   3   5
HETATM    5  N2  UNL     1       3.686   2.532   5.260  1.00  0.00    -0.131 NA
BRANCH   5   6
HETATM    6  C9  UNL     1       4.404   2.632   4.003  1.00  0.00     0.219 C 
BRANCH   6   7
HETATM    7  C10 UNL     1       5.841   2.271   4.281  1.00  0.00     0.183 C 
HETATM    8  O3  UNL     1       6.162   1.089   4.537  1.00  0.00    -0.291 OA
BRANCH   7   9
HETATM    9  C11 UNL     1       6.839   3.316   4.246  1.00  0.00     0.104 A 
HETATM   10  C12 UNL     1       7.447   3.924   5.305  1.00  0.00     0.041 A 
HETATM   11  C13 UNL     1       7.202   3.615   6.755  1.00  0.00     0.071 C 
HETATM   12  N3  UNL     1       8.310   4.841   4.819  1.00  0.00    -0.301 N 
HETATM   13  N4  UNL     1       8.254   4.822   3.504  1.00  0.00    -0.266 N 
ATOM     14  H3  UNL     1       8.907   5.449   5.379  1.00  0.00     0.186 HD
HETATM   15  C14 UNL     1       7.370   3.909   3.097  1.00  0.00     0.275 A 
ATOM     16  H4  UNL     1       8.805   5.418   2.886  1.00  0.00     0.190 HD
HETATM   17  O4  UNL     1       7.033   3.586   1.931  1.00  0.00    -0.266 OA
ENDBRANCH   7   9
ENDBRANCH   6   7
ENDBRANCH   5   6
ENDBRANCH   3   5
BRANCH   1  18
HETATM   18  C7  UNL     1       3.378   5.271   7.754  1.00  0.00     0.076 C 
BRANCH  18  19
HETATM   19  C6  UNL     1       2.354   5.891   8.203  1.00  0.00     0.017 C 
BRANCH  19  20
HETATM   20  C5  UNL     1       1.828   6.050   9.528  1.00  0.00    -0.036 A 
HETATM   21  C4  UNL     1       0.892   6.944   9.970  1.00  0.00     0.014 A 
HETATM   22  C3  UNL     1       0.597   7.055  11.309  1.00  0.00     0.037 A 
HETATM   23  C2  UNL     1       1.224   6.273  12.255  1.00  0.00     0.068 A 
HETATM   24  C16 UNL     1       2.161   5.368  11.828  1.00  0.00     0.037 A 
HETATM   25  C15 UNL     1       2.478   5.235  10.501  1.00  0.00     0.014 A 
BRANCH  23  26
HETATM   26  O1  UNL     1       0.939   6.369  13.614  1.00  0.00    -0.356 OA
HETATM   27  C1  UNL     1       1.673   5.490  14.481  1.00  0.00     0.210 C 
ENDBRANCH  23  26
ENDBRANCH  19  20
ENDBRANCH  18  19
ENDBRANCH   1  18
TORSDOF 8
ENDMDL
MODEL 2
REMARK VINA RESULT: -8.836490523      0.840      1.586
REMARK  8 active torsions:
REMARK  status: ('A' for Active; 'I' for Inactive)
REMARK    1  A    between atoms: O1_2  and  C2_3 
REMARK    2  A    between atoms: C5_6  and  C6_7 
REMARK    3  A    between atoms: C6_7  and  C7_8 
REMARK    4  A    between atoms: C7_8  and  C8_9 
REMARK       I    between atoms: C8_9  and  N1_11 
REMARK    5  A    between atoms: N1_11  and  N2_13 
REMARK    6  A    between atoms: N2_13  and  C9_14 
REMARK    7  A    between atoms: C9_14  and  C10_15 
REMARK    8  A    between atoms: C10_15  and  C11_17 
ROOT
HETATM    1  C8  UNL     1       3.496   3.763   7.105  1.00  0.00     0.256 C 
HETATM    2  O2  UNL     1       3.455   2.628   7.607  1.00  0.00    -0.267 OA
HETATM    3  N1  UNL     1       3.596   3.794   5.643  1.00  0.00    -0.270 N 
ATOM      4  H1  UNL     1       3.646   4.681   5.140  1.00  0.00     0.185 HD
ENDROOT
BRANCH   3   5
HETATM    5  N2  UNL     1       3.619   2.588   4.963  1.00  0.00    -0.131 NA
BRANCH   5   6
HETATM    6  C9  UNL     1       4.512   2.717   3.828  1.00  0.00     0.219 C 
BRANCH   6   7
HETATM    7  C10 UNL     1       5.888   2.316   4.295  1.00  0.00     0.183 C 
HETATM    8  O3  UNL     1       6.138   1.127   4.590  1.00  0.00    -0.291 OA
BRANCH   7   9
HETATM    9  C11 UNL     1       6.912   3.332   4.394  1.00  0.00     0.104 A 
HETATM   10  C12 UNL     1       7.692   3.830   3.392  1.00  0.00     0.041 A 
HETATM   11  C13 UNL     1       7.637   3.418   1.948  1.00  0.00     0.071 C 
HETATM   12  N3  UNL     1       8.513   4.759   3.926  1.00  0.00    -0.301 N 
HETATM   13  N4  UNL     1       8.269   4.850   5.216  1.00  0.00    -0.266 N 
ATOM     14  H3  UNL     1       9.207   5.301   3.414  1.00  0.00     0.186 HD
HETATM   15  C14 UNL     1       7.299   4.000   5.560  1.00  0.00     0.275 A 
ATOM     16  H4  UNL     1       8.750   5.479   5.860  1.00  0.00     0.190 HD
HETATM   17  O4  UNL     1       6.781   3.790   6.684  1.00  0.00    -0.266 OA
ENDBRANCH   7   9
ENDBRANCH   6   7
ENDBRANCH   5   6
ENDBRANCH   3   5
BRANCH   1  18
HETATM   18  C7  UNL     1       3.454   5.005   7.784  1.00  0.00     0.076 C 
BRANCH  18  19
HETATM   19  C6  UNL     1       2.486   5.737   8.185  1.00  0.00     0.017 C 
BRANCH  19  20
HETATM   20  C5  UNL     1       1.918   5.956   9.484  1.00  0.00    -0.036 A 
HETATM   21  C4  UNL     1       0.987   6.886   9.859  1.00  0.00     0.014 A 
HETATM   22  C3  UNL     1       0.648   7.053  11.182  1.00  0.00     0.037 A 
HETATM   23  C2  UNL     1       1.224   6.293  12.178  1.00  0.00     0.068 A 
HETATM   24  C16 UNL     1       2.154   5.353  11.818  1.00  0.00     0.037 A 
HETATM   25  C15 UNL     1       2.514   5.164  10.508  1.00  0.00     0.014 A 
BRANCH  23  26
HETATM   26  O1  UNL     1       0.894   6.445  13.521  1.00  0.00    -0.356 OA
HETATM   27  C1  UNL     1       1.647   5.655  14.454  1.00  0.00     0.210 C 
ENDBRANCH  23  26
ENDBRANCH  19  20
ENDBRANCH  18  19
ENDBRANCH   1  18
TORSDOF 8
ENDMDL
MODEL 3
REMARK VINA RESULT: -8.764286281      1.312      2.861
REMARK  8 active torsions:
REMARK  status: ('A' for Active; 'I' for Inactive)
REMARK    1  A    between atoms: O1_2  and  C2_3 
REMARK    2  A    between atoms: C5_6  and  C6_7 
REMARK    3  A    between atoms: C6_7  and  C7_8 
REMARK    4  A    between atoms: C7_8  and  C8_9 
REMARK       I    between atoms: C8_9  and  N1_11 
REMARK    5  A    between atoms: N1_11  and  N2_13 
REMARK    6  A    between atoms: N2_13  and  C9_14 
REMARK    7  A    between atoms: C9_14  and  C10_15 
REMARK    8  A    between atoms: C10_15  and  C11_17 
ROOT
HETATM    1  C8  UNL     1       4.925   5.266   7.217  1.00  0.00     0.256 C 
HETATM    2  O2  UNL     1       5.275   4.115   7.526  1.00  0.00    -0.267 OA
HETATM    3  N1  UNL     1       5.634   5.847   6.073  1.00  0.00    -0.270 N 
ATOM      4  H1  UNL     1       5.423   6.792   5.751  1.00  0.00     0.185 HD
ENDROOT
BRANCH   3   5
HETATM    5  N2  UNL     1       6.596   5.078   5.441  1.00  0.00    -0.131 NA
BRANCH   5   6
HETATM    6  C9  UNL     1       6.409   5.195   4.007  1.00  0.00     0.219 C 
BRANCH   6   7
HETATM    7  C10 UNL     1       5.863   3.876   3.521  1.00  0.00     0.183 C 
HETATM    8  O3  UNL     1       6.223   3.407   2.418  1.00  0.00    -0.291 OA
BRANCH   7   9
HETATM    9  C11 UNL     1       4.918   3.166   4.353  1.00  0.00     0.104 A 
HETATM   10  C12 UNL     1       3.601   3.457   4.554  1.00  0.00     0.041 A 
HETATM   11  C13 UNL     1       2.848   4.598   3.930  1.00  0.00     0.071 C 
HETATM   12  N3  UNL     1       3.097   2.538   5.404  1.00  0.00    -0.301 N 
HETATM   13  N4  UNL     1       4.053   1.696   5.734  1.00  0.00    -0.266 N 
ATOM     14  H3  UNL     1       2.134   2.503   5.736  1.00  0.00     0.186 HD
HETATM   15  C14 UNL     1       5.190   2.031   5.122  1.00  0.00     0.275 A 
ATOM     16  H4  UNL     1       3.941   0.902   6.366  1.00  0.00     0.190 HD
HETATM   17  O4  UNL     1       6.318   1.480   5.172  1.00  0.00    -0.266 OA
ENDBRANCH   7   9
ENDBRANCH   6   7
ENDBRANCH   5   6
ENDBRANCH   3   5
BRANCH   1  18
HETATM   18  C7  UNL     1       3.931   6.058   7.841  1.00  0.00     0.076 C 
BRANCH  18  19
HETATM   19  C6  UNL     1       2.742   5.801   8.233  1.00  0.00     0.017 C 
BRANCH  19  20
HETATM   20  C5  UNL     1       2.096   5.940   9.506  1.00  0.00    -0.036 A 
HETATM   21  C4  UNL     1       1.112   6.818   9.870  1.00  0.00     0.014 A 
HETATM   22  C3  UNL     1       0.696   6.911  11.177  1.00  0.00     0.037 A 
HETATM   23  C2  UNL     1       1.244   6.126  12.169  1.00  0.00     0.068 A 
HETATM   24  C16 UNL     1       2.227   5.237  11.820  1.00  0.00     0.037 A 
HETATM   25  C15 UNL     1       2.665   5.122  10.526  1.00  0.00     0.014 A 
BRANCH  23  26
HETATM   26  O1  UNL     1       0.837   6.204  13.497  1.00  0.00    -0.356 OA
HETATM   27  C1  UNL     1       1.639   5.492  14.452  1.00  0.00     0.210 C 
ENDBRANCH  23  26
ENDBRANCH  19  20
ENDBRANCH  18  19
ENDBRANCH   1  18
TORSDOF 8
ENDMDL
MODEL 4
REMARK VINA RESULT: -8.721666618      1.278      1.542
REMARK  8 active torsions:
REMARK  status: ('A' for Active; 'I' for Inactive)
REMARK    1  A    between atoms: O1_2  and  C2_3 
REMARK    2  A    between atoms: C5_6  and  C6_7 
REMARK    3  A    between atoms: C6_7  and  C7_8 
REMARK    4  A    between atoms: C7_8  and  C8_9 
REMARK       I    between atoms: C8_9  and  N1_11 
REMARK    5  A    between atoms: N1_11  and  N2_13 
REMARK    6  A    between atoms: N2_13  and  C9_14 
REMARK    7  A    between atoms: C9_14  and  C10_15 
REMARK    8  A    between atoms: C10_15  and  C11_17 
ROOT
HETATM    1  C8  UNL     1       3.659   3.738   7.172  1.00  0.00     0.256 C 
HETATM    2  O2  UNL     1       4.377   3.217   8.041  1.00  0.00    -0.267 OA
HETATM    3  N1  UNL     1       3.661   3.059   5.873  1.00  0.00    -0.270 N 
ATOM      4  H1  UNL     1       3.110   3.419   5.093  1.00  0.00     0.185 HD
ENDROOT
BRANCH   3   5
HETATM    5  N2  UNL     1       4.429   1.916   5.734  1.00  0.00    -0.131 NA
BRANCH   5   6
HETATM    6  C9  UNL     1       5.647   2.263   5.026  1.00  0.00     0.219 C 
BRANCH   6   7
HETATM    7  C10 UNL     1       5.240   3.010   3.782  1.00  0.00     0.183 C 
HETATM    8  O3  UNL     1       4.207   2.686   3.154  1.00  0.00    -0.291 OA
BRANCH   7   9
HETATM    9  C11 UNL     1       6.065   4.108   3.330  1.00  0.00     0.104 A 
HETATM   10  C12 UNL     1       5.809   5.443   3.439  1.00  0.00     0.041 A 
HETATM   11  C13 UNL     1       4.593   6.056   4.074  1.00  0.00     0.071 C 
HETATM   12  N3  UNL     1       6.842   6.111   2.884  1.00  0.00    -0.301 N 
HETATM   13  N4  UNL     1       7.721   5.240   2.437  1.00  0.00    -0.266 N 
ATOM     14  H3  UNL     1       6.928   7.125   2.822  1.00  0.00     0.186 HD
HETATM   15  C14 UNL     1       7.298   3.998   2.681  1.00  0.00     0.275 A 
ATOM     16  H4  UNL     1       8.597   5.478   1.973  1.00  0.00     0.190 HD
HETATM   17  O4  UNL     1       7.847   2.900   2.416  1.00  0.00    -0.266 OA
ENDBRANCH   7   9
ENDBRANCH   6   7
ENDBRANCH   5   6
ENDBRANCH   3   5
BRANCH   1  18
HETATM   18  C7  UNL     1       2.853   4.895   7.304  1.00  0.00     0.076 C 
BRANCH  18  19
HETATM   19  C6  UNL     1       2.825   5.834   8.170  1.00  0.00     0.017 C 
BRANCH  19  20
HETATM   20  C5  UNL     1       2.153   5.961   9.431  1.00  0.00    -0.036 A 
HETATM   21  C4  UNL     1       1.143   6.817   9.775  1.00  0.00     0.014 A 
HETATM   22  C3  UNL     1       0.701   6.904  11.074  1.00  0.00     0.037 A 
HETATM   23  C2  UNL     1       1.250   6.135  12.078  1.00  0.00     0.068 A 
HETATM   24  C16 UNL     1       2.259   5.268  11.750  1.00  0.00     0.037 A 
HETATM   25  C15 UNL     1       2.723   5.159  10.464  1.00  0.00     0.014 A 
BRANCH  23  26
HETATM   26  O1  UNL     1       0.816   6.207  13.398  1.00  0.00    -0.356 OA
HETATM   27  C1  UNL     1       1.601   5.493  14.366  1.00  0.00     0.210 C 
ENDBRANCH  23  26
ENDBRANCH  19  20
ENDBRANCH  18  19
ENDBRANCH   1  18
TORSDOF 8
ENDMDL
MODEL 5
REMARK VINA RESULT: -8.710382692      1.465      1.915
REMARK  8 active torsions:
REMARK  status: ('A' for Active; 'I' for Inactive)
REMARK    1  A    between atoms: O1_2  and  C2_3 
REMARK    2  A    between atoms: C5_6  and  C6_7 
REMARK    3  A    between atoms: C6_7  and  C7_8 
REMARK    4  A    between atoms: C7_8  and  C8_9 
REMARK       I    between atoms: C8_9  and  N1_11 
REMARK    5  A    between atoms: N1_11  and  N2_13 
REMARK    6  A    between atoms: N2_13  and  C9_14 
REMARK    7  A    between atoms: C9_14  and  C10_15 
REMARK    8  A    between atoms: C10_15  and  C11_17 
ROOT
HETATM    1  C8  UNL     1       3.793   3.706   7.096  1.00  0.00     0.256 C 
HETATM    2  O2  UNL     1       4.542   3.215   7.957  1.00  0.00    -0.267 OA
HETATM    3  N1  UNL     1       3.819   3.037   5.792  1.00  0.00    -0.270 N 
ATOM      4  H1  UNL     1       3.246   3.375   5.018  1.00  0.00     0.185 HD
ENDROOT
BRANCH   3   5
HETATM    5  N2  UNL     1       4.643   1.935   5.639  1.00  0.00    -0.131 NA
BRANCH   5   6
HETATM    6  C9  UNL     1       5.814   2.337   4.884  1.00  0.00     0.219 C 
BRANCH   6   7
HETATM    7  C10 UNL     1       5.329   3.130   3.698  1.00  0.00     0.183 C 
HETATM    8  O3  UNL     1       4.349   2.736   3.028  1.00  0.00    -0.291 OA
BRANCH   7   9
HETATM    9  C11 UNL     1       6.017   4.353   3.352  1.00  0.00     0.104 A 
HETATM   10  C12 UNL     1       7.142   4.491   2.594  1.00  0.00     0.041 A 
HETATM   11  C13 UNL     1       7.905   3.372   1.943  1.00  0.00     0.071 C 
HETATM   12  N3  UNL     1       7.440   5.805   2.527  1.00  0.00    -0.301 N 
HETATM   13  N4  UNL     1       6.544   6.480   3.215  1.00  0.00    -0.266 N 
ATOM     14  H3  UNL     1       8.230   6.209   2.024  1.00  0.00     0.186 HD
HETATM   15  C14 UNL     1       5.649   5.644   3.744  1.00  0.00     0.275 A 
ATOM     16  H4  UNL     1       6.535   7.494   3.328  1.00  0.00     0.190 HD
HETATM   17  O4  UNL     1       4.645   5.893   4.457  1.00  0.00    -0.266 OA
ENDBRANCH   7   9
ENDBRANCH   6   7
ENDBRANCH   5   6
ENDBRANCH   3   5
BRANCH   1  18
HETATM   18  C7  UNL     1       2.931   4.820   7.242  1.00  0.00     0.076 C 
BRANCH  18  19
HETATM   19  C6  UNL     1       2.884   5.770   8.096  1.00  0.00     0.017 C 
BRANCH  19  20
HETATM   20  C5  UNL     1       2.191   5.910   9.344  1.00  0.00    -0.036 A 
HETATM   21  C4  UNL     1       1.180   6.774   9.663  1.00  0.00     0.014 A 
HETATM   22  C3  UNL     1       0.715   6.874  10.953  1.00  0.00     0.037 A 
HETATM   23  C2  UNL     1       1.241   6.109  11.973  1.00  0.00     0.068 A 
HETATM   24  C16 UNL     1       2.252   5.234  11.669  1.00  0.00     0.037 A 
HETATM   25  C15 UNL     1       2.737   5.113  10.392  1.00  0.00     0.014 A 
BRANCH  23  26
HETATM   26  O1  UNL     1       0.785   6.193  13.284  1.00  0.00    -0.356 OA
HETATM   27  C1  UNL     1       1.618   5.591  14.288  1.00  0.00     0.210 C 
ENDBRANCH  23  26
ENDBRANCH  19  20
ENDBRANCH  18  19
ENDBRANCH   1  18
TORSDOF 8
ENDMDL
