MODEL 1
REMARK VINA RESULT: -8.392233073      0.000      0.000
REMARK  9 active torsions:
REMARK  status: ('A' for Active; 'I' for Inactive)
REMARK    1  A    between atoms: O1_2  and  C2_3 
REMARK    2  A    between atoms: C5_6  and  N1_7 
REMARK       I    between atoms: N1_7  and  C6_9 
REMARK    3  A    between atoms: C6_9  and  C7_11 
REMARK    4  A    between atoms: C7_11  and  N2_14 
REMARK       I    between atoms: N2_14  and  C10_16 
REMARK    5  A    between atoms: C10_16  and  C11_18 
REMARK    6  A    between atoms: C11_18  and  O4_19 
REMARK    7  A    between atoms: C11_18  and  C12_21 
REMARK    8  A    between atoms: C12_21  and  N3_23 
REMARK    9  A    between atoms: N3_23  and  O5_24 
ROOT
HETATM    1  C7  UNL     1       4.522   6.970   9.881  1.00  0.00     0.107 C 
HETATM    2  C8  UNL     1       4.413   8.395   9.481  1.00  0.00     0.048 C 
HETATM    3  C9  UNL     1       5.943   6.700  10.405  1.00  0.00     0.048 C 
ENDROOT
BRANCH   1   4
HETATM    4  C6  UNL     1       4.381   6.099   8.639  1.00  0.00     0.249 C 
HETATM    5  N1  UNL     1       3.253   5.809   7.942  1.00  0.00    -0.325 N 
ATOM      6  H1  UNL     1       2.353   6.148   8.282  1.00  0.00     0.169 HD
HETATM    7  O2  UNL     1       5.501   5.607   8.230  1.00  0.00    -0.270 OA
BRANCH   5   8
HETATM    8  C5  UNL     1       3.306   5.040   6.744  1.00  0.00     0.035 A 
HETATM    9  C4  UNL     1       3.390   3.710   6.641  1.00  0.00     0.032 A 
HETATM   10  C3  UNL     1       3.632   2.982   5.457  1.00  0.00     0.039 A 
HETATM   11  C2  UNL     1       3.794   3.787   4.303  1.00  0.00     0.068 A 
HETATM   12  C15 UNL     1       3.709   5.130   4.364  1.00  0.00     0.039 A 
HETATM   13  C14 UNL     1       3.469   5.774   5.548  1.00  0.00     0.032 A 
BRANCH  11  14
HETATM   14  O1  UNL     1       4.031   3.080   3.132  1.00  0.00    -0.356 OA
HETATM   15  C1  UNL     1       5.340   2.551   2.970  1.00  0.00     0.210 C 
ENDBRANCH  11  14
ENDBRANCH   5   8
ENDBRANCH   1   4
BRANCH   1  16
HETATM   16  N2  UNL     1       3.536   6.551  10.798  1.00  0.00    -0.338 N 
HETATM   17  C10 UNL     1       2.187   6.322  11.007  1.00  0.00     0.273 C 
HETATM   18  O3  UNL     1       1.330   6.469  10.163  1.00  0.00    -0.266 OA
ATOM     19  H2  UNL     1       4.017   6.321  11.668  1.00  0.00     0.164 HD
BRANCH  17  20
HETATM   20  C11 UNL     1       1.893   5.865  12.374  1.00  0.00     0.132 C 
BRANCH  20  21
HETATM   21  O4  UNL     1       0.639   5.473  12.561  1.00  0.00    -0.358 OA
ATOM     22  H4  UNL     1       0.308   5.625  13.438  1.00  0.00     0.217 HD
ENDBRANCH  20  21
BRANCH  20  23
HETATM   23  C12 UNL     1       2.712   5.775  13.560  1.00  0.00     0.164 C 
HETATM   24  C13 UNL     1       2.910   4.203  13.800  1.00  0.00     0.037 C 
BRANCH  23  25
HETATM   25  N3  UNL     1       1.897   6.151  14.737  1.00  0.00    -0.092 NA
BRANCH  25  26
HETATM   26  O5  UNL     1       1.489   7.407  14.574  1.00  0.00    -0.295 OA
ATOM     27  H5  UNL     1       0.956   7.445  13.789  1.00  0.00     0.238 HD
ENDBRANCH  25  26
ENDBRANCH  23  25
ENDBRANCH  20  23
ENDBRANCH  17  20
ENDBRANCH   1  16
TORSDOF 9
ENDMDL
MODEL 2
REMARK VINA RESULT: -8.317979933      2.420      7.655
REMARK  9 active torsions:
REMARK  status: ('A' for Active; 'I' for Inactive)
REMARK    1  A    between atoms: O1_2  and  C2_3 
REMARK    2  A    between atoms: C5_6  and  N1_7 
REMARK       I    between atoms: N1_7  and  C6_9 
REMARK    3  A    between atoms: C6_9  and  C7_11 
REMARK    4  A    between atoms: C7_11  and  N2_14 
REMARK       I    between atoms: N2_14  and  C10_16 
REMARK    5  A    between atoms: C10_16  and  C11_18 
REMARK    6  A    between atoms: C11_18  and  O4_19 
REMARK    7  A    between atoms: C11_18  and  C12_21 
REMARK    8  A    between atoms: C12_21  and  N3_23 
REMARK    9  A    between atoms: N3_23  and  O5_24 
ROOT
HETATM    1  C7  UNL     1       5.508   5.863   6.836  1.00  0.00     0.107 C 
HETATM    2  C8  UNL     1       6.862   5.996   7.430  1.00  0.00     0.048 C 
HETATM    3  C9  UNL     1       5.264   7.033   5.867  1.00  0.00     0.048 C 
ENDROOT
BRANCH   1   4
HETATM    4  C6  UNL     1       4.469   6.032   7.937  1.00  0.00     0.249 C 
HETATM    5  N1  UNL     1       3.358   5.287   8.163  1.00  0.00    -0.325 N 
ATOM      6  H1  UNL     1       3.113   4.542   7.511  1.00  0.00     0.169 HD
HETATM    7  O2  UNL     1       4.727   7.011   8.736  1.00  0.00    -0.270 OA
BRANCH   5   8
HETATM    8  C5  UNL     1       2.528   5.527   9.296  1.00  0.00     0.035 A 
HETATM    9  C4  UNL     1       1.578   6.459   9.419  1.00  0.00     0.032 A 
HETATM   10  C3  UNL     1       0.902   6.804  10.607  1.00  0.00     0.039 A 
HETATM   11  C2  UNL     1       1.310   6.065  11.744  1.00  0.00     0.068 A 
HETATM   12  C15 UNL     1       2.259   5.113  11.660  1.00  0.00     0.039 A 
HETATM   13  C14 UNL     1       2.875   4.825  10.473  1.00  0.00     0.032 A 
BRANCH  11  14
HETATM   14  O1  UNL     1       0.649   6.396  12.919  1.00  0.00    -0.356 OA
HETATM   15  C1  UNL     1       1.471   6.707  14.037  1.00  0.00     0.210 C 
ENDBRANCH  11  14
ENDBRANCH   5   8
ENDBRANCH   1   4
BRANCH   1  16
HETATM   16  N2  UNL     1       5.266   4.616   6.223  1.00  0.00    -0.338 N 
HETATM   17  C10 UNL     1       5.707   3.314   6.058  1.00  0.00     0.273 C 
HETATM   18  O3  UNL     1       6.688   2.851   6.600  1.00  0.00    -0.266 OA
ATOM     19  H2  UNL     1       4.413   4.714   5.673  1.00  0.00     0.164 HD
BRANCH  17  20
HETATM   20  C11 UNL     1       4.848   2.532   5.156  1.00  0.00     0.132 C 
BRANCH  20  21
HETATM   21  O4  UNL     1       3.998   1.724   5.775  1.00  0.00    -0.358 OA
ATOM     22  H4  UNL     1       3.483   1.178   5.194  1.00  0.00     0.217 HD
ENDBRANCH  20  21
BRANCH  20  23
HETATM   23  C12 UNL     1       4.766   2.467   3.715  1.00  0.00     0.164 C 
HETATM   24  C13 UNL     1       6.043   3.284   3.198  1.00  0.00     0.037 C 
BRANCH  23  25
HETATM   25  N3  UNL     1       3.658   3.334   3.257  1.00  0.00    -0.092 NA
BRANCH  25  26
HETATM   26  O5  UNL     1       2.532   2.624   3.299  1.00  0.00    -0.295 OA
ATOM     27  H5  UNL     1       2.050   2.787   2.497  1.00  0.00     0.238 HD
ENDBRANCH  25  26
ENDBRANCH  23  25
ENDBRANCH  20  23
ENDBRANCH  17  20
ENDBRANCH   1  16
TORSDOF 9
ENDMDL
MODEL 3
REMARK VINA RESULT: -8.290151912      1.405      1.652
REMARK  9 active torsions:
REMARK  status: ('A' for Active; 'I' for Inactive)
REMARK    1  A    between atoms: O1_2  and  C2_3 
REMARK    2  A    between atoms: C5_6  and  N1_7 
REMARK       I    between atoms: N1_7  and  C6_9 
REMARK    3  A    between atoms: C6_9  and  C7_11 
REMARK    4  A    between atoms: C7_11  and  N2_14 
REMARK       I    between atoms: N2_14  and  C10_16 
REMARK    5  A    between atoms: C10_16  and  C11_18 
REMARK    6  A    between atoms: C11_18  and  O4_19 
REMARK    7  A    between atoms: C11_18  and  C12_21 
REMARK    8  A    between atoms: C12_21  and  N3_23 
REMARK    9  A    between atoms: N3_23  and  O5_24 
ROOT
HETATM    1  C7  UNL     1       4.791   7.079  10.060  1.00  0.00     0.107 C 
HETATM    2  C8  UNL     1       4.517   8.404   9.450  1.00  0.00     0.048 C 
HETATM    3  C9  UNL     1       6.138   7.134  10.802  1.00  0.00     0.048 C 
ENDROOT
BRANCH   1   4
HETATM    4  C6  UNL     1       4.988   6.057   8.948  1.00  0.00     0.249 C 
HETATM    5  N1  UNL     1       5.255   4.731   9.066  1.00  0.00    -0.325 N 
ATOM      6  H1  UNL     1       5.406   4.330   9.992  1.00  0.00     0.169 HD
HETATM    7  O2  UNL     1       4.866   6.558   7.767  1.00  0.00    -0.270 OA
BRANCH   5   8
HETATM    8  C5  UNL     1       5.328   3.890   7.918  1.00  0.00     0.035 A 
HETATM    9  C4  UNL     1       6.383   3.704   7.118  1.00  0.00     0.032 A 
HETATM   10  C3  UNL     1       6.379   3.021   5.885  1.00  0.00     0.039 A 
HETATM   11  C2  UNL     1       5.115   2.508   5.508  1.00  0.00     0.068 A 
HETATM   12  C15 UNL     1       4.029   2.667   6.290  1.00  0.00     0.039 A 
HETATM   13  C14 UNL     1       4.102   3.341   7.478  1.00  0.00     0.032 A 
BRANCH  11  14
HETATM   14  O1  UNL     1       5.101   1.831   4.296  1.00  0.00    -0.356 OA
HETATM   15  C1  UNL     1       6.079   2.226   3.343  1.00  0.00     0.210 C 
ENDBRANCH  11  14
ENDBRANCH   5   8
ENDBRANCH   1   4
BRANCH   1  16
HETATM   16  N2  UNL     1       3.755   6.599  10.889  1.00  0.00    -0.338 N 
HETATM   17  C10 UNL     1       2.438   6.176  10.951  1.00  0.00     0.273 C 
HETATM   18  O3  UNL     1       1.700   6.097   9.992  1.00  0.00    -0.266 OA
ATOM     19  H2  UNL     1       4.133   6.539  11.834  1.00  0.00     0.164 HD
BRANCH  17  20
HETATM   20  C11 UNL     1       2.020   5.816  12.314  1.00  0.00     0.132 C 
BRANCH  20  21
HETATM   21  O4  UNL     1       0.732   5.518  12.430  1.00  0.00    -0.358 OA
ATOM     22  H4  UNL     1       0.468   4.737  11.958  1.00  0.00     0.217 HD
ENDBRANCH  20  21
BRANCH  20  23
HETATM   23  C12 UNL     1       2.747   5.741  13.560  1.00  0.00     0.164 C 
HETATM   24  C13 UNL     1       2.948   4.173  13.820  1.00  0.00     0.037 C 
BRANCH  23  25
HETATM   25  N3  UNL     1       1.840   6.109  14.669  1.00  0.00    -0.092 NA
BRANCH  25  26
HETATM   26  O5  UNL     1       1.490   7.383  14.513  1.00  0.00    -0.295 OA
ATOM     27  H5  UNL     1       1.473   7.793  15.370  1.00  0.00     0.238 HD
ENDBRANCH  25  26
ENDBRANCH  23  25
ENDBRANCH  20  23
ENDBRANCH  17  20
ENDBRANCH   1  16
TORSDOF 9
ENDMDL
MODEL 4
REMARK VINA RESULT: -8.196924897      1.839      2.095
REMARK  9 active torsions:
REMARK  status: ('A' for Active; 'I' for Inactive)
REMARK    1  A    between atoms: O1_2  and  C2_3 
REMARK    2  A    between atoms: C5_6  and  N1_7 
REMARK       I    between atoms: N1_7  and  C6_9 
REMARK    3  A    between atoms: C6_9  and  C7_11 
REMARK    4  A    between atoms: C7_11  and  N2_14 
REMARK       I    between atoms: N2_14  and  C10_16 
REMARK    5  A    between atoms: C10_16  and  C11_18 
REMARK    6  A    between atoms: C11_18  and  O4_19 
REMARK    7  A    between atoms: C11_18  and  C12_21 
REMARK    8  A    between atoms: C12_21  and  N3_23 
REMARK    9  A    between atoms: N3_23  and  O5_24 
ROOT
HETATM    1  C7  UNL     1       4.801   6.576  10.435  1.00  0.00     0.107 C 
HETATM    2  C8  UNL     1       4.402   7.967  10.103  1.00  0.00     0.048 C 
HETATM    3  C9  UNL     1       6.223   6.585  11.024  1.00  0.00     0.048 C 
ENDROOT
BRANCH   1   4
HETATM    4  C6  UNL     1       4.908   5.774   9.144  1.00  0.00     0.249 C 
HETATM    5  N1  UNL     1       5.291   4.481   8.990  1.00  0.00    -0.325 N 
ATOM      6  H1  UNL     1       5.609   3.952   9.802  1.00  0.00     0.169 HD
HETATM    7  O2  UNL     1       4.570   6.446   8.097  1.00  0.00    -0.270 OA
BRANCH   5   8
HETATM    8  C5  UNL     1       5.255   3.850   7.713  1.00  0.00     0.035 A 
HETATM    9  C4  UNL     1       4.235   3.176   7.173  1.00  0.00     0.032 A 
HETATM   10  C3  UNL     1       4.282   2.401   5.996  1.00  0.00     0.039 A 
HETATM   11  C2  UNL     1       5.553   2.367   5.372  1.00  0.00     0.068 A 
HETATM   12  C15 UNL     1       6.604   3.039   5.881  1.00  0.00     0.039 A 
HETATM   13  C14 UNL     1       6.489   3.777   7.028  1.00  0.00     0.032 A 
BRANCH  11  14
HETATM   14  O1  UNL     1       5.610   1.608   4.212  1.00  0.00    -0.356 OA
HETATM   15  C1  UNL     1       6.010   2.293   3.032  1.00  0.00     0.210 C 
ENDBRANCH  11  14
ENDBRANCH   5   8
ENDBRANCH   1   4
BRANCH   1  16
HETATM   16  N2  UNL     1       3.891   5.899  11.273  1.00  0.00    -0.338 N 
HETATM   17  C10 UNL     1       2.885   4.950  11.345  1.00  0.00     0.273 C 
HETATM   18  O3  UNL     1       2.485   4.305  10.399  1.00  0.00    -0.266 OA
ATOM     19  H2  UNL     1       4.032   6.257  12.217  1.00  0.00     0.164 HD
BRANCH  17  20
HETATM   20  C11 UNL     1       2.348   4.792  12.705  1.00  0.00     0.132 C 
BRANCH  20  21
HETATM   21  O4  UNL     1       2.838   3.751  13.367  1.00  0.00    -0.358 OA
ATOM     22  H4  UNL     1       2.960   3.902  14.297  1.00  0.00     0.217 HD
ENDBRANCH  20  21
BRANCH  20  23
HETATM   23  C12 UNL     1       1.373   5.550  13.454  1.00  0.00     0.164 C 
HETATM   24  C13 UNL     1       0.830   6.647  12.420  1.00  0.00     0.037 C 
BRANCH  23  25
HETATM   25  N3  UNL     1       2.078   6.399  14.439  1.00  0.00    -0.092 NA
BRANCH  25  26
HETATM   26  O5  UNL     1       2.645   5.602  15.342  1.00  0.00    -0.295 OA
ATOM     27  H5  UNL     1       2.989   4.841  14.890  1.00  0.00     0.238 HD
ENDBRANCH  25  26
ENDBRANCH  23  25
ENDBRANCH  20  23
ENDBRANCH  17  20
ENDBRANCH   1  16
TORSDOF 9
ENDMDL
MODEL 5
REMARK VINA RESULT: -8.151893305      2.593      8.079
REMARK  9 active torsions:
REMARK  status: ('A' for Active; 'I' for Inactive)
REMARK    1  A    between atoms: O1_2  and  C2_3 
REMARK    2  A    between atoms: C5_6  and  N1_7 
REMARK       I    between atoms: N1_7  and  C6_9 
REMARK    3  A    between atoms: C6_9  and  C7_11 
REMARK    4  A    between atoms: C7_11  and  N2_14 
REMARK       I    between atoms: N2_14  and  C10_16 
REMARK    5  A    between atoms: C10_16  and  C11_18 
REMARK    6  A    between atoms: C11_18  and  O4_19 
REMARK    7  A    between atoms: C11_18  and  C12_21 
REMARK    8  A    between atoms: C12_21  and  N3_23 
REMARK    9  A    between atoms: N3_23  and  O5_24 
ROOT
HETATM    1  C7  UNL     1       3.982   5.729   5.048  1.00  0.00     0.107 C 
HETATM    2  C8  UNL     1       4.908   6.833   4.691  1.00  0.00     0.048 C 
HETATM    3  C9  UNL     1       2.631   5.957   4.348  1.00  0.00     0.048 C 
ENDROOT
BRANCH   1   4
HETATM    4  C6  UNL     1       3.679   5.805   6.539  1.00  0.00     0.249 C 
HETATM    5  N1  UNL     1       2.666   5.211   7.219  1.00  0.00    -0.325 N 
ATOM      6  H1  UNL     1       1.961   4.680   6.707  1.00  0.00     0.169 HD
HETATM    7  O2  UNL     1       4.524   6.525   7.195  1.00  0.00    -0.270 OA
BRANCH   5   8
HETATM    8  C5  UNL     1       2.572   5.315   8.637  1.00  0.00     0.035 A 
HETATM    9  C4  UNL     1       3.083   4.477   9.545  1.00  0.00     0.032 A 
HETATM   10  C3  UNL     1       2.820   4.491  10.930  1.00  0.00     0.039 A 
HETATM   11  C2  UNL     1       1.922   5.506  11.340  1.00  0.00     0.068 A 
HETATM   12  C15 UNL     1       1.392   6.375  10.458  1.00  0.00     0.039 A 
HETATM   13  C14 UNL     1       1.692   6.307   9.125  1.00  0.00     0.032 A 
BRANCH  11  14
HETATM   14  O1  UNL     1       1.657   5.531  12.703  1.00  0.00    -0.356 OA
HETATM   15  C1  UNL     1       1.881   6.769  13.365  1.00  0.00     0.210 C 
ENDBRANCH  11  14
ENDBRANCH   5   8
ENDBRANCH   1   4
BRANCH   1  16
HETATM   16  N2  UNL     1       4.495   4.440   4.791  1.00  0.00    -0.338 N 
HETATM   17  C10 UNL     1       4.376   3.288   4.032  1.00  0.00     0.273 C 
HETATM   18  O3  UNL     1       3.557   3.131   3.151  1.00  0.00    -0.266 OA
ATOM     19  H2  UNL     1       5.277   4.298   5.429  1.00  0.00     0.164 HD
BRANCH  17  20
HETATM   20  C11 UNL     1       5.363   2.261   4.398  1.00  0.00     0.132 C 
BRANCH  20  21
HETATM   21  O4  UNL     1       4.988   1.474   5.398  1.00  0.00    -0.358 OA
ATOM     22  H4  UNL     1       5.515   1.562   6.183  1.00  0.00     0.217 HD
ENDBRANCH  20  21
BRANCH  20  23
HETATM   23  C12 UNL     1       6.677   1.957   3.882  1.00  0.00     0.164 C 
HETATM   24  C13 UNL     1       6.831   2.888   2.587  1.00  0.00     0.037 C 
BRANCH  23  25
HETATM   25  N3  UNL     1       6.655   0.609   3.272  1.00  0.00    -0.092 NA
BRANCH  25  26
HETATM   26  O5  UNL     1       6.774  -0.289   4.248  1.00  0.00    -0.295 OA
ATOM     27  H5  UNL     1       6.271   0.016   4.993  1.00  0.00     0.238 HD
ENDBRANCH  25  26
ENDBRANCH  23  25
ENDBRANCH  20  23
ENDBRANCH  17  20
ENDBRANCH   1  16
TORSDOF 9
ENDMDL
