MODEL 1
REMARK VINA RESULT: -7.809107150      0.000      0.000
REMARK  8 active torsions:
REMARK  status: ('A' for Active; 'I' for Inactive)
REMARK    1  A    between atoms: C2_2  and  C3_3 
REMARK    2  A    between atoms: C3_3  and  O1_4 
REMARK    3  A    between atoms: O1_4  and  C4_5 
REMARK    4  A    between atoms: C5_6  and  C6_7 
REMARK    5  A    between atoms: C8_16  and  C9_17 
REMARK    6  A    between atoms: C9_17  and  N5_18 
REMARK    7  A    between atoms: C11_23  and  C12_24 
REMARK    8  A    between atoms: C15_30  and  N7_31 
ROOT
HETATM    1  C4  UNL     1      -7.294 -12.129   8.441  1.00  0.00     0.095 A 
HETATM    2  C5  UNL     1      -8.035 -10.974   8.508  1.00  0.00     0.045 A 
HETATM    3  C7  UNL     1      -9.022 -10.769   7.548  1.00  0.00     0.027 A 
HETATM    4  C8  UNL     1      -9.281 -11.665   6.559  1.00  0.00    -0.031 A 
HETATM    5  C10 UNL     1      -8.541 -12.810   6.515  1.00  0.00     0.025 A 
HETATM    6  C11 UNL     1      -7.528 -13.068   7.463  1.00  0.00     0.026 A 
ENDROOT
BRANCH   6   7
HETATM    7  C12 UNL     1      -6.950 -14.405   7.388  1.00  0.00     0.067 A 
HETATM    8  C13 UNL     1      -7.257 -15.343   8.341  1.00  0.00     0.106 A 
HETATM    9  C14 UNL     1      -6.799 -16.668   8.233  1.00  0.00     0.261 A 
HETATM   10  O2  UNL     1      -7.084 -17.521   9.111  1.00  0.00    -0.268 OA
HETATM   11  N6  UNL     1      -6.056 -16.960   7.159  1.00  0.00    -0.156 N 
HETATM   12  C15 UNL     1      -5.758 -16.026   6.220  1.00  0.00     0.679 A 
ATOM     13  H6  UNL     1      -5.704 -17.911   7.043  1.00  0.00     0.187 HD
HETATM   14  N8  UNL     1      -6.187 -14.765   6.314  1.00  0.00    -0.191 N 
ATOM     15  H8  UNL     1      -5.949 -14.081   5.595  1.00  0.00     0.184 HD
BRANCH  12  16
HETATM   16  N7  UNL     1      -5.035 -16.427   5.231  1.00  0.00    -0.234 N 
ATOM     17  H72 UNL     1      -4.059 -16.147   5.128  1.00  0.00     0.174 HD
ATOM     18  H71 UNL     1      -5.495 -17.041   4.559  1.00  0.00     0.174 HD
ENDBRANCH  12  16
ENDBRANCH   6   7
BRANCH   1  19
HETATM   19  O1  UNL     1      -6.275 -12.374   9.334  1.00  0.00    -0.348 OA
BRANCH  19  20
HETATM   20  C3  UNL     1      -4.937 -12.126   9.196  1.00  0.00     0.189 C 
BRANCH  20  21
HETATM   21  C2  UNL     1      -4.304 -10.813   9.304  1.00  0.00     0.021 C 
HETATM   22  C1  UNL     1      -4.173  -9.966   8.063  1.00  0.00     0.022 C 
HETATM   23  C16 UNL     1      -2.852 -11.016   9.875  1.00  0.00     0.181 C 
HETATM   24  O3  UNL     1      -2.963  -9.785  10.529  1.00  0.00    -0.389 OA
HETATM   25  C17 UNL     1      -4.336 -10.024  10.559  1.00  0.00     0.181 C 
ENDBRANCH  20  21
ENDBRANCH  19  20
ENDBRANCH   1  19
BRANCH   2  26
HETATM   26  C6  UNL     1      -7.939  -9.982   9.575  1.00  0.00     0.147 A 
HETATM   27  N1  UNL     1      -8.136 -10.243  10.891  1.00  0.00    -0.271 N 
HETATM   28  N2  UNL     1      -7.920  -9.179  11.600  1.00  0.00    -0.225 N 
ATOM     29  H1  UNL     1      -8.415 -11.148  11.269  1.00  0.00     0.190 HD
HETATM   30  N3  UNL     1      -7.578  -8.190  10.786  1.00  0.00    -0.005 NA
ATOM     31  H2  UNL     1      -8.000  -9.114  12.614  1.00  0.00     0.205 HD
HETATM   32  N4  UNL     1      -7.593  -8.688   9.561  1.00  0.00    -0.266 N 
ATOM     33  H4  UNL     1      -7.371  -8.157   8.719  1.00  0.00     0.186 HD
ENDBRANCH   2  26
BRANCH   4  34
HETATM   34  C9  UNL     1     -10.351 -11.431   5.522  1.00  0.00     0.268 C 
BRANCH  34  35
HETATM   35  N5  UNL     1     -10.524 -12.608   4.702  1.00  0.00    -0.075 N 
ATOM     36  H53 UNL     1     -10.197 -12.456   3.748  1.00  0.00     0.274 HD
ATOM     37  H52 UNL     1      -9.880 -13.353   4.966  1.00  0.00     0.274 HD
ATOM     38  H51 UNL     1     -11.495 -12.919   4.726  1.00  0.00     0.274 HD
ENDBRANCH  34  35
ENDBRANCH   4  34
TORSDOF 8
ENDMDL
MODEL 2
REMARK VINA RESULT: -7.807642792      1.150      1.319
REMARK  8 active torsions:
REMARK  status: ('A' for Active; 'I' for Inactive)
REMARK    1  A    between atoms: C2_2  and  C3_3 
REMARK    2  A    between atoms: C3_3  and  O1_4 
REMARK    3  A    between atoms: O1_4  and  C4_5 
REMARK    4  A    between atoms: C5_6  and  C6_7 
REMARK    5  A    between atoms: C8_16  and  C9_17 
REMARK    6  A    between atoms: C9_17  and  N5_18 
REMARK    7  A    between atoms: C11_23  and  C12_24 
REMARK    8  A    between atoms: C15_30  and  N7_31 
ROOT
HETATM    1  C4  UNL     1      -7.631 -12.090   8.979  1.00  0.00     0.095 A 
HETATM    2  C5  UNL     1      -8.050 -10.803   8.744  1.00  0.00     0.045 A 
HETATM    3  C7  UNL     1      -8.887 -10.572   7.657  1.00  0.00     0.027 A 
HETATM    4  C8  UNL     1      -9.307 -11.565   6.829  1.00  0.00    -0.031 A 
HETATM    5  C10 UNL     1      -8.886 -12.838   7.085  1.00  0.00     0.025 A 
HETATM    6  C11 UNL     1      -8.037 -13.128   8.174  1.00  0.00     0.026 A 
ENDROOT
BRANCH   6   7
HETATM    7  C12 UNL     1      -7.822 -14.549   8.416  1.00  0.00     0.067 A 
HETATM    8  C13 UNL     1      -8.643 -15.234   9.276  1.00  0.00     0.106 A 
HETATM    9  C14 UNL     1      -8.523 -16.625   9.445  1.00  0.00     0.261 A 
HETATM   10  O2  UNL     1      -9.279 -17.245  10.236  1.00  0.00    -0.268 OA
HETATM   11  N6  UNL     1      -7.575 -17.237   8.726  1.00  0.00    -0.156 N 
HETATM   12  C15 UNL     1      -6.767 -16.553   7.877  1.00  0.00     0.679 A 
ATOM     13  H6  UNL     1      -7.455 -18.246   8.820  1.00  0.00     0.187 HD
HETATM   14  N8  UNL     1      -6.872 -15.231   7.711  1.00  0.00    -0.191 N 
ATOM     15  H8  UNL     1      -6.252 -14.739   7.066  1.00  0.00     0.184 HD
BRANCH  12  16
HETATM   16  N7  UNL     1      -5.891 -17.252   7.239  1.00  0.00    -0.234 N 
ATOM     17  H72 UNL     1      -5.674 -18.213   7.502  1.00  0.00     0.174 HD
ATOM     18  H71 UNL     1      -5.428 -16.787   6.458  1.00  0.00     0.174 HD
ENDBRANCH  12  16
ENDBRANCH   6   7
BRANCH   1  19
HETATM   19  O1  UNL     1      -6.768 -12.380  10.014  1.00  0.00    -0.348 OA
BRANCH  19  20
HETATM   20  C3  UNL     1      -5.400 -12.392  10.009  1.00  0.00     0.189 C 
BRANCH  20  21
HETATM   21  C2  UNL     1      -4.542 -11.285  10.424  1.00  0.00     0.021 C 
HETATM   22  C1  UNL     1      -4.078 -10.297   9.384  1.00  0.00     0.022 C 
HETATM   23  C16 UNL     1      -3.252 -11.889  11.092  1.00  0.00     0.181 C 
HETATM   24  O3  UNL     1      -3.208 -10.785  11.949  1.00  0.00    -0.389 OA
HETATM   25  C17 UNL     1      -4.591 -10.720  11.795  1.00  0.00     0.181 C 
ENDBRANCH  20  21
ENDBRANCH  19  20
ENDBRANCH   1  19
BRANCH   2  26
HETATM   26  C6  UNL     1      -7.768  -9.662   9.611  1.00  0.00     0.147 A 
HETATM   27  N1  UNL     1      -8.016  -9.626  10.944  1.00  0.00    -0.271 N 
HETATM   28  N2  UNL     1      -7.602  -8.507  11.451  1.00  0.00    -0.225 N 
ATOM     29  H1  UNL     1      -8.465 -10.374  11.473  1.00  0.00     0.190 HD
HETATM   30  N3  UNL     1      -7.073  -7.773  10.482  1.00  0.00    -0.005 NA
ATOM     31  H2  UNL     1      -7.671  -8.236  12.432  1.00  0.00     0.205 HD
HETATM   32  N4  UNL     1      -7.179  -8.482   9.371  1.00  0.00    -0.266 N 
ATOM     33  H4  UNL     1      -6.856  -8.173   8.455  1.00  0.00     0.186 HD
ENDBRANCH   2  26
BRANCH   4  34
HETATM   34  C9  UNL     1     -10.211 -11.303   5.652  1.00  0.00     0.268 C 
BRANCH  34  35
HETATM   35  N5  UNL     1     -10.634 -12.549   5.054  1.00  0.00    -0.075 N 
ATOM     36  H53 UNL     1     -11.105 -13.153   5.727  1.00  0.00     0.274 HD
ATOM     37  H52 UNL     1     -11.408 -12.415   4.404  1.00  0.00     0.274 HD
ATOM     38  H51 UNL     1      -9.843 -13.017   4.611  1.00  0.00     0.274 HD
ENDBRANCH  34  35
ENDBRANCH   4  34
TORSDOF 8
ENDMDL
MODEL 3
REMARK VINA RESULT: -7.718451325      1.206      1.600
REMARK  8 active torsions:
REMARK  status: ('A' for Active; 'I' for Inactive)
REMARK    1  A    between atoms: C2_2  and  C3_3 
REMARK    2  A    between atoms: C3_3  and  O1_4 
REMARK    3  A    between atoms: O1_4  and  C4_5 
REMARK    4  A    between atoms: C5_6  and  C6_7 
REMARK    5  A    between atoms: C8_16  and  C9_17 
REMARK    6  A    between atoms: C9_17  and  N5_18 
REMARK    7  A    between atoms: C11_23  and  C12_24 
REMARK    8  A    between atoms: C15_30  and  N7_31 
ROOT
HETATM    1  C4  UNL     1      -7.453 -12.173   8.556  1.00  0.00     0.095 A 
HETATM    2  C5  UNL     1      -8.099 -10.960   8.539  1.00  0.00     0.045 A 
HETATM    3  C7  UNL     1      -9.030 -10.724   7.532  1.00  0.00     0.027 A 
HETATM    4  C8  UNL     1      -9.326 -11.644   6.575  1.00  0.00    -0.031 A 
HETATM    5  C10 UNL     1      -8.680 -12.846   6.615  1.00  0.00     0.025 A 
HETATM    6  C11 UNL     1      -7.727 -13.137   7.614  1.00  0.00     0.026 A 
ENDROOT
BRANCH   6   7
HETATM    7  C12 UNL     1      -7.259 -14.518   7.625  1.00  0.00     0.067 A 
HETATM    8  C13 UNL     1      -6.172 -14.882   6.870  1.00  0.00     0.106 A 
HETATM    9  C14 UNL     1      -5.637 -16.181   6.945  1.00  0.00     0.261 A 
HETATM   10  O2  UNL     1      -4.641 -16.508   6.250  1.00  0.00    -0.268 OA
HETATM   11  N6  UNL     1      -6.239 -17.031   7.785  1.00  0.00    -0.156 N 
HETATM   12  C15 UNL     1      -7.313 -16.661   8.529  1.00  0.00     0.679 A 
ATOM     13  H6  UNL     1      -5.881 -17.983   7.868  1.00  0.00     0.187 HD
HETATM   14  N8  UNL     1      -7.830 -15.431   8.464  1.00  0.00    -0.191 N 
ATOM     15  H8  UNL     1      -8.638 -15.178   9.033  1.00  0.00     0.184 HD
BRANCH  12  16
HETATM   16  N7  UNL     1      -7.806 -17.567   9.302  1.00  0.00    -0.234 N 
ATOM     17  H72 UNL     1      -8.715 -17.455   9.752  1.00  0.00     0.174 HD
ATOM     18  H71 UNL     1      -7.236 -18.403   9.435  1.00  0.00     0.174 HD
ENDBRANCH  12  16
ENDBRANCH   6   7
BRANCH   1  19
HETATM   19  O1  UNL     1      -6.491 -12.454   9.500  1.00  0.00    -0.348 OA
BRANCH  19  20
HETATM   20  C3  UNL     1      -5.131 -12.354   9.392  1.00  0.00     0.189 C 
BRANCH  20  21
HETATM   21  C2  UNL     1      -4.411 -11.265   8.737  1.00  0.00     0.021 C 
HETATM   22  C1  UNL     1      -4.427 -11.188   7.231  1.00  0.00     0.022 C 
HETATM   23  C16 UNL     1      -2.902 -11.341   9.176  1.00  0.00     0.181 C 
HETATM   24  O3  UNL     1      -2.835  -9.946   9.101  1.00  0.00    -0.389 OA
HETATM   25  C17 UNL     1      -4.198  -9.953   9.394  1.00  0.00     0.181 C 
ENDBRANCH  20  21
ENDBRANCH  19  20
ENDBRANCH   1  19
BRANCH   2  26
HETATM   26  C6  UNL     1      -7.961  -9.927   9.562  1.00  0.00     0.147 A 
HETATM   27  N1  UNL     1      -8.150 -10.126  10.890  1.00  0.00    -0.271 N 
HETATM   28  N2  UNL     1      -7.895  -9.041  11.551  1.00  0.00    -0.225 N 
ATOM     29  H1  UNL     1      -8.451 -11.006  11.310  1.00  0.00     0.190 HD
HETATM   30  N3  UNL     1      -7.532  -8.098  10.692  1.00  0.00    -0.005 NA
ATOM     31  H2  UNL     1      -7.961  -8.930  12.563  1.00  0.00     0.205 HD
HETATM   32  N4  UNL     1      -7.577  -8.646   9.490  1.00  0.00    -0.266 N 
ATOM     33  H4  UNL     1      -7.349  -8.158   8.624  1.00  0.00     0.186 HD
ENDBRANCH   2  26
BRANCH   4  34
HETATM   34  C9  UNL     1     -10.334 -11.377   5.487  1.00  0.00     0.268 C 
BRANCH  34  35
HETATM   35  N5  UNL     1     -10.996 -12.602   5.101  1.00  0.00    -0.075 N 
ATOM     36  H53 UNL     1     -10.329 -13.330   4.846  1.00  0.00     0.274 HD
ATOM     37  H52 UNL     1     -11.430 -13.066   5.898  1.00  0.00     0.274 HD
ATOM     38  H51 UNL     1     -11.667 -12.424   4.354  1.00  0.00     0.274 HD
ENDBRANCH  34  35
ENDBRANCH   4  34
TORSDOF 8
ENDMDL
MODEL 4
REMARK VINA RESULT: -7.693480187      3.309      6.588
REMARK  8 active torsions:
REMARK  status: ('A' for Active; 'I' for Inactive)
REMARK    1  A    between atoms: C2_2  and  C3_3 
REMARK    2  A    between atoms: C3_3  and  O1_4 
REMARK    3  A    between atoms: O1_4  and  C4_5 
REMARK    4  A    between atoms: C5_6  and  C6_7 
REMARK    5  A    between atoms: C8_16  and  C9_17 
REMARK    6  A    between atoms: C9_17  and  N5_18 
REMARK    7  A    between atoms: C11_23  and  C12_24 
REMARK    8  A    between atoms: C15_30  and  N7_31 
ROOT
HETATM    1  C4  UNL     1      -8.858 -15.518   9.393  1.00  0.00     0.095 A 
HETATM    2  C5  UNL     1      -9.388 -16.786   9.416  1.00  0.00     0.045 A 
HETATM    3  C7  UNL     1     -10.768 -16.920   9.527  1.00  0.00     0.027 A 
HETATM    4  C8  UNL     1     -11.606 -15.853   9.605  1.00  0.00    -0.031 A 
HETATM    5  C10 UNL     1     -11.061 -14.602   9.571  1.00  0.00     0.025 A 
HETATM    6  C11 UNL     1      -9.668 -14.409   9.460  1.00  0.00     0.026 A 
ENDROOT
BRANCH   6   7
HETATM    7  C12 UNL     1      -9.260 -13.024   9.260  1.00  0.00     0.067 A 
HETATM    8  C13 UNL     1      -9.603 -12.364   8.106  1.00  0.00     0.106 A 
HETATM    9  C14 UNL     1      -9.314 -10.998   7.935  1.00  0.00     0.261 A 
HETATM   10  O2  UNL     1      -9.631 -10.401   6.874  1.00  0.00    -0.268 OA
HETATM   11  N6  UNL     1      -8.694 -10.384   8.949  1.00  0.00    -0.156 N 
HETATM   12  C15 UNL     1      -8.359 -11.044  10.087  1.00  0.00     0.679 A 
ATOM     13  H6  UNL     1      -8.466  -9.393   8.864  1.00  0.00     0.187 HD
HETATM   14  N8  UNL     1      -8.627 -12.341  10.260  1.00  0.00    -0.191 N 
ATOM     15  H8  UNL     1      -8.365 -12.815  11.124  1.00  0.00     0.184 HD
BRANCH  12  16
HETATM   16  N7  UNL     1      -7.765 -10.346  10.994  1.00  0.00    -0.234 N 
ATOM     17  H72 UNL     1      -8.269  -9.954  11.789  1.00  0.00     0.174 HD
ATOM     18  H71 UNL     1      -6.762 -10.209  10.869  1.00  0.00     0.174 HD
ENDBRANCH  12  16
ENDBRANCH   6   7
BRANCH   1  19
HETATM   19  O1  UNL     1      -7.497 -15.316   9.327  1.00  0.00    -0.348 OA
BRANCH  19  20
HETATM   20  C3  UNL     1      -6.734 -14.975   8.245  1.00  0.00     0.189 C 
BRANCH  20  21
HETATM   21  C2  UNL     1      -5.562 -14.103   8.276  1.00  0.00     0.021 C 
HETATM   22  C1  UNL     1      -5.742 -12.635   7.979  1.00  0.00     0.022 C 
HETATM   23  C16 UNL     1      -4.513 -14.655   7.242  1.00  0.00     0.181 C 
HETATM   24  O3  UNL     1      -3.487 -14.210   8.082  1.00  0.00    -0.389 OA
HETATM   25  C17 UNL     1      -4.386 -14.393   9.132  1.00  0.00     0.181 C 
ENDBRANCH  20  21
ENDBRANCH  19  20
ENDBRANCH   1  19
BRANCH   2  26
HETATM   26  C6  UNL     1      -8.620 -18.014   9.231  1.00  0.00     0.147 A 
HETATM   27  N1  UNL     1      -9.161 -19.230   8.971  1.00  0.00    -0.271 N 
HETATM   28  N2  UNL     1      -8.227 -20.113   8.795  1.00  0.00    -0.225 N 
ATOM     29  H1  UNL     1     -10.162 -19.424   8.921  1.00  0.00     0.190 HD
HETATM   30  N3  UNL     1      -7.051 -19.517   8.932  1.00  0.00    -0.005 NA
ATOM     31  H2  UNL     1      -8.373 -21.100   8.586  1.00  0.00     0.205 HD
HETATM   32  N4  UNL     1      -7.301 -18.246   9.197  1.00  0.00    -0.266 N 
ATOM     33  H4  UNL     1      -6.585 -17.537   9.354  1.00  0.00     0.186 HD
ENDBRANCH   2  26
BRANCH   4  34
HETATM   34  C9  UNL     1     -13.100 -16.010   9.727  1.00  0.00     0.268 C 
BRANCH  34  35
HETATM   35  N5  UNL     1     -13.457 -16.408  11.070  1.00  0.00    -0.075 N 
ATOM     36  H53 UNL     1     -13.001 -17.278  11.342  1.00  0.00     0.274 HD
ATOM     37  H52 UNL     1     -13.042 -15.794  11.771  1.00  0.00     0.274 HD
ATOM     38  H51 UNL     1     -14.471 -16.463  11.167  1.00  0.00     0.274 HD
ENDBRANCH  34  35
ENDBRANCH   4  34
TORSDOF 8
ENDMDL
MODEL 5
REMARK VINA RESULT: -7.586998349      1.123      1.423
REMARK  8 active torsions:
REMARK  status: ('A' for Active; 'I' for Inactive)
REMARK    1  A    between atoms: C2_2  and  C3_3 
REMARK    2  A    between atoms: C3_3  and  O1_4 
REMARK    3  A    between atoms: O1_4  and  C4_5 
REMARK    4  A    between atoms: C5_6  and  C6_7 
REMARK    5  A    between atoms: C8_16  and  C9_17 
REMARK    6  A    between atoms: C9_17  and  N5_18 
REMARK    7  A    between atoms: C11_23  and  C12_24 
REMARK    8  A    between atoms: C15_30  and  N7_31 
ROOT
HETATM    1  C4  UNL     1      -7.627 -12.052   8.994  1.00  0.00     0.095 A 
HETATM    2  C5  UNL     1      -8.053 -10.767   8.760  1.00  0.00     0.045 A 
HETATM    3  C7  UNL     1      -8.884 -10.538   7.668  1.00  0.00     0.027 A 
HETATM    4  C8  UNL     1      -9.293 -11.531   6.835  1.00  0.00    -0.031 A 
HETATM    5  C10 UNL     1      -8.868 -12.802   7.091  1.00  0.00     0.025 A 
HETATM    6  C11 UNL     1      -8.023 -13.090   8.184  1.00  0.00     0.026 A 
ENDROOT
BRANCH   6   7
HETATM    7  C12 UNL     1      -7.802 -14.511   8.424  1.00  0.00     0.067 A 
HETATM    8  C13 UNL     1      -8.611 -15.198   9.294  1.00  0.00     0.106 A 
HETATM    9  C14 UNL     1      -8.486 -16.588   9.462  1.00  0.00     0.261 A 
HETATM   10  O2  UNL     1      -9.231 -17.210  10.262  1.00  0.00    -0.268 OA
HETATM   11  N6  UNL     1      -7.545 -17.199   8.732  1.00  0.00    -0.156 N 
HETATM   12  C15 UNL     1      -6.749 -16.512   7.873  1.00  0.00     0.679 A 
ATOM     13  H6  UNL     1      -7.422 -18.207   8.825  1.00  0.00     0.187 HD
HETATM   14  N8  UNL     1      -6.859 -15.191   7.707  1.00  0.00    -0.191 N 
ATOM     15  H8  UNL     1      -6.248 -14.698   7.055  1.00  0.00     0.184 HD
BRANCH  12  16
HETATM   16  N7  UNL     1      -5.879 -17.210   7.225  1.00  0.00    -0.234 N 
ATOM     17  H72 UNL     1      -5.875 -18.229   7.255  1.00  0.00     0.174 HD
ATOM     18  H71 UNL     1      -5.196 -16.682   6.681  1.00  0.00     0.174 HD
ENDBRANCH  12  16
ENDBRANCH   6   7
BRANCH   1  19
HETATM   19  O1  UNL     1      -6.769 -12.340  10.033  1.00  0.00    -0.348 OA
BRANCH  19  20
HETATM   20  C3  UNL     1      -5.467 -11.955  10.199  1.00  0.00     0.189 C 
BRANCH  20  21
HETATM   21  C2  UNL     1      -4.496 -11.769   9.124  1.00  0.00     0.021 C 
HETATM   22  C1  UNL     1      -4.135 -12.950   8.259  1.00  0.00     0.022 C 
HETATM   23  C16 UNL     1      -3.157 -11.239   9.760  1.00  0.00     0.181 C 
HETATM   24  O3  UNL     1      -2.925 -10.501   8.595  1.00  0.00    -0.389 OA
HETATM   25  C17 UNL     1      -4.310 -10.461   8.447  1.00  0.00     0.181 C 
ENDBRANCH  20  21
ENDBRANCH  19  20
ENDBRANCH   1  19
BRANCH   2  26
HETATM   26  C6  UNL     1      -7.782  -9.626   9.631  1.00  0.00     0.147 A 
HETATM   27  N1  UNL     1      -8.059  -9.587  10.958  1.00  0.00    -0.271 N 
HETATM   28  N2  UNL     1      -7.648  -8.470  11.472  1.00  0.00    -0.225 N 
ATOM     29  H1  UNL     1      -8.525 -10.331  11.478  1.00  0.00     0.190 HD
HETATM   30  N3  UNL     1      -7.092  -7.742  10.514  1.00  0.00    -0.005 NA
ATOM     31  H2  UNL     1      -7.737  -8.197  12.451  1.00  0.00     0.205 HD
HETATM   32  N4  UNL     1      -7.179  -8.452   9.402  1.00  0.00    -0.266 N 
ATOM     33  H4  UNL     1      -6.834  -8.146   8.493  1.00  0.00     0.186 HD
ENDBRANCH   2  26
BRANCH   4  34
HETATM   34  C9  UNL     1     -10.192 -11.271   5.654  1.00  0.00     0.268 C 
BRANCH  34  35
HETATM   35  N5  UNL     1     -10.696 -12.516   5.120  1.00  0.00    -0.075 N 
ATOM     36  H53 UNL     1      -9.946 -13.109   4.766  1.00  0.00     0.274 HD
ATOM     37  H52 UNL     1     -11.042 -13.133   5.855  1.00  0.00     0.274 HD
ATOM     38  H51 UNL     1     -11.407 -12.337   4.410  1.00  0.00     0.274 HD
ENDBRANCH  34  35
ENDBRANCH   4  34
TORSDOF 8
ENDMDL
