MODEL 1
REMARK VINA RESULT: -6.919034548      0.000      0.000
REMARK  13 active torsions:
REMARK  status: ('A' for Active; 'I' for Inactive)
REMARK       I    between atoms: C2_2  and  N1_4 
REMARK    1  A    between atoms: N1_4  and  C3_6 
REMARK    2  A    between atoms: C4_9  and  N3_10 
REMARK    3  A    between atoms: C5_15  and  C6_16 
REMARK    4  A    between atoms: C7_19  and  C8_20 
REMARK    5  A    between atoms: C8_20  and  N5_21 
REMARK    6  A    between atoms: C8_20  and  C9_26 
REMARK    7  A    between atoms: N5_21  and  N6_23 
REMARK    8  A    between atoms: N10_34  and  C11_35 
REMARK    9  A    between atoms: C11_35  and  O4_36 
REMARK   10  A    between atoms: C11_35  and  C12_38 
REMARK   11  A    between atoms: C12_38  and  N11_39 
REMARK   12  A    between atoms: C12_38  and  C13_43 
REMARK   13  A    between atoms: C13_43  and  O5_44 
ROOT
HETATM    1  C8  UNL     1      26.452  17.180   5.674  1.00  0.00     0.095 C 
ENDROOT
BRANCH   1   2
HETATM    2  C7  UNL     1      26.685  17.074   4.232  1.00  0.00     0.073 A 
HETATM    3  C3  UNL     1      27.885  16.442   3.816  1.00  0.00     0.138 A 
HETATM    4  N2  UNL     1      28.077  16.272   2.518  1.00  0.00    -0.176 N 
HETATM    5  C4  UNL     1      27.182  16.677   1.570  1.00  0.00     0.678 A 
ATOM      6  H2  UNL     1      28.936  15.817   2.210  1.00  0.00     0.186 HD
HETATM    7  N4  UNL     1      26.089  17.262   1.999  1.00  0.00    -0.184 N 
HETATM    8  C5  UNL     1      25.760  17.501   3.297  1.00  0.00     0.141 A 
ATOM      9  H4  UNL     1      25.421  17.567   1.290  1.00  0.00     0.184 HD
BRANCH   3  10
HETATM   10  N1  UNL     1      28.852  16.090   4.752  1.00  0.00    -0.312 N 
HETATM   11  C2  UNL     1      30.238  16.274   4.589  1.00  0.00     0.219 C 
HETATM   12  C1  UNL     1      31.162  15.883   5.743  1.00  0.00     0.117 C 
HETATM   13  O1  UNL     1      30.855  16.723   3.616  1.00  0.00    -0.274 OA
ATOM     14  H1  UNL     1      28.532  15.666   5.624  1.00  0.00     0.170 HD
ENDBRANCH   3  10
BRANCH   5  15
HETATM   15  N3  UNL     1      27.454  16.468   0.319  1.00  0.00    -0.234 N 
ATOM     16  H32 UNL     1      27.617  15.546  -0.086  1.00  0.00     0.174 HD
ATOM     17  H31 UNL     1      27.511  17.266  -0.315  1.00  0.00     0.174 HD
ENDBRANCH   5  15
BRANCH   8  18
HETATM   18  C6  UNL     1      24.551  18.193   3.605  1.00  0.00     0.228 C 
HETATM   19  O2  UNL     1      23.433  17.828   3.920  1.00  0.00    -0.643 OA
HETATM   20  O3  UNL     1      24.655  19.628   3.533  1.00  0.00    -0.643 OA
ENDBRANCH   8  18
ENDBRANCH   1   2
BRANCH   1  21
HETATM   21  N5  UNL     1      25.254  16.508   6.131  1.00  0.00    -0.304 N 
ATOM     22  H5  UNL     1      24.328  16.929   6.054  1.00  0.00     0.186 HD
BRANCH  21  23
HETATM   23  N6  UNL     1      25.455  15.268   6.675  1.00  0.00    -0.345 N 
ATOM     24  H62 UNL     1      24.787  14.855   7.326  1.00  0.00     0.176 HD
ATOM     25  H61 UNL     1      26.313  14.801   6.381  1.00  0.00     0.176 HD
ENDBRANCH  21  23
ENDBRANCH   1  21
BRANCH   1  26
HETATM   26  C9  UNL     1      26.776  18.448   6.311  1.00  0.00     0.115 A 
HETATM   27  N7  UNL     1      26.755  19.672   5.747  1.00  0.00    -0.281 N 
HETATM   28  N8  UNL     1      27.119  20.611   6.600  1.00  0.00    -0.239 N 
ATOM     29  H7  UNL     1      26.490  19.851   4.779  1.00  0.00     0.188 HD
HETATM   30  N9  UNL     1      27.385  19.980   7.753  1.00  0.00    -0.267 N 
ATOM     31  H8  UNL     1      27.185  21.613   6.419  1.00  0.00     0.208 HD
HETATM   32  C10 UNL     1      27.181  18.661   7.594  1.00  0.00     0.134 A 
HETATM   33  C15 UNL     1      27.804  20.424   9.066  1.00  0.00     0.167 C 
HETATM   34  S1  UNL     1      27.523  17.614   9.048  1.00  0.00    -0.017 SA
HETATM   35  N10 UNL     1      28.971  18.345   9.771  1.00  0.00    -0.222 NA
HETATM   36  C14 UNL     1      29.054  19.737   9.472  1.00  0.00     0.128 C 
BRANCH  35  37
HETATM   37  C11 UNL     1      29.138  18.074  11.149  1.00  0.00     0.236 C 
BRANCH  37  38
HETATM   38  O4  UNL     1      30.025  16.991  11.367  1.00  0.00    -0.378 OA
ATOM     39  H4  UNL     1      30.261  16.909  12.284  1.00  0.00     0.211 HD
ENDBRANCH  37  38
BRANCH  37  40
HETATM   40  C12 UNL     1      27.868  17.872  11.920  1.00  0.00     0.250 C 
BRANCH  40  41
HETATM   41  N11 UNL     1      27.583  16.467  12.182  1.00  0.00    -0.069 N 
ATOM     42 3H11 UNL     1      28.057  15.866  11.508  1.00  0.00     0.275 HD
ATOM     43 2H11 UNL     1      28.046  16.154  13.036  1.00  0.00     0.275 HD
ATOM     44 1H11 UNL     1      26.584  16.264  12.213  1.00  0.00     0.275 HD
ENDBRANCH  40  41
BRANCH  40  45
HETATM   45  C13 UNL     1      27.948  18.524  13.300  1.00  0.00     0.200 C 
BRANCH  45  46
HETATM   46  O5  UNL     1      28.741  17.756  14.135  1.00  0.00    -0.399 OA
ATOM     47  H5  UNL     1      28.560  17.977  15.042  1.00  0.00     0.209 HD
ENDBRANCH  45  46
ENDBRANCH  40  45
ENDBRANCH  37  40
ENDBRANCH  35  37
ENDBRANCH   1  26
TORSDOF 13
ENDMDL
MODEL 2
REMARK VINA RESULT: -6.876671530      2.570      3.101
REMARK  13 active torsions:
REMARK  status: ('A' for Active; 'I' for Inactive)
REMARK       I    between atoms: C2_2  and  N1_4 
REMARK    1  A    between atoms: N1_4  and  C3_6 
REMARK    2  A    between atoms: C4_9  and  N3_10 
REMARK    3  A    between atoms: C5_15  and  C6_16 
REMARK    4  A    between atoms: C7_19  and  C8_20 
REMARK    5  A    between atoms: C8_20  and  N5_21 
REMARK    6  A    between atoms: C8_20  and  C9_26 
REMARK    7  A    between atoms: N5_21  and  N6_23 
REMARK    8  A    between atoms: N10_34  and  C11_35 
REMARK    9  A    between atoms: C11_35  and  O4_36 
REMARK   10  A    between atoms: C11_35  and  C12_38 
REMARK   11  A    between atoms: C12_38  and  N11_39 
REMARK   12  A    between atoms: C12_38  and  C13_43 
REMARK   13  A    between atoms: C13_43  and  O5_44 
ROOT
HETATM    1  C8  UNL     1      26.258  17.237   5.748  1.00  0.00     0.095 C 
ENDROOT
BRANCH   1   2
HETATM    2  C7  UNL     1      26.550  17.048   4.326  1.00  0.00     0.073 A 
HETATM    3  C3  UNL     1      27.828  16.531   3.991  1.00  0.00     0.138 A 
HETATM    4  N2  UNL     1      28.082  16.286   2.715  1.00  0.00    -0.176 N 
HETATM    5  C4  UNL     1      27.178  16.510   1.716  1.00  0.00     0.678 A 
ATOM      6  H2  UNL     1      28.998  15.913   2.466  1.00  0.00     0.186 HD
HETATM    7  N4  UNL     1      26.012  16.993   2.070  1.00  0.00    -0.184 N 
HETATM    8  C5  UNL     1      25.614  17.291   3.337  1.00  0.00     0.141 A 
ATOM      9  H4  UNL     1      25.338  17.162   1.324  1.00  0.00     0.184 HD
BRANCH   3  10
HETATM   10  N1  UNL     1      28.797  16.368   4.975  1.00  0.00    -0.312 N 
HETATM   11  C2  UNL     1      30.177  16.229   4.734  1.00  0.00     0.219 C 
HETATM   12  C1  UNL     1      31.115  16.116   5.937  1.00  0.00     0.117 C 
HETATM   13  O1  UNL     1      30.778  16.181   3.655  1.00  0.00    -0.274 OA
ATOM     14  H1  UNL     1      28.484  16.348   5.946  1.00  0.00     0.170 HD
ENDBRANCH   3  10
BRANCH   5  15
HETATM   15  N3  UNL     1      27.514  16.238   0.493  1.00  0.00    -0.234 N 
ATOM     16  H32 UNL     1      28.436  15.905   0.212  1.00  0.00     0.174 HD
ATOM     17  H31 UNL     1      26.823  16.360  -0.248  1.00  0.00     0.174 HD
ENDBRANCH   5  15
BRANCH   8  18
HETATM   18  C6  UNL     1      24.323  17.858   3.559  1.00  0.00     0.228 C 
HETATM   19  O2  UNL     1      23.287  17.424   4.028  1.00  0.00    -0.643 OA
HETATM   20  O3  UNL     1      24.202  19.233   3.147  1.00  0.00    -0.643 OA
ENDBRANCH   8  18
ENDBRANCH   1   2
BRANCH   1  21
HETATM   21  N5  UNL     1      25.324  16.274   6.293  1.00  0.00    -0.304 N 
ATOM     22  H5  UNL     1      24.315  16.422   6.277  1.00  0.00     0.186 HD
BRANCH  21  23
HETATM   23  N6  UNL     1      25.894  15.152   6.831  1.00  0.00    -0.345 N 
ATOM     24  H62 UNL     1      26.848  15.159   7.193  1.00  0.00     0.176 HD
ATOM     25  H61 UNL     1      25.298  14.326   6.840  1.00  0.00     0.176 HD
ENDBRANCH  21  23
ENDBRANCH   1  21
BRANCH   1  26
HETATM   26  C9  UNL     1      26.145  18.605   6.231  1.00  0.00     0.115 A 
HETATM   27  N7  UNL     1      25.085  19.428   6.110  1.00  0.00    -0.281 N 
HETATM   28  N8  UNL     1      25.318  20.611   6.645  1.00  0.00    -0.239 N 
ATOM     29  H7  UNL     1      24.208  19.167   5.658  1.00  0.00     0.188 HD
HETATM   30  N9  UNL     1      26.567  20.558   7.129  1.00  0.00    -0.267 N 
ATOM     31  H8  UNL     1      24.678  21.405   6.683  1.00  0.00     0.208 HD
HETATM   32  C10 UNL     1      27.086  19.343   6.885  1.00  0.00     0.134 A 
HETATM   33  C15 UNL     1      27.407  21.497   7.843  1.00  0.00     0.167 C 
HETATM   34  S1  UNL     1      28.804  19.075   7.438  1.00  0.00    -0.017 SA
HETATM   35  N10 UNL     1      29.609  20.619   7.093  1.00  0.00    -0.222 NA
HETATM   36  C14 UNL     1      28.684  21.705   7.119  1.00  0.00     0.128 C 
BRANCH  35  37
HETATM   37  C11 UNL     1      30.760  20.867   7.876  1.00  0.00     0.236 C 
BRANCH  37  38
HETATM   38  O4  UNL     1      30.975  19.844   8.832  1.00  0.00    -0.378 OA
ATOM     39  H4  UNL     1      31.548  20.133   9.533  1.00  0.00     0.211 HD
ENDBRANCH  37  38
BRANCH  37  40
HETATM   40  C12 UNL     1      30.810  22.214   8.532  1.00  0.00     0.250 C 
BRANCH  40  41
HETATM   41  N11 UNL     1      30.750  22.138   9.986  1.00  0.00    -0.069 N 
ATOM     42 3H11 UNL     1      30.749  21.167  10.301  1.00  0.00     0.275 HD
ATOM     43 2H11 UNL     1      31.627  22.447  10.405  1.00  0.00     0.275 HD
ATOM     44 1H11 UNL     1      29.959  22.649  10.378  1.00  0.00     0.275 HD
ENDBRANCH  40  41
BRANCH  40  45
HETATM   45  C13 UNL     1      32.125  22.931   8.228  1.00  0.00     0.200 C 
BRANCH  45  46
HETATM   46  O5  UNL     1      32.979  22.075   7.555  1.00  0.00    -0.399 OA
ATOM     47  H5  UNL     1      33.036  21.247   8.019  1.00  0.00     0.209 HD
ENDBRANCH  45  46
ENDBRANCH  40  45
ENDBRANCH  37  40
ENDBRANCH  35  37
ENDBRANCH   1  26
TORSDOF 13
ENDMDL
MODEL 3
REMARK VINA RESULT: -6.867697225      2.674      4.664
REMARK  13 active torsions:
REMARK  status: ('A' for Active; 'I' for Inactive)
REMARK       I    between atoms: C2_2  and  N1_4 
REMARK    1  A    between atoms: N1_4  and  C3_6 
REMARK    2  A    between atoms: C4_9  and  N3_10 
REMARK    3  A    between atoms: C5_15  and  C6_16 
REMARK    4  A    between atoms: C7_19  and  C8_20 
REMARK    5  A    between atoms: C8_20  and  N5_21 
REMARK    6  A    between atoms: C8_20  and  C9_26 
REMARK    7  A    between atoms: N5_21  and  N6_23 
REMARK    8  A    between atoms: N10_34  and  C11_35 
REMARK    9  A    between atoms: C11_35  and  O4_36 
REMARK   10  A    between atoms: C11_35  and  C12_38 
REMARK   11  A    between atoms: C12_38  and  N11_39 
REMARK   12  A    between atoms: C12_38  and  C13_43 
REMARK   13  A    between atoms: C13_43  and  O5_44 
ROOT
HETATM    1  C8  UNL     1      24.759  19.864   5.107  1.00  0.00     0.095 C 
ENDROOT
BRANCH   1   2
HETATM    2  C7  UNL     1      25.344  19.225   3.926  1.00  0.00     0.073 A 
HETATM    3  C3  UNL     1      26.131  20.040   3.072  1.00  0.00     0.138 A 
HETATM    4  N2  UNL     1      26.726  19.463   2.041  1.00  0.00    -0.176 N 
HETATM    5  C4  UNL     1      26.615  18.131   1.763  1.00  0.00     0.678 A 
ATOM      6  H2  UNL     1      27.295  20.041   1.423  1.00  0.00     0.186 HD
HETATM    7  N4  UNL     1      25.875  17.416   2.575  1.00  0.00    -0.184 N 
HETATM    8  C5  UNL     1      25.207  17.873   3.669  1.00  0.00     0.141 A 
ATOM      9  H4  UNL     1      25.790  16.421   2.366  1.00  0.00     0.184 HD
BRANCH   3  10
HETATM   10  N1  UNL     1      26.198  21.414   3.283  1.00  0.00    -0.312 N 
HETATM   11  C2  UNL     1      25.623  22.388   2.445  1.00  0.00     0.219 C 
HETATM   12  C1  UNL     1      25.741  23.857   2.854  1.00  0.00     0.117 C 
HETATM   13  O1  UNL     1      25.008  22.237   1.383  1.00  0.00    -0.274 OA
ATOM     14  H1  UNL     1      26.703  21.740   4.107  1.00  0.00     0.170 HD
ENDBRANCH   3  10
BRANCH   5  15
HETATM   15  N3  UNL     1      27.237  17.651   0.730  1.00  0.00    -0.234 N 
ATOM     16  H32 UNL     1      28.203  17.871   0.489  1.00  0.00     0.174 HD
ATOM     17  H31 UNL     1      26.741  17.011   0.109  1.00  0.00     0.174 HD
ENDBRANCH   5  15
BRANCH   8  18
HETATM   18  C6  UNL     1      24.399  16.977   4.431  1.00  0.00     0.228 C 
HETATM   19  O2  UNL     1      24.644  16.159   5.298  1.00  0.00    -0.643 OA
HETATM   20  O3  UNL     1      22.993  17.039   4.122  1.00  0.00    -0.643 OA
ENDBRANCH   8  18
ENDBRANCH   1   2
BRANCH   1  21
HETATM   21  N5  UNL     1      23.586  20.666   4.826  1.00  0.00    -0.304 N 
ATOM     22  H5  UNL     1      23.426  21.574   5.262  1.00  0.00     0.186 HD
BRANCH  21  23
HETATM   23  N6  UNL     1      22.708  20.115   3.932  1.00  0.00    -0.345 N 
ATOM     24  H62 UNL     1      23.031  19.596   3.116  1.00  0.00     0.176 HD
ATOM     25  H61 UNL     1      21.722  20.265   4.147  1.00  0.00     0.176 HD
ENDBRANCH  21  23
ENDBRANCH   1  21
BRANCH   1  26
HETATM   26  C9  UNL     1      25.678  20.378   6.111  1.00  0.00     0.115 A 
HETATM   27  N7  UNL     1      25.801  21.653   6.529  1.00  0.00    -0.281 N 
HETATM   28  N8  UNL     1      26.743  21.782   7.443  1.00  0.00    -0.239 N 
ATOM     29  H7  UNL     1      25.234  22.426   6.180  1.00  0.00     0.188 HD
HETATM   30  N9  UNL     1      27.250  20.554   7.627  1.00  0.00    -0.267 N 
ATOM     31  H8  UNL     1      27.029  22.641   7.914  1.00  0.00     0.208 HD
HETATM   32  C10 UNL     1      26.612  19.686   6.823  1.00  0.00     0.134 A 
HETATM   33  C15 UNL     1      28.277  20.012   8.491  1.00  0.00     0.167 C 
HETATM   34  S1  UNL     1      27.180  17.954   6.896  1.00  0.00    -0.017 SA
HETATM   35  N10 UNL     1      28.943  18.090   7.061  1.00  0.00    -0.222 NA
HETATM   36  C14 UNL     1      29.314  19.315   7.692  1.00  0.00     0.128 C 
BRANCH  35  37
HETATM   37  C11 UNL     1      29.564  16.965   7.653  1.00  0.00     0.236 C 
BRANCH  37  38
HETATM   38  O4  UNL     1      29.867  17.190   9.018  1.00  0.00    -0.378 OA
ATOM     39  H4  UNL     1      29.192  16.845   9.590  1.00  0.00     0.211 HD
ENDBRANCH  37  38
BRANCH  37  40
HETATM   40  C12 UNL     1      30.769  16.444   6.929  1.00  0.00     0.250 C 
BRANCH  40  41
HETATM   41  N11 UNL     1      31.083  15.064   7.274  1.00  0.00    -0.069 N 
ATOM     42 3H11 UNL     1      30.242  14.486   7.271  1.00  0.00     0.275 HD
ATOM     43 2H11 UNL     1      31.601  14.608   6.523  1.00  0.00     0.275 HD
ATOM     44 1H11 UNL     1      31.579  14.980   8.162  1.00  0.00     0.275 HD
ENDBRANCH  40  41
BRANCH  40  45
HETATM   45  C13 UNL     1      30.546  16.434   5.418  1.00  0.00     0.200 C 
BRANCH  45  46
HETATM   46  O5  UNL     1      31.718  16.781   4.769  1.00  0.00    -0.399 OA
ATOM     47  H5  UNL     1      31.515  17.240   3.962  1.00  0.00     0.209 HD
ENDBRANCH  45  46
ENDBRANCH  40  45
ENDBRANCH  37  40
ENDBRANCH  35  37
ENDBRANCH   1  26
TORSDOF 13
ENDMDL
MODEL 4
REMARK VINA RESULT: -6.855963430      2.876      7.293
REMARK  13 active torsions:
REMARK  status: ('A' for Active; 'I' for Inactive)
REMARK       I    between atoms: C2_2  and  N1_4 
REMARK    1  A    between atoms: N1_4  and  C3_6 
REMARK    2  A    between atoms: C4_9  and  N3_10 
REMARK    3  A    between atoms: C5_15  and  C6_16 
REMARK    4  A    between atoms: C7_19  and  C8_20 
REMARK    5  A    between atoms: C8_20  and  N5_21 
REMARK    6  A    between atoms: C8_20  and  C9_26 
REMARK    7  A    between atoms: N5_21  and  N6_23 
REMARK    8  A    between atoms: N10_34  and  C11_35 
REMARK    9  A    between atoms: C11_35  and  O4_36 
REMARK   10  A    between atoms: C11_35  and  C12_38 
REMARK   11  A    between atoms: C12_38  and  N11_39 
REMARK   12  A    between atoms: C12_38  and  C13_43 
REMARK   13  A    between atoms: C13_43  and  O5_44 
ROOT
HETATM    1  C8  UNL     1      27.930  17.354   7.064  1.00  0.00     0.095 C 
ENDROOT
BRANCH   1   2
HETATM    2  C7  UNL     1      28.950  18.366   7.345  1.00  0.00     0.073 A 
HETATM    3  C3  UNL     1      28.533  19.528   8.044  1.00  0.00     0.138 A 
HETATM    4  N2  UNL     1      29.455  20.419   8.369  1.00  0.00    -0.176 N 
HETATM    5  C4  UNL     1      30.778  20.272   8.063  1.00  0.00     0.678 A 
ATOM      6  H2  UNL     1      29.164  21.256   8.873  1.00  0.00     0.186 HD
HETATM    7  N4  UNL     1      31.118  19.187   7.412  1.00  0.00    -0.184 N 
HETATM    8  C5  UNL     1      30.282  18.190   7.014  1.00  0.00     0.141 A 
ATOM      9  H4  UNL     1      32.106  19.078   7.181  1.00  0.00     0.184 HD
BRANCH   3  10
HETATM   10  N1  UNL     1      27.183  19.744   8.300  1.00  0.00    -0.312 N 
HETATM   11  C2  UNL     1      26.611  20.990   8.617  1.00  0.00     0.219 C 
HETATM   12  C1  UNL     1      25.096  21.063   8.813  1.00  0.00     0.117 C 
HETATM   13  O1  UNL     1      27.164  22.085   8.769  1.00  0.00    -0.274 OA
ATOM     14  H1  UNL     1      26.559  18.937   8.254  1.00  0.00     0.170 HD
ENDBRANCH   3  10
BRANCH   5  15
HETATM   15  N3  UNL     1      31.613  21.198   8.425  1.00  0.00    -0.234 N 
ATOM     16  H32 UNL     1      31.483  22.191   8.237  1.00  0.00     0.174 HD
ATOM     17  H31 UNL     1      32.457  20.930   8.931  1.00  0.00     0.174 HD
ENDBRANCH   5  15
BRANCH   8  18
HETATM   18  C6  UNL     1      30.797  17.087   6.269  1.00  0.00     0.228 C 
HETATM   19  O2  UNL     1      31.102  16.936   5.101  1.00  0.00    -0.643 OA
HETATM   20  O3  UNL     1      31.006  15.893   7.046  1.00  0.00    -0.643 OA
ENDBRANCH   8  18
ENDBRANCH   1   2
BRANCH   1  21
HETATM   21  N5  UNL     1      28.068  16.142   7.844  1.00  0.00    -0.304 N 
ATOM     22  H5  UNL     1      28.932  15.897   8.326  1.00  0.00     0.186 HD
BRANCH  21  23
HETATM   23  N6  UNL     1      26.953  15.349   7.886  1.00  0.00    -0.345 N 
ATOM     24  H62 UNL     1      27.020  14.337   7.992  1.00  0.00     0.176 HD
ATOM     25  H61 UNL     1      26.066  15.845   7.804  1.00  0.00     0.176 HD
ENDBRANCH  21  23
ENDBRANCH   1  21
BRANCH   1  26
HETATM   26  C9  UNL     1      27.508  17.197   5.680  1.00  0.00     0.115 A 
HETATM   27  N7  UNL     1      28.022  16.356   4.761  1.00  0.00    -0.281 N 
HETATM   28  N8  UNL     1      27.419  16.477   3.593  1.00  0.00    -0.239 N 
ATOM     29  H7  UNL     1      28.785  15.705   4.946  1.00  0.00     0.188 HD
HETATM   30  N9  UNL     1      26.485  17.425   3.756  1.00  0.00    -0.267 N 
ATOM     31  H8  UNL     1      27.623  15.955   2.740  1.00  0.00     0.208 HD
HETATM   32  C10 UNL     1      26.526  17.875   5.022  1.00  0.00     0.134 A 
HETATM   33  C15 UNL     1      25.484  18.007   2.887  1.00  0.00     0.167 C 
HETATM   34  S1  UNL     1      25.348  19.203   5.442  1.00  0.00    -0.017 SA
HETATM   35  N10 UNL     1      25.325  20.228   3.993  1.00  0.00    -0.222 NA
HETATM   36  C14 UNL     1      25.646  19.479   2.821  1.00  0.00     0.128 C 
BRANCH  35  37
HETATM   37  C11 UNL     1      24.149  20.999   3.839  1.00  0.00     0.236 C 
BRANCH  37  38
HETATM   38  O4  UNL     1      24.279  21.954   2.801  1.00  0.00    -0.378 OA
ATOM     39  H4  UNL     1      24.142  21.564   1.946  1.00  0.00     0.211 HD
ENDBRANCH  37  38
BRANCH  37  40
HETATM   40  C12 UNL     1      23.644  21.653   5.090  1.00  0.00     0.250 C 
BRANCH  40  41
HETATM   41  N11 UNL     1      24.284  22.934   5.356  1.00  0.00    -0.069 N 
ATOM     42 3H11 UNL     1      25.218  22.967   4.948  1.00  0.00     0.275 HD
ATOM     43 2H11 UNL     1      23.842  23.681   4.820  1.00  0.00     0.275 HD
ATOM     44 1H11 UNL     1      24.311  23.165   6.349  1.00  0.00     0.275 HD
ENDBRANCH  40  41
BRANCH  40  45
HETATM   45  C13 UNL     1      22.152  21.968   4.987  1.00  0.00     0.200 C 
BRANCH  45  46
HETATM   46  O5  UNL     1      21.534  21.044   4.164  1.00  0.00    -0.399 OA
ATOM     47  H5  UNL     1      20.762  21.432   3.768  1.00  0.00     0.209 HD
ENDBRANCH  45  46
ENDBRANCH  40  45
ENDBRANCH  37  40
ENDBRANCH  35  37
ENDBRANCH   1  26
TORSDOF 13
ENDMDL
MODEL 5
REMARK VINA RESULT: -6.844702883      2.751      7.407
REMARK  13 active torsions:
REMARK  status: ('A' for Active; 'I' for Inactive)
REMARK       I    between atoms: C2_2  and  N1_4 
REMARK    1  A    between atoms: N1_4  and  C3_6 
REMARK    2  A    between atoms: C4_9  and  N3_10 
REMARK    3  A    between atoms: C5_15  and  C6_16 
REMARK    4  A    between atoms: C7_19  and  C8_20 
REMARK    5  A    between atoms: C8_20  and  N5_21 
REMARK    6  A    between atoms: C8_20  and  C9_26 
REMARK    7  A    between atoms: N5_21  and  N6_23 
REMARK    8  A    between atoms: N10_34  and  C11_35 
REMARK    9  A    between atoms: C11_35  and  O4_36 
REMARK   10  A    between atoms: C11_35  and  C12_38 
REMARK   11  A    between atoms: C12_38  and  N11_39 
REMARK   12  A    between atoms: C12_38  and  C13_43 
REMARK   13  A    between atoms: C13_43  and  O5_44 
ROOT
HETATM    1  C8  UNL     1      28.127  17.300   6.995  1.00  0.00     0.095 C 
ENDROOT
BRANCH   1   2
HETATM    2  C7  UNL     1      29.196  18.284   7.178  1.00  0.00     0.073 A 
HETATM    3  C3  UNL     1      28.835  19.534   7.743  1.00  0.00     0.138 A 
HETATM    4  N2  UNL     1      29.799  20.407   7.982  1.00  0.00    -0.176 N 
HETATM    5  C4  UNL     1      31.115  20.162   7.710  1.00  0.00     0.678 A 
ATOM      6  H2  UNL     1      29.548  21.308   8.390  1.00  0.00     0.186 HD
HETATM    7  N4  UNL     1      31.403  18.996   7.185  1.00  0.00    -0.184 N 
HETATM    8  C5  UNL     1      30.519  18.006   6.886  1.00  0.00     0.141 A 
ATOM      9  H4  UNL     1      32.386  18.814   6.979  1.00  0.00     0.184 HD
BRANCH   3  10
HETATM   10  N1  UNL     1      27.495  19.844   7.957  1.00  0.00    -0.312 N 
HETATM   11  C2  UNL     1      26.965  20.343   9.162  1.00  0.00     0.219 C 
HETATM   12  C1  UNL     1      25.476  20.687   9.211  1.00  0.00     0.117 C 
HETATM   13  O1  UNL     1      27.539  20.557  10.236  1.00  0.00    -0.274 OA
ATOM     14  H1  UNL     1      26.848  19.699   7.182  1.00  0.00     0.170 HD
ENDBRANCH   3  10
BRANCH   5  15
HETATM   15  N3  UNL     1      31.993  21.078   7.981  1.00  0.00    -0.234 N 
ATOM     16  H32 UNL     1      31.903  21.752   8.740  1.00  0.00     0.174 HD
ATOM     17  H31 UNL     1      32.834  21.140   7.407  1.00  0.00     0.174 HD
ENDBRANCH   5  15
BRANCH   8  18
HETATM   18  C6  UNL     1      30.982  16.805   6.270  1.00  0.00     0.228 C 
HETATM   19  O2  UNL     1      31.168  15.673   6.676  1.00  0.00    -0.643 OA
HETATM   20  O3  UNL     1      31.303  16.942   4.872  1.00  0.00    -0.643 OA
ENDBRANCH   8  18
ENDBRANCH   1   2
BRANCH   1  21
HETATM   21  N5  UNL     1      28.277  16.106   7.801  1.00  0.00    -0.304 N 
ATOM     22  H5  UNL     1      29.150  15.870   8.272  1.00  0.00     0.186 HD
BRANCH  21  23
HETATM   23  N6  UNL     1      27.161  15.318   7.883  1.00  0.00    -0.345 N 
ATOM     24  H62 UNL     1      26.383  15.555   8.499  1.00  0.00     0.176 HD
ATOM     25  H61 UNL     1      27.172  14.489   7.289  1.00  0.00     0.176 HD
ENDBRANCH  21  23
ENDBRANCH   1  21
BRANCH   1  26
HETATM   26  C9  UNL     1      27.610  17.119   5.647  1.00  0.00     0.115 A 
HETATM   27  N7  UNL     1      28.136  16.360   4.666  1.00  0.00    -0.281 N 
HETATM   28  N8  UNL     1      27.426  16.430   3.556  1.00  0.00    -0.239 N 
ATOM     29  H7  UNL     1      28.981  15.799   4.770  1.00  0.00     0.188 HD
HETATM   30  N9  UNL     1      26.407  17.260   3.822  1.00  0.00    -0.267 N 
ATOM     31  H8  UNL     1      27.614  15.951   2.675  1.00  0.00     0.208 HD
HETATM   32  C10 UNL     1      26.503  17.690   5.091  1.00  0.00     0.134 A 
HETATM   33  C15 UNL     1      25.275  17.737   3.054  1.00  0.00     0.167 C 
HETATM   34  S1  UNL     1      25.221  18.864   5.644  1.00  0.00    -0.017 SA
HETATM   35  N10 UNL     1      24.958  19.905   4.229  1.00  0.00    -0.222 NA
HETATM   36  C14 UNL     1      25.262  19.219   3.015  1.00  0.00     0.128 C 
BRANCH  35  37
HETATM   37  C11 UNL     1      23.693  20.536   4.195  1.00  0.00     0.236 C 
BRANCH  37  38
HETATM   38  O4  UNL     1      22.669  19.640   3.799  1.00  0.00    -0.378 OA
ATOM     39  H4  UNL     1      21.807  20.028   3.892  1.00  0.00     0.211 HD
ENDBRANCH  37  38
BRANCH  37  40
HETATM   40  C12 UNL     1      23.627  21.795   3.383  1.00  0.00     0.250 C 
BRANCH  40  41
HETATM   41  N11 UNL     1      22.538  22.674   3.789  1.00  0.00    -0.069 N 
ATOM     42 3H11 UNL     1      21.664  22.156   3.876  1.00  0.00     0.275 HD
ATOM     43 2H11 UNL     1      22.652  22.972   4.758  1.00  0.00     0.275 HD
ATOM     44 1H11 UNL     1      22.426  23.478   3.172  1.00  0.00     0.275 HD
ENDBRANCH  40  41
BRANCH  40  45
HETATM   45  C13 UNL     1      24.896  22.631   3.554  1.00  0.00     0.200 C 
BRANCH  45  46
HETATM   46  O5  UNL     1      24.976  23.571   2.542  1.00  0.00    -0.399 OA
ATOM     47  H5  UNL     1      24.440  23.298   1.805  1.00  0.00     0.209 HD
ENDBRANCH  45  46
ENDBRANCH  40  45
ENDBRANCH  37  40
ENDBRANCH  35  37
ENDBRANCH   1  26
TORSDOF 13
ENDMDL
