MODEL 1
REMARK VINA RESULT: -4.634614121      0.000      0.000
REMARK  2 active torsions:
REMARK  status: ('A' for Active; 'I' for Inactive)
REMARK    1  A    between atoms: O1_1  and  C1_3 
REMARK    2  A    between atoms: C1_3  and  C2_5 
ROOT
HETATM    1  C2  UNL     1      15.661   2.743  16.746  1.00  0.00     0.162 C 
HETATM    2  C3  UNL     1      14.752   3.892  16.352  1.00  0.00     0.061 C 
HETATM    3  C4  UNL     1      13.799   2.974  17.103  1.00  0.00     0.171 C 
HETATM    4  O2  UNL     1      14.548   1.922  16.570  1.00  0.00    -0.382 OA
ENDROOT
BRANCH   1   5
HETATM    5  C1  UNL     1      16.809   2.481  15.820  1.00  0.00     0.218 C 
HETATM    6 BR1  UNL     1      17.155   3.963  14.647  1.00  0.00    -0.059 Br
BRANCH   5   7
HETATM    7  O1  UNL     1      16.486   1.357  15.041  1.00  0.00    -0.382 OA
ATOM      8  H1  UNL     1      16.020   0.733  15.586  1.00  0.00     0.211 HD
ENDBRANCH   5   7
ENDBRANCH   1   5
TORSDOF 2
ENDMDL
MODEL 2
REMARK VINA RESULT: -4.578680541      1.014      1.014
REMARK  2 active torsions:
REMARK  status: ('A' for Active; 'I' for Inactive)
REMARK    1  A    between atoms: O1_1  and  C1_3 
REMARK    2  A    between atoms: C1_3  and  C2_5 
ROOT
HETATM    1  C2  UNL     1      15.574   3.174  16.963  1.00  0.00     0.162 C 
HETATM    2  C3  UNL     1      14.380   4.081  16.727  1.00  0.00     0.061 C 
HETATM    3  C4  UNL     1      13.713   2.747  17.030  1.00  0.00     0.171 C 
HETATM    4  O2  UNL     1      14.807   2.165  16.383  1.00  0.00    -0.382 OA
ENDROOT
BRANCH   1   5
HETATM    5  C1  UNL     1      16.822   3.544  16.221  1.00  0.00     0.218 C 
HETATM    6 BR1  UNL     1      16.501   3.830  14.349  1.00  0.00    -0.059 Br
BRANCH   5   7
HETATM    7  O1  UNL     1      17.736   2.487  16.365  1.00  0.00    -0.382 OA
ATOM      8  H1  UNL     1      17.553   2.034  17.179  1.00  0.00     0.211 HD
ENDBRANCH   5   7
ENDBRANCH   1   5
TORSDOF 2
ENDMDL
MODEL 3
REMARK VINA RESULT: -4.533922270      2.124      2.990
REMARK  2 active torsions:
REMARK  status: ('A' for Active; 'I' for Inactive)
REMARK    1  A    between atoms: O1_1  and  C1_3 
REMARK    2  A    between atoms: C1_3  and  C2_5 
ROOT
HETATM    1  C2  UNL     1      16.199   2.829  15.921  1.00  0.00     0.162 C 
HETATM    2  C3  UNL     1      16.551   4.301  15.815  1.00  0.00     0.061 C 
HETATM    3  C4  UNL     1      17.901   3.632  15.597  1.00  0.00     0.171 C 
HETATM    4  O2  UNL     1      17.456   2.663  16.499  1.00  0.00    -0.382 OA
ENDROOT
BRANCH   1   5
HETATM    5  C1  UNL     1      15.033   2.507  16.807  1.00  0.00     0.218 C 
HETATM    6 BR1  UNL     1      14.820   3.782  18.227  1.00  0.00    -0.059 Br
BRANCH   5   7
HETATM    7  O1  UNL     1      15.259   1.239  17.370  1.00  0.00    -0.382 OA
ATOM      8  H1  UNL     1      15.255   0.593  16.674  1.00  0.00     0.211 HD
ENDBRANCH   5   7
ENDBRANCH   1   5
TORSDOF 2
ENDMDL
MODEL 4
REMARK VINA RESULT: -4.356861100      1.935      2.933
REMARK  2 active torsions:
REMARK  status: ('A' for Active; 'I' for Inactive)
REMARK    1  A    between atoms: O1_1  and  C1_3 
REMARK    2  A    between atoms: C1_3  and  C2_5 
ROOT
HETATM    1  C2  UNL     1      15.600   3.036  15.776  1.00  0.00     0.162 C 
HETATM    2  C3  UNL     1      17.002   3.515  16.104  1.00  0.00     0.061 C 
HETATM    3  C4  UNL     1      17.174   2.958  14.698  1.00  0.00     0.171 C 
HETATM    4  O2  UNL     1      16.215   2.009  15.062  1.00  0.00    -0.382 OA
ENDROOT
BRANCH   1   5
HETATM    5  C1  UNL     1      14.776   2.601  16.950  1.00  0.00     0.218 C 
HETATM    6 BR1  UNL     1      14.924   3.811  18.435  1.00  0.00    -0.059 Br
BRANCH   5   7
HETATM    7  O1  UNL     1      15.235   1.336  17.353  1.00  0.00    -0.382 OA
ATOM      8  H1  UNL     1      14.485   0.768  17.486  1.00  0.00     0.211 HD
ENDBRANCH   5   7
ENDBRANCH   1   5
TORSDOF 2
ENDMDL
MODEL 5
REMARK VINA RESULT: -4.323605929      1.085      1.101
REMARK  2 active torsions:
REMARK  status: ('A' for Active; 'I' for Inactive)
REMARK    1  A    between atoms: O1_1  and  C1_3 
REMARK    2  A    between atoms: C1_3  and  C2_5 
ROOT
HETATM    1  C2  UNL     1      16.364   3.264  16.579  1.00  0.00     0.162 C 
HETATM    2  C3  UNL     1      14.882   3.569  16.465  1.00  0.00     0.061 C 
HETATM    3  C4  UNL     1      15.064   3.421  17.969  1.00  0.00     0.171 C 
HETATM    4  O2  UNL     1      16.022   2.452  17.660  1.00  0.00    -0.382 OA
ENDROOT
BRANCH   1   5
HETATM    5  C1  UNL     1      16.969   2.555  15.405  1.00  0.00     0.218 C 
HETATM    6 BR1  UNL     1      16.776   3.547  13.772  1.00  0.00    -0.059 Br
BRANCH   5   7
HETATM    7  O1  UNL     1      16.311   1.321  15.263  1.00  0.00    -0.382 OA
ATOM      8  H1  UNL     1      15.399   1.433  15.503  1.00  0.00     0.211 HD
ENDBRANCH   5   7
ENDBRANCH   1   5
TORSDOF 2
ENDMDL
