MODEL 1
REMARK VINA RESULT: -9.575774132      0.000      0.000
REMARK  9 active torsions:
REMARK  status: ('A' for Active; 'I' for Inactive)
REMARK    1  A    between atoms: C4_4  and  N1_5 
REMARK    2  A    between atoms: N2_7  and  C5_9 
REMARK    3  A    between atoms: C6_10  and  O1_11 
REMARK    4  A    between atoms: C7_13  and  C8_14 
REMARK    5  A    between atoms: C8_14  and  O2_15 
REMARK    6  A    between atoms: C8_14  and  N3_17 
REMARK       I    between atoms: N3_17  and  C9_19 
REMARK       I    between atoms: C9_19  and  N5_23 
REMARK    7  A    between atoms: N5_23  and  C10_25 
REMARK    8  A    between atoms: C16_36  and  O3_37 
REMARK    9  A    between atoms: C25_47  and  S2_48 
ROOT
HETATM    1  C5  UNL     1     -24.538  33.383  -3.381  1.00  0.00     0.093 A 
HETATM    2  C6  UNL     1     -23.814  33.940  -4.458  1.00  0.00     0.112 A 
HETATM    3  C7  UNL     1     -23.324  35.250  -4.345  1.00  0.00     0.085 A 
HETATM    4  C16 UNL     1     -23.591  35.908  -3.167  1.00  0.00     0.094 A 
HETATM    5  C17 UNL     1     -24.306  35.361  -2.100  1.00  0.00     0.011 A 
HETATM    6  C18 UNL     1     -24.558  36.046  -0.933  1.00  0.00     0.015 A 
HETATM    7  C19 UNL     1     -25.265  35.486   0.106  1.00  0.00     0.001 A 
HETATM    8  C20 UNL     1     -25.740  34.197  -0.022  1.00  0.00     0.001 A 
HETATM    9  C21 UNL     1     -25.489  33.521  -1.179  1.00  0.00     0.015 A 
HETATM   10  C22 UNL     1     -24.779  34.070  -2.234  1.00  0.00     0.008 A 
ENDROOT
BRANCH   3  11
HETATM   11  C8  UNL     1     -22.580  35.846  -5.433  1.00  0.00     0.171 C 
BRANCH  11  12
HETATM   12  O2  UNL     1     -22.467  37.139  -5.349  1.00  0.00    -0.345 OA
ATOM     13  H2  UNL     1     -22.691  37.492  -4.496  1.00  0.00     0.219 HD
ENDBRANCH  11  12
BRANCH  11  14
HETATM   14  N3  UNL     1     -21.979  35.223  -6.539  1.00  0.00    -0.170 N 
HETATM   15  C9  UNL     1     -20.591  34.950  -6.531  1.00  0.00     0.679 C 
HETATM   16  N4  UNL     1     -20.059  34.381  -7.555  1.00  0.00    -0.234 N 
HETATM   17  N5  UNL     1     -19.788  35.281  -5.449  1.00  0.00    -0.170 N 
ATOM     18  H42 UNL     1     -20.649  34.138  -8.350  1.00  0.00     0.174 HD
ATOM     19  H41 UNL     1     -19.058  34.184  -7.549  1.00  0.00     0.174 HD
ATOM     20  H5  UNL     1     -19.564  36.255  -5.247  1.00  0.00     0.186 HD
ATOM     21  H3  UNL     1     -22.544  34.966  -7.349  1.00  0.00     0.186 HD
BRANCH  17  22
HETATM   22  C10 UNL     1     -19.321  34.317  -4.690  1.00  0.00     0.166 A 
HETATM   23  N6  UNL     1     -18.411  33.398  -4.993  1.00  0.00    -0.321 N 
HETATM   24  C11 UNL     1     -18.082  32.515  -4.077  1.00  0.00     0.124 A 
ATOM     25  H6  UNL     1     -17.977  33.379  -5.915  1.00  0.00     0.169 HD
HETATM   26  N7  UNL     1     -17.167  31.498  -4.210  1.00  0.00    -0.351 N 
HETATM   27  C15 UNL     1     -18.700  32.595  -2.863  1.00  0.00     0.052 A 
HETATM   28  C12 UNL     1     -16.891  30.642  -3.227  1.00  0.00     0.090 A 
ATOM     29  H7  UNL     1     -16.678  31.394  -5.099  1.00  0.00     0.166 HD
HETATM   30  C13 UNL     1     -17.493  30.692  -1.993  1.00  0.00     0.018 A 
HETATM   31  C14 UNL     1     -18.414  31.694  -1.820  1.00  0.00     0.024 A 
HETATM   32  S1  UNL     1     -19.732  33.938  -3.079  1.00  0.00    -0.050 SA
ENDBRANCH  17  22
ENDBRANCH  11  14
ENDBRANCH   3  11
BRANCH   2  33
HETATM   33  O1  UNL     1     -23.631  33.190  -5.535  1.00  0.00    -0.357 OA
ATOM     34  H1  UNL     1     -24.230  33.305  -6.263  1.00  0.00     0.217 HD
ENDBRANCH   2  33
BRANCH   4  35
HETATM   35  O3  UNL     1     -23.147  37.179  -2.986  1.00  0.00    -0.359 OA
ATOM     36  H3  UNL     1     -23.585  37.900  -3.424  1.00  0.00     0.217 HD
ENDBRANCH   4  35
BRANCH   1  37
HETATM   37  N2  UNL     1     -25.026  32.059  -3.509  1.00  0.00    -0.297 N 
HETATM   38  N1  UNL     1     -25.985  31.724  -4.277  1.00  0.00    -0.300 N 
ATOM     39  H1  UNL     1     -26.472  32.406  -4.859  1.00  0.00     0.187 HD
ATOM     40  H2  UNL     1     -24.581  31.329  -2.952  1.00  0.00     0.187 HD
BRANCH  38  41
HETATM   41  C4  UNL     1     -26.345  30.332  -4.277  1.00  0.00     0.048 A 
HETATM   42  C3  UNL     1     -26.611  29.673  -5.458  1.00  0.00     0.039 A 
HETATM   43  C2  UNL     1     -26.964  28.321  -5.499  1.00  0.00    -0.035 A 
HETATM   44  C1  UNL     1     -27.240  27.669  -6.803  1.00  0.00     0.050 C 
HETATM   45  C25 UNL     1     -27.056  27.602  -4.326  1.00  0.00     0.086 A 
HETATM   46  C24 UNL     1     -26.788  28.269  -3.147  1.00  0.00     0.029 A 
HETATM   47  C23 UNL     1     -26.439  29.603  -3.110  1.00  0.00     0.032 A 
BRANCH  45  48
HETATM   48  S2  UNL     1     -27.495  25.907  -4.313  1.00  0.00     0.138 S 
HETATM   49  O4  UNL     1     -27.162  25.338  -2.952  1.00  0.00    -0.591 OA
HETATM   50  O5  UNL     1     -26.702  25.107  -5.307  1.00  0.00    -0.591 OA
HETATM   51  O6  UNL     1     -29.125  25.697  -4.645  1.00  0.00    -0.591 OA
ENDBRANCH  45  48
ENDBRANCH  38  41
ENDBRANCH   1  37
TORSDOF 9
ENDMDL
MODEL 2
REMARK VINA RESULT: -9.301939878      1.089      1.282
REMARK  9 active torsions:
REMARK  status: ('A' for Active; 'I' for Inactive)
REMARK    1  A    between atoms: C4_4  and  N1_5 
REMARK    2  A    between atoms: N2_7  and  C5_9 
REMARK    3  A    between atoms: C6_10  and  O1_11 
REMARK    4  A    between atoms: C7_13  and  C8_14 
REMARK    5  A    between atoms: C8_14  and  O2_15 
REMARK    6  A    between atoms: C8_14  and  N3_17 
REMARK       I    between atoms: N3_17  and  C9_19 
REMARK       I    between atoms: C9_19  and  N5_23 
REMARK    7  A    between atoms: N5_23  and  C10_25 
REMARK    8  A    between atoms: C16_36  and  O3_37 
REMARK    9  A    between atoms: C25_47  and  S2_48 
ROOT
HETATM    1  C5  UNL     1     -25.000  33.438  -3.445  1.00  0.00     0.093 A 
HETATM    2  C6  UNL     1     -24.477  34.076  -4.591  1.00  0.00     0.112 A 
HETATM    3  C7  UNL     1     -24.077  35.418  -4.502  1.00  0.00     0.085 A 
HETATM    4  C16 UNL     1     -24.226  36.024  -3.276  1.00  0.00     0.094 A 
HETATM    5  C17 UNL     1     -24.742  35.398  -2.140  1.00  0.00     0.011 A 
HETATM    6  C18 UNL     1     -24.880  36.034  -0.928  1.00  0.00     0.015 A 
HETATM    7  C19 UNL     1     -25.391  35.395   0.179  1.00  0.00     0.001 A 
HETATM    8  C20 UNL     1     -25.781  34.075   0.074  1.00  0.00     0.001 A 
HETATM    9  C21 UNL     1     -25.643  33.449  -1.129  1.00  0.00     0.015 A 
HETATM   10  C22 UNL     1     -25.131  34.077  -2.253  1.00  0.00     0.008 A 
ENDROOT
BRANCH   3  11
HETATM   11  C8  UNL     1     -23.539  36.096  -5.660  1.00  0.00     0.171 C 
BRANCH  11  12
HETATM   12  O2  UNL     1     -23.525  37.392  -5.555  1.00  0.00    -0.345 OA
ATOM     13  H2  UNL     1     -22.704  37.793  -5.814  1.00  0.00     0.219 HD
ENDBRANCH  11  12
BRANCH  11  14
HETATM   14  N3  UNL     1     -23.042  35.548  -6.854  1.00  0.00    -0.170 N 
HETATM   15  C9  UNL     1     -21.647  35.518  -7.094  1.00  0.00     0.679 C 
HETATM   16  N4  UNL     1     -21.212  35.014  -8.193  1.00  0.00    -0.234 N 
HETATM   17  N5  UNL     1     -20.738  36.018  -6.173  1.00  0.00    -0.170 N 
ATOM     18  H42 UNL     1     -21.881  34.646  -8.870  1.00  0.00     0.174 HD
ATOM     19  H41 UNL     1     -20.206  34.992  -8.366  1.00  0.00     0.174 HD
ATOM     20  H5  UNL     1     -20.656  37.023  -6.017  1.00  0.00     0.186 HD
ATOM     21  H3  UNL     1     -23.686  35.170  -7.549  1.00  0.00     0.186 HD
BRANCH  17  22
HETATM   22  C10 UNL     1     -19.984  35.175  -5.507  1.00  0.00     0.166 A 
HETATM   23  N6  UNL     1     -20.221  34.611  -4.329  1.00  0.00    -0.321 N 
HETATM   24  C11 UNL     1     -19.325  33.787  -3.834  1.00  0.00     0.124 A 
ATOM     25  H6  UNL     1     -21.081  34.813  -3.818  1.00  0.00     0.169 HD
HETATM   26  N7  UNL     1     -19.400  33.115  -2.638  1.00  0.00    -0.351 N 
HETATM   27  C15 UNL     1     -18.197  33.559  -4.567  1.00  0.00     0.052 A 
HETATM   28  C12 UNL     1     -18.443  32.293  -2.210  1.00  0.00     0.090 A 
ATOM     29  H7  UNL     1     -20.224  33.252  -2.051  1.00  0.00     0.166 HD
HETATM   30  C13 UNL     1     -17.294  32.040  -2.919  1.00  0.00     0.018 A 
HETATM   31  C14 UNL     1     -17.181  32.692  -4.121  1.00  0.00     0.024 A 
HETATM   32  S1  UNL     1     -18.462  34.536  -5.941  1.00  0.00    -0.050 SA
ENDBRANCH  17  22
ENDBRANCH  11  14
ENDBRANCH   3  11
BRANCH   2  33
HETATM   33  O1  UNL     1     -24.390  33.368  -5.708  1.00  0.00    -0.357 OA
ATOM     34  H1  UNL     1     -25.041  32.692  -5.857  1.00  0.00     0.217 HD
ENDBRANCH   2  33
BRANCH   4  35
HETATM   35  O3  UNL     1     -23.858  37.323  -3.116  1.00  0.00    -0.359 OA
ATOM     36  H3  UNL     1     -23.361  37.582  -2.348  1.00  0.00     0.217 HD
ENDBRANCH   4  35
BRANCH   1  37
HETATM   37  N2  UNL     1     -25.399  32.083  -3.549  1.00  0.00    -0.297 N 
HETATM   38  N1  UNL     1     -26.394  31.684  -4.238  1.00  0.00    -0.300 N 
ATOM     39  H1  UNL     1     -26.977  32.333  -4.768  1.00  0.00     0.187 HD
ATOM     40  H2  UNL     1     -24.857  31.383  -3.042  1.00  0.00     0.187 HD
BRANCH  38  41
HETATM   41  C4  UNL     1     -26.650  30.270  -4.227  1.00  0.00     0.048 A 
HETATM   42  C3  UNL     1     -27.134  29.632  -5.350  1.00  0.00     0.039 A 
HETATM   43  C2  UNL     1     -27.396  28.259  -5.378  1.00  0.00    -0.035 A 
HETATM   44  C1  UNL     1     -27.916  27.632  -6.618  1.00  0.00     0.050 C 
HETATM   45  C25 UNL     1     -27.169  27.496  -4.252  1.00  0.00     0.086 A 
HETATM   46  C24 UNL     1     -26.686  28.142  -3.132  1.00  0.00     0.029 A 
HETATM   47  C23 UNL     1     -26.428  29.497  -3.107  1.00  0.00     0.032 A 
BRANCH  45  48
HETATM   48  S2  UNL     1     -27.479  25.773  -4.226  1.00  0.00     0.138 S 
HETATM   49  O4  UNL     1     -27.043  25.230  -2.884  1.00  0.00    -0.591 OA
HETATM   50  O5  UNL     1     -26.676  25.035  -5.259  1.00  0.00    -0.591 OA
HETATM   51  O6  UNL     1     -29.103  25.442  -4.484  1.00  0.00    -0.591 OA
ENDBRANCH  45  48
ENDBRANCH  38  41
ENDBRANCH   1  37
TORSDOF 9
ENDMDL
MODEL 3
REMARK VINA RESULT: -8.948132719      2.945      5.815
REMARK  9 active torsions:
REMARK  status: ('A' for Active; 'I' for Inactive)
REMARK    1  A    between atoms: C4_4  and  N1_5 
REMARK    2  A    between atoms: N2_7  and  C5_9 
REMARK    3  A    between atoms: C6_10  and  O1_11 
REMARK    4  A    between atoms: C7_13  and  C8_14 
REMARK    5  A    between atoms: C8_14  and  O2_15 
REMARK    6  A    between atoms: C8_14  and  N3_17 
REMARK       I    between atoms: N3_17  and  C9_19 
REMARK       I    between atoms: C9_19  and  N5_23 
REMARK    7  A    between atoms: N5_23  and  C10_25 
REMARK    8  A    between atoms: C16_36  and  O3_37 
REMARK    9  A    between atoms: C25_47  and  S2_48 
ROOT
HETATM    1  C5  UNL     1     -21.249  34.208  -6.689  1.00  0.00     0.093 A 
HETATM    2  C6  UNL     1     -20.182  33.581  -6.009  1.00  0.00     0.112 A 
HETATM    3  C7  UNL     1     -18.893  34.126  -6.111  1.00  0.00     0.085 A 
HETATM    4  C16 UNL     1     -18.763  35.257  -6.883  1.00  0.00     0.094 A 
HETATM    5  C17 UNL     1     -19.815  35.881  -7.558  1.00  0.00     0.011 A 
HETATM    6  C18 UNL     1     -19.652  37.013  -8.324  1.00  0.00     0.015 A 
HETATM    7  C19 UNL     1     -20.704  37.610  -8.978  1.00  0.00     0.001 A 
HETATM    8  C20 UNL     1     -21.965  37.060  -8.868  1.00  0.00     0.001 A 
HETATM    9  C21 UNL     1     -22.123  35.939  -8.108  1.00  0.00     0.015 A 
HETATM   10  C22 UNL     1     -21.074  35.325  -7.443  1.00  0.00     0.008 A 
ENDROOT
BRANCH   3  11
HETATM   11  C8  UNL     1     -17.782  33.504  -5.426  1.00  0.00     0.171 C 
BRANCH  11  12
HETATM   12  O2  UNL     1     -16.616  33.913  -5.831  1.00  0.00    -0.345 OA
ATOM     13  H2  UNL     1     -15.905  33.706  -5.235  1.00  0.00     0.219 HD
ENDBRANCH  11  12
BRANCH  11  14
HETATM   14  N3  UNL     1     -17.801  32.539  -4.406  1.00  0.00    -0.170 N 
HETATM   15  C9  UNL     1     -18.263  32.884  -3.113  1.00  0.00     0.679 C 
HETATM   16  N4  UNL     1     -18.271  31.987  -2.192  1.00  0.00    -0.234 N 
HETATM   17  N5  UNL     1     -18.709  34.163  -2.814  1.00  0.00    -0.170 N 
ATOM     18  H42 UNL     1     -17.943  31.046  -2.412  1.00  0.00     0.174 HD
ATOM     19  H41 UNL     1     -18.604  32.235  -1.260  1.00  0.00     0.174 HD
ATOM     20  H5  UNL     1     -18.051  34.940  -2.750  1.00  0.00     0.186 HD
ATOM     21  H3  UNL     1     -17.482  31.589  -4.596  1.00  0.00     0.186 HD
BRANCH  17  22
HETATM   22  C10 UNL     1     -19.991  34.356  -2.615  1.00  0.00     0.166 A 
HETATM   23  N6  UNL     1     -20.936  33.449  -2.393  1.00  0.00    -0.321 N 
HETATM   24  C11 UNL     1     -22.172  33.859  -2.217  1.00  0.00     0.124 A 
ATOM     25  H6  UNL     1     -20.707  32.456  -2.360  1.00  0.00     0.169 HD
HETATM   26  N7  UNL     1     -23.272  33.071  -1.978  1.00  0.00    -0.351 N 
HETATM   27  C15 UNL     1     -22.411  35.201  -2.273  1.00  0.00     0.052 A 
HETATM   28  C12 UNL     1     -24.495  33.570  -1.810  1.00  0.00     0.090 A 
ATOM     29  H7  UNL     1     -23.146  32.059  -1.928  1.00  0.00     0.166 HD
HETATM   30  C13 UNL     1     -24.775  34.914  -1.859  1.00  0.00     0.018 A 
HETATM   31  C14 UNL     1     -23.702  35.736  -2.097  1.00  0.00     0.024 A 
HETATM   32  S1  UNL     1     -20.853  35.828  -2.577  1.00  0.00    -0.050 SA
ENDBRANCH  17  22
ENDBRANCH  11  14
ENDBRANCH   3  11
BRANCH   2  33
HETATM   33  O1  UNL     1     -20.453  32.495  -5.300  1.00  0.00    -0.357 OA
ATOM     34  H1  UNL     1     -20.318  32.534  -4.360  1.00  0.00     0.217 HD
ENDBRANCH   2  33
BRANCH   4  35
HETATM   35  O3  UNL     1     -17.545  35.841  -7.027  1.00  0.00    -0.359 OA
ATOM     36  H3  UNL     1     -17.010  36.016  -6.261  1.00  0.00     0.217 HD
ENDBRANCH   4  35
BRANCH   1  37
HETATM   37  N2  UNL     1     -22.545  33.646  -6.576  1.00  0.00    -0.297 N 
HETATM   38  N1  UNL     1     -23.215  33.613  -5.493  1.00  0.00    -0.300 N 
ATOM     39  H1  UNL     1     -22.849  33.998  -4.622  1.00  0.00     0.187 HD
ATOM     40  H2  UNL     1     -22.967  33.244  -7.413  1.00  0.00     0.187 HD
BRANCH  38  41
HETATM   41  C4  UNL     1     -24.514  33.004  -5.567  1.00  0.00     0.048 A 
HETATM   42  C3  UNL     1     -24.650  31.666  -5.870  1.00  0.00     0.039 A 
HETATM   43  C2  UNL     1     -25.896  31.038  -5.951  1.00  0.00    -0.035 A 
HETATM   44  C1  UNL     1     -25.975  29.594  -6.283  1.00  0.00     0.050 C 
HETATM   45  C25 UNL     1     -27.045  31.766  -5.724  1.00  0.00     0.086 A 
HETATM   46  C24 UNL     1     -26.902  33.105  -5.421  1.00  0.00     0.029 A 
HETATM   47  C23 UNL     1     -25.670  33.722  -5.341  1.00  0.00     0.032 A 
BRANCH  45  48
HETATM   48  S2  UNL     1     -28.634  31.035  -5.813  1.00  0.00     0.138 S 
HETATM   49  O4  UNL     1     -29.664  32.091  -5.479  1.00  0.00    -0.591 OA
HETATM   50  O5  UNL     1     -28.814  29.939  -4.802  1.00  0.00    -0.591 OA
HETATM   51  O6  UNL     1     -28.930  30.402  -7.337  1.00  0.00    -0.591 OA
ENDBRANCH  45  48
ENDBRANCH  38  41
ENDBRANCH   1  37
TORSDOF 9
ENDMDL
MODEL 4
REMARK VINA RESULT: -8.947992276      1.617      2.096
REMARK  9 active torsions:
REMARK  status: ('A' for Active; 'I' for Inactive)
REMARK    1  A    between atoms: C4_4  and  N1_5 
REMARK    2  A    between atoms: N2_7  and  C5_9 
REMARK    3  A    between atoms: C6_10  and  O1_11 
REMARK    4  A    between atoms: C7_13  and  C8_14 
REMARK    5  A    between atoms: C8_14  and  O2_15 
REMARK    6  A    between atoms: C8_14  and  N3_17 
REMARK       I    between atoms: N3_17  and  C9_19 
REMARK       I    between atoms: C9_19  and  N5_23 
REMARK    7  A    between atoms: N5_23  and  C10_25 
REMARK    8  A    between atoms: C16_36  and  O3_37 
REMARK    9  A    between atoms: C25_47  and  S2_48 
ROOT
HETATM    1  C5  UNL     1     -25.808  33.798  -3.356  1.00  0.00     0.093 A 
HETATM    2  C6  UNL     1     -25.666  34.571  -4.530  1.00  0.00     0.112 A 
HETATM    3  C7  UNL     1     -25.464  35.954  -4.415  1.00  0.00     0.085 A 
HETATM    4  C16 UNL     1     -25.417  36.466  -3.139  1.00  0.00     0.094 A 
HETATM    5  C17 UNL     1     -25.557  35.706  -1.975  1.00  0.00     0.011 A 
HETATM    6  C18 UNL     1     -25.506  36.249  -0.712  1.00  0.00     0.015 A 
HETATM    7  C19 UNL     1     -25.646  35.479   0.420  1.00  0.00     0.001 A 
HETATM    8  C20 UNL     1     -25.845  34.120   0.289  1.00  0.00     0.001 A 
HETATM    9  C21 UNL     1     -25.895  33.585  -0.964  1.00  0.00     0.015 A 
HETATM   10  C22 UNL     1     -25.756  34.346  -2.114  1.00  0.00     0.008 A 
ENDROOT
BRANCH   3  11
HETATM   11  C8  UNL     1     -25.317  36.770  -5.600  1.00  0.00     0.171 C 
BRANCH  11  12
HETATM   12  O2  UNL     1     -26.035  37.854  -5.588  1.00  0.00    -0.345 OA
ATOM     13  H2  UNL     1     -26.372  38.104  -6.440  1.00  0.00     0.219 HD
ENDBRANCH  11  12
BRANCH  11  14
HETATM   14  N3  UNL     1     -24.518  36.547  -6.733  1.00  0.00    -0.170 N 
HETATM   15  C9  UNL     1     -23.116  36.727  -6.658  1.00  0.00     0.679 C 
HETATM   16  N4  UNL     1     -22.402  36.519  -7.707  1.00  0.00    -0.234 N 
HETATM   17  N5  UNL     1     -22.492  37.121  -5.483  1.00  0.00    -0.170 N 
ATOM     18  H42 UNL     1     -22.860  36.230  -8.571  1.00  0.00     0.174 HD
ATOM     19  H41 UNL     1     -21.391  36.649  -7.653  1.00  0.00     0.174 HD
ATOM     20  H5  UNL     1     -22.600  38.072  -5.132  1.00  0.00     0.186 HD
ATOM     21  H3  UNL     1     -24.947  36.254  -7.611  1.00  0.00     0.186 HD
BRANCH  17  22
HETATM   22  C10 UNL     1     -21.761  36.247  -4.832  1.00  0.00     0.166 A 
HETATM   23  N6  UNL     1     -20.800  35.461  -5.304  1.00  0.00    -0.321 N 
HETATM   24  C11 UNL     1     -20.186  34.650  -4.473  1.00  0.00     0.124 A 
ATOM     25  H6  UNL     1     -20.545  35.487  -6.291  1.00  0.00     0.169 HD
HETATM   26  N7  UNL     1     -19.175  33.772  -4.781  1.00  0.00    -0.351 N 
HETATM   27  C15 UNL     1     -20.575  34.664  -3.165  1.00  0.00     0.052 A 
HETATM   28  C12 UNL     1     -18.603  32.982  -3.873  1.00  0.00     0.090 A 
ATOM     29  H7  UNL     1     -18.847  33.722  -5.747  1.00  0.00     0.166 HD
HETATM   30  C13 UNL     1     -18.968  32.968  -2.549  1.00  0.00     0.018 A 
HETATM   31  C14 UNL     1     -19.976  33.832  -2.201  1.00  0.00     0.024 A 
HETATM   32  S1  UNL     1     -21.810  35.842  -3.175  1.00  0.00    -0.050 SA
ENDBRANCH  17  22
ENDBRANCH  11  14
ENDBRANCH   3  11
BRANCH   2  33
HETATM   33  O1  UNL     1     -25.732  33.944  -5.695  1.00  0.00    -0.357 OA
ATOM     34  H1  UNL     1     -25.683  34.470  -6.485  1.00  0.00     0.217 HD
ENDBRANCH   2  33
BRANCH   4  35
HETATM   35  O3  UNL     1     -25.224  37.798  -2.951  1.00  0.00    -0.359 OA
ATOM     36  H3  UNL     1     -24.374  38.117  -2.669  1.00  0.00     0.217 HD
ENDBRANCH   4  35
BRANCH   1  37
HETATM   37  N2  UNL     1     -26.011  32.402  -3.487  1.00  0.00    -0.297 N 
HETATM   38  N1  UNL     1     -27.077  31.876  -3.946  1.00  0.00    -0.300 N 
ATOM     39  H1  UNL     1     -27.867  32.443  -4.254  1.00  0.00     0.187 HD
ATOM     40  H2  UNL     1     -25.257  31.779  -3.196  1.00  0.00     0.187 HD
BRANCH  38  41
HETATM   41  C4  UNL     1     -27.104  30.441  -4.007  1.00  0.00     0.048 A 
HETATM   42  C3  UNL     1     -27.759  29.790  -5.031  1.00  0.00     0.039 A 
HETATM   43  C2  UNL     1     -27.808  28.396  -5.123  1.00  0.00    -0.035 A 
HETATM   44  C1  UNL     1     -28.531  27.756  -6.250  1.00  0.00     0.050 C 
HETATM   45  C25 UNL     1     -27.185  27.625  -4.165  1.00  0.00     0.086 A 
HETATM   46  C24 UNL     1     -26.532  28.283  -3.143  1.00  0.00     0.029 A 
HETATM   47  C23 UNL     1     -26.485  29.659  -3.055  1.00  0.00     0.032 A 
BRANCH  45  48
HETATM   48  S2  UNL     1     -27.213  25.875  -4.227  1.00  0.00     0.138 S 
HETATM   49  O4  UNL     1     -26.313  25.344  -3.134  1.00  0.00    -0.591 OA
HETATM   50  O5  UNL     1     -26.663  25.342  -5.520  1.00  0.00    -0.591 OA
HETATM   51  O6  UNL     1     -28.770  25.283  -4.033  1.00  0.00    -0.591 OA
ENDBRANCH  45  48
ENDBRANCH  38  41
ENDBRANCH   1  37
TORSDOF 9
ENDMDL
MODEL 5
REMARK VINA RESULT: -8.906747393      5.241     10.914
REMARK  9 active torsions:
REMARK  status: ('A' for Active; 'I' for Inactive)
REMARK    1  A    between atoms: C4_4  and  N1_5 
REMARK    2  A    between atoms: N2_7  and  C5_9 
REMARK    3  A    between atoms: C6_10  and  O1_11 
REMARK    4  A    between atoms: C7_13  and  C8_14 
REMARK    5  A    between atoms: C8_14  and  O2_15 
REMARK    6  A    between atoms: C8_14  and  N3_17 
REMARK       I    between atoms: N3_17  and  C9_19 
REMARK       I    between atoms: C9_19  and  N5_23 
REMARK    7  A    between atoms: N5_23  and  C10_25 
REMARK    8  A    between atoms: C16_36  and  O3_37 
REMARK    9  A    between atoms: C25_47  and  S2_48 
ROOT
HETATM    1  C5  UNL     1     -21.201  37.270  -7.262  1.00  0.00     0.093 A 
HETATM    2  C6  UNL     1     -22.371  37.686  -6.589  1.00  0.00     0.112 A 
HETATM    3  C7  UNL     1     -22.783  36.988  -5.444  1.00  0.00     0.085 A 
HETATM    4  C16 UNL     1     -21.999  35.928  -5.053  1.00  0.00     0.094 A 
HETATM    5  C17 UNL     1     -20.842  35.512  -5.715  1.00  0.00     0.011 A 
HETATM    6  C18 UNL     1     -20.078  34.446  -5.299  1.00  0.00     0.015 A 
HETATM    7  C19 UNL     1     -18.941  34.056  -5.968  1.00  0.00     0.001 A 
HETATM    8  C20 UNL     1     -18.550  34.753  -7.093  1.00  0.00     0.001 A 
HETATM    9  C21 UNL     1     -19.308  35.809  -7.503  1.00  0.00     0.015 A 
HETATM   10  C22 UNL     1     -20.456  36.215  -6.841  1.00  0.00     0.008 A 
ENDROOT
BRANCH   3  11
HETATM   11  C8  UNL     1     -23.978  37.391  -4.736  1.00  0.00     0.171 C 
BRANCH  11  12
HETATM   12  O2  UNL     1     -24.942  37.791  -5.512  1.00  0.00    -0.345 OA
ATOM     13  H2  UNL     1     -25.784  37.865  -5.076  1.00  0.00     0.219 HD
ENDBRANCH  11  12
BRANCH  11  14
HETATM   14  N3  UNL     1     -24.224  37.405  -3.353  1.00  0.00    -0.170 N 
HETATM   15  C9  UNL     1     -25.382  36.780  -2.833  1.00  0.00     0.679 C 
HETATM   16  N4  UNL     1     -25.590  36.805  -1.564  1.00  0.00    -0.234 N 
HETATM   17  N5  UNL     1     -26.299  36.140  -3.655  1.00  0.00    -0.170 N 
ATOM     18  H42 UNL     1     -24.917  37.275  -0.959  1.00  0.00     0.174 HD
ATOM     19  H41 UNL     1     -26.425  36.354  -1.189  1.00  0.00     0.174 HD
ATOM     20  H5  UNL     1     -26.907  36.679  -4.272  1.00  0.00     0.186 HD
ATOM     21  H3  UNL     1     -23.567  37.865  -2.723  1.00  0.00     0.186 HD
BRANCH  17  22
HETATM   22  C10 UNL     1     -26.369  34.830  -3.624  1.00  0.00     0.166 A 
HETATM   23  N6  UNL     1     -26.160  34.018  -2.595  1.00  0.00    -0.321 N 
HETATM   24  C11 UNL     1     -26.284  32.723  -2.781  1.00  0.00     0.124 A 
ATOM     25  H6  UNL     1     -25.909  34.391  -1.680  1.00  0.00     0.169 HD
HETATM   26  N7  UNL     1     -26.108  31.738  -1.839  1.00  0.00    -0.351 N 
HETATM   27  C15 UNL     1     -26.623  32.289  -4.029  1.00  0.00     0.052 A 
HETATM   28  C12 UNL     1     -26.255  30.443  -2.112  1.00  0.00     0.090 A 
ATOM     29  H7  UNL     1     -25.853  32.011  -0.889  1.00  0.00     0.166 HD
HETATM   30  C13 UNL     1     -26.594  29.968  -3.355  1.00  0.00     0.018 A 
HETATM   31  C14 UNL     1     -26.779  30.921  -4.325  1.00  0.00     0.024 A 
HETATM   32  S1  UNL     1     -26.751  33.755  -4.893  1.00  0.00    -0.050 SA
ENDBRANCH  17  22
ENDBRANCH  11  14
ENDBRANCH   3  11
BRANCH   2  33
HETATM   33  O1  UNL     1     -23.029  38.727  -7.078  1.00  0.00    -0.357 OA
ATOM     34  H1  UNL     1     -22.881  39.574  -6.675  1.00  0.00     0.217 HD
ENDBRANCH   2  33
BRANCH   4  35
HETATM   35  O3  UNL     1     -22.337  35.206  -3.953  1.00  0.00    -0.359 OA
ATOM     36  H3  UNL     1     -22.027  34.312  -3.860  1.00  0.00     0.217 HD
ENDBRANCH   4  35
BRANCH   1  37
HETATM   37  N2  UNL     1     -20.796  37.985  -8.416  1.00  0.00    -0.297 N 
HETATM   38  N1  UNL     1     -21.326  37.842  -9.566  1.00  0.00    -0.300 N 
ATOM     39  H1  UNL     1     -22.092  37.188  -9.728  1.00  0.00     0.187 HD
ATOM     40  H2  UNL     1     -20.033  38.655  -8.321  1.00  0.00     0.187 HD
BRANCH  38  41
HETATM   41  C4  UNL     1     -20.785  38.652 -10.622  1.00  0.00     0.048 A 
HETATM   42  C3  UNL     1     -19.489  39.119 -10.560  1.00  0.00     0.039 A 
HETATM   43  C2  UNL     1     -18.927  39.910 -11.566  1.00  0.00    -0.035 A 
HETATM   44  C1  UNL     1     -17.526  40.381 -11.440  1.00  0.00     0.050 C 
HETATM   45  C25 UNL     1     -19.681  40.248 -12.671  1.00  0.00     0.086 A 
HETATM   46  C24 UNL     1     -20.978  39.779 -12.726  1.00  0.00     0.029 A 
HETATM   47  C23 UNL     1     -21.528  38.997 -11.731  1.00  0.00     0.032 A 
BRANCH  45  48
HETATM   48  S2  UNL     1     -19.033  41.237 -13.963  1.00  0.00     0.138 S 
HETATM   49  O4  UNL     1     -19.880  41.024 -15.197  1.00  0.00    -0.591 OA
HETATM   50  O5  UNL     1     -17.635  40.838 -14.339  1.00  0.00    -0.591 OA
HETATM   51  O6  UNL     1     -19.023  42.860 -13.542  1.00  0.00    -0.591 OA
ENDBRANCH  45  48
ENDBRANCH  38  41
ENDBRANCH   1  37
TORSDOF 9
ENDMDL
