MODEL 1
REMARK VINA RESULT: -6.420916755      0.000      0.000
REMARK  1 active torsions:
REMARK  status: ('A' for Active; 'I' for Inactive)
REMARK    1  A    between atoms: N2_21  and  O3_22 
ROOT
HETATM    1  O1  UNL     1       5.268  52.049  -5.606  1.00  0.00    -0.270 OA
HETATM    2  C1  UNL     1       4.449  52.948  -5.894  1.00  0.00     0.252 C 
HETATM    3  C2  UNL     1       4.143  53.975  -4.888  1.00  0.00     0.179 C 
HETATM    4  S1  UNL     1       3.768  53.362  -3.273  1.00  0.00    -0.160 SA
HETATM    5  C3  UNL     1       3.204  51.669  -3.208  1.00  0.00     0.074 C 
HETATM    6  C4  UNL     1       2.028  51.581  -2.262  1.00  0.00     0.014 C 
HETATM    7  C5  UNL     1       2.004  50.298  -1.488  1.00  0.00     0.054 C 
HETATM    8  C6  UNL     1       1.530  49.118  -2.266  1.00  0.00     0.163 A 
HETATM    9  N1  UNL     1       2.306  47.907  -2.323  1.00  0.00    -0.332 N 
ATOM     10  H1  UNL     1       3.110  47.399  -2.692  1.00  0.00     0.164 HD
HETATM   11  C7  UNL     1       1.124  47.930  -1.482  1.00  0.00     0.258 A 
HETATM   12  O2  UNL     1       0.431  47.243  -0.696  1.00  0.00    -0.270 OA
HETATM   13  S2  UNL     1       0.433  49.553  -3.629  1.00  0.00    -0.127 SA
HETATM   14  C8  UNL     1       0.210  48.083  -4.667  1.00  0.00     0.087 C 
HETATM   15  C9  UNL     1       1.039  48.183  -5.942  1.00  0.00     0.084 C 
HETATM   16  S3  UNL     1       0.248  49.306  -7.087  1.00  0.00    -0.168 SA
HETATM   17  C10 UNL     1       1.407  50.395  -7.936  1.00  0.00     0.074 C 
HETATM   18  C11 UNL     1       0.796  51.788  -8.105  1.00  0.00     0.012 C 
HETATM   19  C12 UNL     1       1.863  52.738  -8.596  1.00  0.00     0.023 C 
HETATM   20  C13 UNL     1       2.526  53.451  -7.429  1.00  0.00     0.159 C 
HETATM   21  N2  UNL     1       3.858  52.927  -7.179  1.00  0.00    -0.228 N 
ENDROOT
BRANCH  21  22
HETATM   22  O3  UNL     1       4.513  52.408  -8.267  1.00  0.00    -0.285 OA
ATOM     23  H3  UNL     1       4.534  52.861  -9.101  1.00  0.00     0.245 HD
ENDBRANCH  21  22
TORSDOF 1
ENDMDL
MODEL 2
REMARK VINA RESULT: -6.202227731      1.274      1.325
REMARK  1 active torsions:
REMARK  status: ('A' for Active; 'I' for Inactive)
REMARK    1  A    between atoms: N2_21  and  O3_22 
ROOT
HETATM    1  O1  UNL     1       4.777  53.195  -4.858  1.00  0.00    -0.270 OA
HETATM    2  C1  UNL     1       3.811  53.542  -5.571  1.00  0.00     0.252 C 
HETATM    3  C2  UNL     1       2.766  54.391  -4.982  1.00  0.00     0.179 C 
HETATM    4  S1  UNL     1       2.148  53.851  -3.416  1.00  0.00    -0.160 SA
HETATM    5  C3  UNL     1       2.376  52.116  -3.061  1.00  0.00     0.074 C 
HETATM    6  C4  UNL     1       1.102  51.567  -2.460  1.00  0.00     0.014 C 
HETATM    7  C5  UNL     1       1.357  50.528  -1.412  1.00  0.00     0.054 C 
HETATM    8  C6  UNL     1       1.738  49.191  -1.950  1.00  0.00     0.163 A 
HETATM    9  N1  UNL     1       2.921  48.515  -1.488  1.00  0.00    -0.332 N 
ATOM     10  H1  UNL     1       3.937  48.427  -1.490  1.00  0.00     0.164 HD
HETATM   11  C7  UNL     1       1.631  48.048  -1.016  1.00  0.00     0.258 A 
HETATM   12  O2  UNL     1       1.070  47.199  -0.284  1.00  0.00    -0.270 OA
HETATM   13  S2  UNL     1       1.116  48.886  -3.614  1.00  0.00    -0.127 SA
HETATM   14  C8  UNL     1       1.920  47.392  -4.254  1.00  0.00     0.087 C 
HETATM   15  C9  UNL     1       3.016  47.746  -5.252  1.00  0.00     0.084 C 
HETATM   16  S3  UNL     1       2.279  48.210  -6.814  1.00  0.00    -0.168 SA
HETATM   17  C10 UNL     1       3.080  49.627  -7.590  1.00  0.00     0.074 C 
HETATM   18  C11 UNL     1       2.035  50.518  -8.267  1.00  0.00     0.012 C 
HETATM   19  C12 UNL     1       2.692  51.808  -8.697  1.00  0.00     0.023 C 
HETATM   20  C13 UNL     1       2.532  52.874  -7.626  1.00  0.00     0.159 C 
HETATM   21  N2  UNL     1       3.778  53.097  -6.914  1.00  0.00    -0.228 N 
ENDROOT
BRANCH  21  22
HETATM   22  O3  UNL     1       4.927  52.851  -7.621  1.00  0.00    -0.285 OA
ATOM     23  H3  UNL     1       5.713  53.369  -7.495  1.00  0.00     0.245 HD
ENDBRANCH  21  22
TORSDOF 1
ENDMDL
MODEL 3
REMARK VINA RESULT: -6.104461185      1.046      1.143
REMARK  1 active torsions:
REMARK  status: ('A' for Active; 'I' for Inactive)
REMARK    1  A    between atoms: N2_21  and  O3_22 
ROOT
HETATM    1  O1  UNL     1       5.319  51.279  -5.561  1.00  0.00    -0.270 OA
HETATM    2  C1  UNL     1       4.469  52.027  -6.089  1.00  0.00     0.252 C 
HETATM    3  C2  UNL     1       4.092  53.268  -5.397  1.00  0.00     0.179 C 
HETATM    4  S1  UNL     1       3.703  53.087  -3.681  1.00  0.00    -0.160 SA
HETATM    5  C3  UNL     1       3.211  51.447  -3.177  1.00  0.00     0.074 C 
HETATM    6  C4  UNL     1       2.017  51.554  -2.257  1.00  0.00     0.014 C 
HETATM    7  C5  UNL     1       2.030  50.523  -1.170  1.00  0.00     0.054 C 
HETATM    8  C6  UNL     1       1.628  49.157  -1.612  1.00  0.00     0.163 A 
HETATM    9  N1  UNL     1       2.458  48.014  -1.335  1.00  0.00    -0.332 N 
ATOM     10  H1  UNL     1       3.293  47.467  -1.544  1.00  0.00     0.164 HD
HETATM   11  C7  UNL     1       1.255  48.201  -0.546  1.00  0.00     0.258 A 
HETATM   12  O2  UNL     1       0.572  47.713   0.385  1.00  0.00    -0.270 OA
HETATM   13  S2  UNL     1       0.549  49.160  -3.056  1.00  0.00    -0.127 SA
HETATM   14  C8  UNL     1       0.417  47.459  -3.668  1.00  0.00     0.087 C 
HETATM   15  C9  UNL     1       1.274  47.258  -4.912  1.00  0.00     0.084 C 
HETATM   16  S3  UNL     1       0.465  47.997  -6.325  1.00  0.00    -0.168 SA
HETATM   17  C10 UNL     1       1.596  48.877  -7.419  1.00  0.00     0.074 C 
HETATM   18  C11 UNL     1       0.929  50.144  -7.960  1.00  0.00     0.012 C 
HETATM   19  C12 UNL     1       1.966  50.981  -8.672  1.00  0.00     0.023 C 
HETATM   20  C13 UNL     1       2.566  52.009  -7.728  1.00  0.00     0.159 C 
HETATM   21  N2  UNL     1       3.912  51.637  -7.330  1.00  0.00    -0.228 N 
ENDROOT
BRANCH  21  22
HETATM   22  O3  UNL     1       4.618  50.881  -8.231  1.00  0.00    -0.285 OA
ATOM     23  H3  UNL     1       4.321  50.020  -8.502  1.00  0.00     0.245 HD
ENDBRANCH  21  22
TORSDOF 1
ENDMDL
MODEL 4
REMARK VINA RESULT: -6.011404492      1.653      1.770
REMARK  1 active torsions:
REMARK  status: ('A' for Active; 'I' for Inactive)
REMARK    1  A    between atoms: N2_21  and  O3_22 
ROOT
HETATM    1  O1  UNL     1       4.878  53.151  -6.280  1.00  0.00    -0.270 OA
HETATM    2  C1  UNL     1       3.750  53.372  -6.772  1.00  0.00     0.252 C 
HETATM    3  C2  UNL     1       2.875  54.357  -6.121  1.00  0.00     0.179 C 
HETATM    4  S1  UNL     1       2.704  54.174  -4.370  1.00  0.00    -0.160 SA
HETATM    5  C3  UNL     1       3.061  52.545  -3.732  1.00  0.00     0.074 C 
HETATM    6  C4  UNL     1       2.004  52.173  -2.718  1.00  0.00     0.014 C 
HETATM    7  C5  UNL     1       2.551  51.368  -1.580  1.00  0.00     0.054 C 
HETATM    8  C6  UNL     1       2.811  49.936  -1.907  1.00  0.00     0.163 A 
HETATM    9  N1  UNL     1       4.091  49.336  -1.640  1.00  0.00    -0.332 N 
ATOM     10  H1  UNL     1       5.073  49.218  -1.890  1.00  0.00     0.164 HD
HETATM   11  C7  UNL     1       2.982  49.018  -0.760  1.00  0.00     0.258 A 
HETATM   12  O2  UNL     1       2.655  48.357   0.254  1.00  0.00    -0.270 OA
HETATM   13  S2  UNL     1       1.782  49.310  -3.249  1.00  0.00    -0.127 SA
HETATM   14  C8  UNL     1       2.429  47.692  -3.750  1.00  0.00     0.087 C 
HETATM   15  C9  UNL     1       3.215  47.797  -5.051  1.00  0.00     0.084 C 
HETATM   16  S3  UNL     1       2.083  47.947  -6.427  1.00  0.00    -0.168 SA
HETATM   17  C10 UNL     1       2.615  49.146  -7.664  1.00  0.00     0.074 C 
HETATM   18  C11 UNL     1       1.407  49.908  -8.215  1.00  0.00     0.012 C 
HETATM   19  C12 UNL     1       1.895  51.060  -9.061  1.00  0.00     0.023 C 
HETATM   20  C13 UNL     1       1.994  52.330  -8.233  1.00  0.00     0.159 C 
HETATM   21  N2  UNL     1       3.378  52.658  -7.935  1.00  0.00    -0.228 N 
ENDROOT
BRANCH  21  22
HETATM   22  O3  UNL     1       4.307  52.234  -8.851  1.00  0.00    -0.285 OA
ATOM     23  H3  UNL     1       4.112  52.197  -9.780  1.00  0.00     0.245 HD
ENDBRANCH  21  22
TORSDOF 1
ENDMDL
MODEL 5
REMARK VINA RESULT: -6.007178143      2.306      4.368
REMARK  1 active torsions:
REMARK  status: ('A' for Active; 'I' for Inactive)
REMARK    1  A    between atoms: N2_21  and  O3_22 
ROOT
HETATM    1  O1  UNL     1      -0.790  51.291  -7.518  1.00  0.00    -0.270 OA
HETATM    2  C1  UNL     1       0.152  50.858  -8.215  1.00  0.00     0.252 C 
HETATM    3  C2  UNL     1       0.256  49.409  -8.440  1.00  0.00     0.179 C 
HETATM    4  S1  UNL     1       0.115  48.407  -6.990  1.00  0.00    -0.160 SA
HETATM    5  C3  UNL     1       0.491  49.231  -5.451  1.00  0.00     0.074 C 
HETATM    6  C4  UNL     1       1.346  48.319  -4.603  1.00  0.00     0.014 C 
HETATM    7  C5  UNL     1       1.044  48.436  -3.140  1.00  0.00     0.054 C 
HETATM    8  C6  UNL     1       1.610  49.653  -2.490  1.00  0.00     0.163 A 
HETATM    9  N1  UNL     1       0.777  50.534  -1.715  1.00  0.00    -0.332 N 
ATOM     10  H1  UNL     1       0.065  51.264  -1.683  1.00  0.00     0.164 HD
HETATM   11  C7  UNL     1       1.678  49.640  -1.012  1.00  0.00     0.258 A 
HETATM   12  O2  UNL     1       2.065  49.286   0.127  1.00  0.00    -0.270 OA
HETATM   13  S2  UNL     1       3.074  50.294  -3.323  1.00  0.00    -0.127 SA
HETATM   14  C8  UNL     1       3.447  51.930  -2.635  1.00  0.00     0.087 C 
HETATM   15  C9  UNL     1       3.014  53.036  -3.589  1.00  0.00     0.084 C 
HETATM   16  S3  UNL     1       4.185  53.161  -4.935  1.00  0.00    -0.168 SA
HETATM   17  C10 UNL     1       3.405  53.418  -6.540  1.00  0.00     0.074 C 
HETATM   18  C11 UNL     1       4.158  52.640  -7.622  1.00  0.00     0.012 C 
HETATM   19  C12 UNL     1       3.355  52.674  -8.902  1.00  0.00     0.023 C 
HETATM   20  C13 UNL     1       2.461  51.450  -9.006  1.00  0.00     0.159 C 
HETATM   21  N2  UNL     1       1.071  51.790  -8.752  1.00  0.00    -0.228 N 
ENDROOT
BRANCH  21  22
HETATM   22  O3  UNL     1       0.700  53.073  -9.063  1.00  0.00    -0.285 OA
ATOM     23  H3  UNL     1       0.629  53.748  -8.398  1.00  0.00     0.245 HD
ENDBRANCH  21  22
TORSDOF 1
ENDMDL
