MODEL 1
REMARK VINA RESULT: -7.267139560      0.000      0.000
REMARK  2 active torsions:
REMARK  status: ('A' for Active; 'I' for Inactive)
REMARK    1  A    between atoms: N1_2  and  C2_4 
REMARK    2  A    between atoms: C4_10  and  C5_11 
ROOT
HETATM    1  C2  UNL     1       2.535  49.060  -0.642  1.00  0.00     0.682 A 
HETATM    2  N2  UNL     1       1.511  49.956  -0.854  1.00  0.00    -0.173 N 
ATOM      3  H2  UNL     1       0.559  49.898  -0.493  1.00  0.00     0.186 HD
HETATM    4  C3  UNL     1       2.021  50.918  -1.632  1.00  0.00     0.168 A 
HETATM    5  N3  UNL     1       1.743  52.069  -2.257  1.00  0.00    -0.323 N 
ATOM      6  H3  UNL     1       0.831  52.525  -2.232  1.00  0.00     0.169 HD
HETATM    7  C4  UNL     1       2.815  52.555  -2.927  1.00  0.00     0.138 A 
HETATM    8  N6  UNL     1       3.783  51.669  -2.702  1.00  0.00    -0.323 N 
ATOM      9  H6  UNL     1       4.731  51.739  -3.070  1.00  0.00     0.169 HD
HETATM   10  C11 UNL     1       3.325  50.650  -1.908  1.00  0.00     0.169 A 
HETATM   11  N7  UNL     1       3.618  49.502  -1.289  1.00  0.00    -0.169 N 
HETATM   12  C12 UNL     1       4.912  48.887  -1.342  1.00  0.00     0.177 C 
ENDROOT
BRANCH   7  13
HETATM   13  C5  UNL     1       2.847  53.795  -3.714  1.00  0.00     0.107 A 
HETATM   14  C6  UNL     1       3.543  54.916  -3.242  1.00  0.00     0.038 A 
HETATM   15  C7  UNL     1       4.309  55.022  -1.955  1.00  0.00     0.071 C 
HETATM   16  N4  UNL     1       3.381  55.865  -4.172  1.00  0.00    -0.338 N 
HETATM   17  C8  UNL     1       2.623  55.342  -5.161  1.00  0.00     0.157 A 
ATOM     18  H4  UNL     1       3.761  56.811  -4.139  1.00  0.00     0.168 HD
HETATM   19  S1  UNL     1       1.905  55.684  -6.666  1.00  0.00    -0.044 SA
HETATM   20  N5  UNL     1       2.275  54.078  -4.920  1.00  0.00    -0.295 N 
HETATM   21  C9  UNL     1       1.171  54.174  -6.942  1.00  0.00     0.070 A 
HETATM   22 BR1  UNL     1       0.108  53.605  -8.440  1.00  0.00    -0.041 Br
HETATM   23  C10 UNL     1       1.535  53.470  -5.819  1.00  0.00     0.126 A 
ENDBRANCH   7  13
BRANCH   1  24
HETATM   24  N1  UNL     1       2.341  48.012   0.080  1.00  0.00    -0.230 N 
HETATM   25  C1  UNL     1       1.184  47.195   0.093  1.00  0.00     0.165 C 
ATOM     26  H1  UNL     1       3.098  47.743   0.708  1.00  0.00     0.177 HD
ENDBRANCH   1  24
TORSDOF 2
ENDMDL
MODEL 2
REMARK VINA RESULT: -7.171663182      4.236      6.203
REMARK  2 active torsions:
REMARK  status: ('A' for Active; 'I' for Inactive)
REMARK    1  A    between atoms: N1_2  and  C2_4 
REMARK    2  A    between atoms: C4_10  and  C5_11 
ROOT
HETATM    1  C2  UNL     1       6.308  56.717  -2.494  1.00  0.00     0.682 A 
HETATM    2  N2  UNL     1       6.104  57.017  -3.822  1.00  0.00    -0.173 N 
ATOM      3  H2  UNL     1       6.608  57.705  -4.381  1.00  0.00     0.186 HD
HETATM    4  C3  UNL     1       5.108  56.222  -4.229  1.00  0.00     0.168 A 
HETATM    5  N3  UNL     1       4.345  55.887  -5.277  1.00  0.00    -0.323 N 
ATOM      6  H3  UNL     1       4.429  56.312  -6.201  1.00  0.00     0.169 HD
HETATM    7  C4  UNL     1       3.450  54.919  -4.967  1.00  0.00     0.138 A 
HETATM    8  N6  UNL     1       3.674  54.654  -3.681  1.00  0.00    -0.323 N 
ATOM      9  H6  UNL     1       3.162  53.962  -3.133  1.00  0.00     0.169 HD
HETATM   10  C11 UNL     1       4.689  55.438  -3.199  1.00  0.00     0.169 A 
HETATM   11  N7  UNL     1       5.442  55.762  -2.143  1.00  0.00    -0.169 N 
HETATM   12  C12 UNL     1       5.301  55.144  -0.856  1.00  0.00     0.177 C 
ENDROOT
BRANCH   7  13
HETATM   13  C5  UNL     1       2.469  54.328  -5.886  1.00  0.00     0.107 A 
HETATM   14  C6  UNL     1       1.695  55.148  -6.718  1.00  0.00     0.038 A 
HETATM   15  C7  UNL     1       1.739  56.647  -6.797  1.00  0.00     0.071 C 
HETATM   16  N4  UNL     1       0.912  54.321  -7.422  1.00  0.00    -0.338 N 
HETATM   17  C8  UNL     1       1.201  53.058  -7.034  1.00  0.00     0.157 A 
ATOM     18  H4  UNL     1       0.223  54.593  -8.123  1.00  0.00     0.168 HD
HETATM   19  S1  UNL     1       0.808  51.422  -7.286  1.00  0.00    -0.044 SA
HETATM   20  N5  UNL     1       2.148  53.019  -6.095  1.00  0.00    -0.295 N 
HETATM   21  C9  UNL     1       1.885  50.730  -6.166  1.00  0.00     0.070 A 
HETATM   22 BR1  UNL     1       2.159  48.874  -5.744  1.00  0.00    -0.041 Br
HETATM   23  C10 UNL     1       2.507  51.839  -5.644  1.00  0.00     0.126 A 
ENDBRANCH   7  13
BRANCH   1  24
HETATM   24  N1  UNL     1       7.218  57.333  -1.823  1.00  0.00    -0.230 N 
HETATM   25  C1  UNL     1       7.614  58.684  -1.975  1.00  0.00     0.165 C 
ATOM     26  H1  UNL     1       7.705  56.791  -1.108  1.00  0.00     0.177 HD
ENDBRANCH   1  24
TORSDOF 2
ENDMDL
MODEL 3
REMARK VINA RESULT: -7.094292336      2.338      3.097
REMARK  2 active torsions:
REMARK  status: ('A' for Active; 'I' for Inactive)
REMARK    1  A    between atoms: N1_2  and  C2_4 
REMARK    2  A    between atoms: C4_10  and  C5_11 
ROOT
HETATM    1  C2  UNL     1       2.530  49.061  -0.698  1.00  0.00     0.682 A 
HETATM    2  N2  UNL     1       1.514  49.949  -0.974  1.00  0.00    -0.173 N 
ATOM      3  H2  UNL     1       0.555  49.911  -0.629  1.00  0.00     0.186 HD
HETATM    4  C3  UNL     1       2.043  50.872  -1.786  1.00  0.00     0.168 A 
HETATM    5  N3  UNL     1       1.782  51.992  -2.472  1.00  0.00    -0.323 N 
ATOM      6  H3  UNL     1       0.871  52.451  -2.487  1.00  0.00     0.169 HD
HETATM    7  C4  UNL     1       2.869  52.442  -3.143  1.00  0.00     0.138 A 
HETATM    8  N6  UNL     1       3.829  51.564  -2.856  1.00  0.00    -0.323 N 
ATOM      9  H6  UNL     1       4.785  51.614  -3.207  1.00  0.00     0.169 HD
HETATM   10  C11 UNL     1       3.352  50.586  -2.022  1.00  0.00     0.169 A 
HETATM   11  N7  UNL     1       3.627  49.469  -1.343  1.00  0.00    -0.169 N 
HETATM   12  C12 UNL     1       4.920  48.847  -1.341  1.00  0.00     0.177 C 
ENDROOT
BRANCH   7  13
HETATM   13  C5  UNL     1       2.922  53.642  -3.987  1.00  0.00     0.107 A 
HETATM   14  C6  UNL     1       2.060  53.775  -5.084  1.00  0.00     0.038 A 
HETATM   15  C7  UNL     1       1.024  52.787  -5.538  1.00  0.00     0.071 C 
HETATM   16  N4  UNL     1       2.352  54.957  -5.639  1.00  0.00    -0.338 N 
HETATM   17  C8  UNL     1       3.345  55.515  -4.910  1.00  0.00     0.157 A 
ATOM     18  H4  UNL     1       1.907  55.363  -6.462  1.00  0.00     0.168 HD
HETATM   19  S1  UNL     1       4.349  56.882  -4.781  1.00  0.00    -0.044 SA
HETATM   20  N5  UNL     1       3.722  54.742  -3.891  1.00  0.00    -0.295 N 
HETATM   21  C9  UNL     1       5.233  56.415  -3.404  1.00  0.00     0.070 A 
HETATM   22 BR1  UNL     1       6.637  57.361  -2.493  1.00  0.00    -0.041 Br
HETATM   23  C10 UNL     1       4.683  55.188  -3.115  1.00  0.00     0.126 A 
ENDBRANCH   7  13
BRANCH   1  24
HETATM   24  N1  UNL     1       2.317  48.050   0.069  1.00  0.00    -0.230 N 
HETATM   25  C1  UNL     1       1.158  47.236   0.096  1.00  0.00     0.165 C 
ATOM     26  H1  UNL     1       3.059  47.810   0.727  1.00  0.00     0.177 HD
ENDBRANCH   1  24
TORSDOF 2
ENDMDL
MODEL 4
REMARK VINA RESULT: -6.625944771      3.587      6.051
REMARK  2 active torsions:
REMARK  status: ('A' for Active; 'I' for Inactive)
REMARK    1  A    between atoms: N1_2  and  C2_4 
REMARK    2  A    between atoms: C4_10  and  C5_11 
ROOT
HETATM    1  C2  UNL     1       4.754  56.459  -3.691  1.00  0.00     0.682 A 
HETATM    2  N2  UNL     1       5.032  55.860  -4.899  1.00  0.00    -0.173 N 
ATOM      3  H2  UNL     1       5.811  56.068  -5.523  1.00  0.00     0.186 HD
HETATM    4  C3  UNL     1       4.069  54.950  -5.087  1.00  0.00     0.168 A 
HETATM    5  N3  UNL     1       3.613  54.009  -5.924  1.00  0.00    -0.323 N 
ATOM      6  H3  UNL     1       4.060  53.769  -6.809  1.00  0.00     0.169 HD
HETATM    7  C4  UNL     1       2.490  53.414  -5.457  1.00  0.00     0.138 A 
HETATM    8  N6  UNL     1       2.251  54.014  -4.292  1.00  0.00    -0.323 N 
ATOM      9  H6  UNL     1       1.467  53.797  -3.677  1.00  0.00     0.169 HD
HETATM   10  C11 UNL     1       3.205  54.964  -4.036  1.00  0.00     0.169 A 
HETATM   11  N7  UNL     1       3.647  55.900  -3.192  1.00  0.00    -0.169 N 
HETATM   12  C12 UNL     1       2.996  56.213  -1.952  1.00  0.00     0.177 C 
ENDROOT
BRANCH   7  13
HETATM   13  C5  UNL     1       1.740  52.345  -6.129  1.00  0.00     0.107 A 
HETATM   14  C6  UNL     1       1.849  51.019  -5.690  1.00  0.00     0.038 A 
HETATM   15  C7  UNL     1       2.686  50.515  -4.550  1.00  0.00     0.071 C 
HETATM   16  N4  UNL     1       1.058  50.300  -6.496  1.00  0.00    -0.338 N 
HETATM   17  C8  UNL     1       0.495  51.153  -7.381  1.00  0.00     0.157 A 
ATOM     18  H4  UNL     1       0.908  49.292  -6.450  1.00  0.00     0.168 HD
HETATM   19  S1  UNL     1      -0.567  51.250  -8.706  1.00  0.00    -0.044 SA
HETATM   20  N5  UNL     1       0.887  52.414  -7.191  1.00  0.00    -0.295 N 
HETATM   21  C9  UNL     1      -0.476  52.927  -8.979  1.00  0.00     0.070 A 
HETATM   22 BR1  UNL     1      -1.369  53.982 -10.315  1.00  0.00    -0.041 Br
HETATM   23  C10 UNL     1       0.400  53.328  -7.998  1.00  0.00     0.126 A 
ENDBRANCH   7  13
BRANCH   1  24
HETATM   24  N1  UNL     1       5.519  57.390  -3.238  1.00  0.00    -0.230 N 
HETATM   25  C1  UNL     1       6.790  57.223  -2.635  1.00  0.00     0.165 C 
ATOM     26  H1  UNL     1       5.175  58.347  -3.322  1.00  0.00     0.177 HD
ENDBRANCH   1  24
TORSDOF 2
ENDMDL
MODEL 5
REMARK VINA RESULT: -6.604443342      2.620      3.353
REMARK  2 active torsions:
REMARK  status: ('A' for Active; 'I' for Inactive)
REMARK    1  A    between atoms: N1_2  and  C2_4 
REMARK    2  A    between atoms: C4_10  and  C5_11 
ROOT
HETATM    1  C2  UNL     1       1.188  49.052  -1.946  1.00  0.00     0.682 A 
HETATM    2  N2  UNL     1       0.709  50.311  -1.661  1.00  0.00    -0.173 N 
ATOM      3  H2  UNL     1       0.066  50.569  -0.913  1.00  0.00     0.186 HD
HETATM    4  C3  UNL     1       1.261  51.128  -2.566  1.00  0.00     0.168 A 
HETATM    5  N3  UNL     1       1.333  52.399  -2.980  1.00  0.00    -0.323 N 
ATOM      6  H3  UNL     1       0.831  53.170  -2.541  1.00  0.00     0.169 HD
HETATM    7  C4  UNL     1       2.152  52.539  -4.050  1.00  0.00     0.138 A 
HETATM    8  N6  UNL     1       2.595  51.309  -4.298  1.00  0.00    -0.323 N 
ATOM      9  H6  UNL     1       3.239  51.064  -5.050  1.00  0.00     0.169 HD
HETATM   10  C11 UNL     1       2.066  50.417  -3.402  1.00  0.00     0.169 A 
HETATM   11  N7  UNL     1       2.003  49.144  -3.001  1.00  0.00    -0.169 N 
HETATM   12  C12 UNL     1       2.725  48.081  -3.639  1.00  0.00     0.177 C 
ENDROOT
BRANCH   7  13
HETATM   13  C5  UNL     1       2.449  53.799  -4.745  1.00  0.00     0.107 A 
HETATM   14  C6  UNL     1       1.756  54.144  -5.913  1.00  0.00     0.038 A 
HETATM   15  C7  UNL     1       0.680  53.345  -6.590  1.00  0.00     0.071 C 
HETATM   16  N4  UNL     1       2.251  55.327  -6.296  1.00  0.00    -0.338 N 
HETATM   17  C8  UNL     1       3.200  55.682  -5.400  1.00  0.00     0.157 A 
ATOM     18  H4  UNL     1       1.964  55.864  -7.114  1.00  0.00     0.168 HD
HETATM   19  S1  UNL     1       4.330  56.891  -5.005  1.00  0.00    -0.044 SA
HETATM   20  N5  UNL     1       3.352  54.773  -4.436  1.00  0.00    -0.295 N 
HETATM   21  C9  UNL     1       4.971  56.185  -3.596  1.00  0.00     0.070 A 
HETATM   22 BR1  UNL     1       6.346  56.853  -2.430  1.00  0.00    -0.041 Br
HETATM   23  C10 UNL     1       4.251  55.017  -3.510  1.00  0.00     0.126 A 
ENDBRANCH   7  13
BRANCH   1  24
HETATM   24  N1  UNL     1       0.825  48.044  -1.232  1.00  0.00    -0.230 N 
HETATM   25  C1  UNL     1       1.368  47.652   0.016  1.00  0.00     0.165 C 
ATOM     26  H1  UNL     1       0.070  47.468  -1.604  1.00  0.00     0.177 HD
ENDBRANCH   1  24
TORSDOF 2
ENDMDL
