MODEL 1
REMARK VINA RESULT: -8.348799724      0.000      0.000
REMARK  6 active torsions:
REMARK  status: ('A' for Active; 'I' for Inactive)
REMARK    1  A    between atoms: C7_8  and  N1_9 
REMARK       I    between atoms: N1_9  and  C8_11 
REMARK    2  A    between atoms: C8_11  and  C9_13 
REMARK    3  A    between atoms: C9_13  and  N2_14 
REMARK    4  A    between atoms: C12_17  and  C13_18 
REMARK    5  A    between atoms: C13_18  and  C14_19 
REMARK    6  A    between atoms: C16_23  and  C17_24 
ROOT
HETATM    1  C1  UNL     1      17.961  86.108   7.491  1.00  0.00     0.015 C 
HETATM    2  C2  UNL     1      18.319  84.689   7.762  1.00  0.00    -0.043 C 
HETATM    3  C3  UNL     1      17.183  84.051   8.584  1.00  0.00     0.015 C 
HETATM    4  C4  UNL     1      19.554  84.522   8.637  1.00  0.00     0.014 C 
HETATM    5  C5  UNL     1      20.647  85.286   7.978  1.00  0.00     0.047 C 
HETATM    6  C6  UNL     1      20.720  84.963   6.522  1.00  0.00    -0.007 A 
HETATM    7  S1  UNL     1      21.913  85.294   5.358  1.00  0.00    -0.075 SA
HETATM    8  C7  UNL     1      21.165  84.591   3.999  1.00  0.00     0.098 A 
HETATM    9  C18 UNL     1      19.989  84.109   4.488  1.00  0.00     0.085 A 
HETATM   10  C19 UNL     1      19.058  83.422   3.566  1.00  0.00     0.103 C 
HETATM   11  N3  UNL     1      18.324  82.887   2.814  1.00  0.00    -0.191 NA
HETATM   12  C20 UNL     1      19.762  84.309   5.814  1.00  0.00    -0.021 A 
HETATM   13  C21 UNL     1      18.507  83.857   6.549  1.00  0.00     0.050 C 
ENDROOT
BRANCH   8  14
HETATM   14  N1  UNL     1      21.651  84.556   2.628  1.00  0.00    -0.319 N 
HETATM   15  C8  UNL     1      22.742  83.746   2.295  1.00  0.00     0.251 C 
HETATM   16  O1  UNL     1      23.265  83.056   3.245  1.00  0.00    -0.271 OA
ATOM     17  H1  UNL     1      21.197  85.121   1.911  1.00  0.00     0.169 HD
BRANCH  15  18
HETATM   18  C9  UNL     1      23.373  83.592   0.995  1.00  0.00     0.375 C 
BRANCH  18  19
HETATM   19  N2  UNL     1      22.551  83.123  -0.104  1.00  0.00     0.110 N 
HETATM   20  C10 UNL     1      23.439  82.973  -1.265  1.00  0.00     0.274 C 
HETATM   21  C11 UNL     1      24.577  82.093  -0.914  1.00  0.00     0.035 C 
HETATM   22  C12 UNL     1      24.182  80.778  -0.323  1.00  0.00    -0.001 C 
HETATM   23  C15 UNL     1      22.782  80.646   0.089  1.00  0.00     0.050 C 
HETATM   24  C16 UNL     1      21.917  81.858   0.195  1.00  0.00     0.330 C 
BRANCH  22  25
HETATM   25  C13 UNL     1      24.571  79.665  -1.265  1.00  0.00     0.117 C 
BRANCH  25  26
HETATM   26  C14 UNL     1      25.630  78.777  -0.753  1.00  0.00     0.172 C 
HETATM   27  O2  UNL     1      26.809  79.169  -0.610  1.00  0.00    -0.648 OA
HETATM   28  O3  UNL     1      25.400  77.442  -0.392  1.00  0.00    -0.648 OA
ENDBRANCH  25  26
ENDBRANCH  22  25
BRANCH  24  29
HETATM   29  C17 UNL     1      20.667  81.674  -0.625  1.00  0.00     0.418 C 
HETATM   30  F1  UNL     1      21.009  80.836  -1.721  1.00  0.00    -0.169 F 
HETATM   31  F2  UNL     1      19.635  81.037  -0.022  1.00  0.00    -0.169 F 
HETATM   32  F3  UNL     1      20.189  82.816  -1.216  1.00  0.00    -0.169 F 
ENDBRANCH  24  29
ENDBRANCH  18  19
ENDBRANCH  15  18
ENDBRANCH   8  14
TORSDOF 6
ENDMDL
MODEL 2
REMARK VINA RESULT: -8.094388931      1.783      2.656
REMARK  6 active torsions:
REMARK  status: ('A' for Active; 'I' for Inactive)
REMARK    1  A    between atoms: C7_8  and  N1_9 
REMARK       I    between atoms: N1_9  and  C8_11 
REMARK    2  A    between atoms: C8_11  and  C9_13 
REMARK    3  A    between atoms: C9_13  and  N2_14 
REMARK    4  A    between atoms: C12_17  and  C13_18 
REMARK    5  A    between atoms: C13_18  and  C14_19 
REMARK    6  A    between atoms: C16_23  and  C17_24 
ROOT
HETATM    1  C1  UNL     1      18.756  82.978   7.416  1.00  0.00     0.015 C 
HETATM    2  C2  UNL     1      18.899  84.412   7.788  1.00  0.00    -0.043 C 
HETATM    3  C3  UNL     1      18.597  84.556   9.292  1.00  0.00     0.015 C 
HETATM    4  C4  UNL     1      17.884  85.327   7.114  1.00  0.00     0.014 C 
HETATM    5  C5  UNL     1      18.003  85.087   5.652  1.00  0.00     0.047 C 
HETATM    6  C6  UNL     1      19.432  85.119   5.221  1.00  0.00    -0.007 A 
HETATM    7  S1  UNL     1      20.137  85.200   3.676  1.00  0.00    -0.075 SA
HETATM    8  C7  UNL     1      21.779  85.172   4.128  1.00  0.00     0.098 A 
HETATM    9  C18 UNL     1      21.741  85.099   5.487  1.00  0.00     0.085 A 
HETATM   10  C19 UNL     1      23.015  85.051   6.237  1.00  0.00     0.103 C 
HETATM   11  N3  UNL     1      24.040  85.003   6.819  1.00  0.00    -0.191 NA
HETATM   12  C20 UNL     1      20.505  85.071   6.054  1.00  0.00    -0.021 A 
HETATM   13  C21 UNL     1      20.248  84.981   7.553  1.00  0.00     0.050 C 
ENDROOT
BRANCH   8  14
HETATM   14  N1  UNL     1      22.946  85.178   3.260  1.00  0.00    -0.319 N 
HETATM   15  C8  UNL     1      23.383  83.988   2.670  1.00  0.00     0.251 C 
HETATM   16  O1  UNL     1      22.707  82.927   2.932  1.00  0.00    -0.271 OA
ATOM     17  H1  UNL     1      23.445  86.050   3.082  1.00  0.00     0.169 HD
BRANCH  15  18
HETATM   18  C9  UNL     1      24.527  83.796   1.793  1.00  0.00     0.375 C 
BRANCH  18  19
HETATM   19  N2  UNL     1      24.330  84.001   0.371  1.00  0.00     0.110 N 
HETATM   20  C10 UNL     1      25.652  83.888  -0.261  1.00  0.00     0.274 C 
HETATM   21  C11 UNL     1      26.272  82.594   0.105  1.00  0.00     0.035 C 
HETATM   22  C12 UNL     1      25.412  81.400  -0.154  1.00  0.00    -0.001 C 
HETATM   23  C15 UNL     1      24.003  81.669  -0.454  1.00  0.00     0.050 C 
HETATM   24  C16 UNL     1      23.429  83.023  -0.198  1.00  0.00     0.330 C 
BRANCH  22  25
HETATM   25  C13 UNL     1      26.038  80.551  -1.232  1.00  0.00     0.117 C 
BRANCH  25  26
HETATM   26  C14 UNL     1      26.350  79.173  -0.818  1.00  0.00     0.172 C 
HETATM   27  O2  UNL     1      27.502  78.832  -0.469  1.00  0.00    -0.648 OA
HETATM   28  O3  UNL     1      25.393  78.148  -0.782  1.00  0.00    -0.648 OA
ENDBRANCH  25  26
ENDBRANCH  22  25
BRANCH  24  29
HETATM   29  C17 UNL     1      22.777  83.553  -1.448  1.00  0.00     0.418 C 
HETATM   30  F1  UNL     1      21.411  83.162  -1.401  1.00  0.00    -0.169 F 
HETATM   31  F2  UNL     1      22.738  84.900  -1.588  1.00  0.00    -0.169 F 
HETATM   32  F3  UNL     1      23.239  83.006  -2.619  1.00  0.00    -0.169 F 
ENDBRANCH  24  29
ENDBRANCH  18  19
ENDBRANCH  15  18
ENDBRANCH   8  14
TORSDOF 6
ENDMDL
MODEL 3
REMARK VINA RESULT: -8.067231841      3.703      9.148
REMARK  6 active torsions:
REMARK  status: ('A' for Active; 'I' for Inactive)
REMARK    1  A    between atoms: C7_8  and  N1_9 
REMARK       I    between atoms: N1_9  and  C8_11 
REMARK    2  A    between atoms: C8_11  and  C9_13 
REMARK    3  A    between atoms: C9_13  and  N2_14 
REMARK    4  A    between atoms: C12_17  and  C13_18 
REMARK    5  A    between atoms: C13_18  and  C14_19 
REMARK    6  A    between atoms: C16_23  and  C17_24 
ROOT
HETATM    1  C1  UNL     1      26.211  81.365  -2.639  1.00  0.00     0.015 C 
HETATM    2  C2  UNL     1      26.581  80.777  -1.322  1.00  0.00    -0.043 C 
HETATM    3  C3  UNL     1      28.117  80.717  -1.233  1.00  0.00     0.015 C 
HETATM    4  C4  UNL     1      26.139  79.329  -1.149  1.00  0.00     0.014 C 
HETATM    5  C5  UNL     1      24.676  79.298  -1.413  1.00  0.00     0.047 C 
HETATM    6  C6  UNL     1      23.976  80.383  -0.664  1.00  0.00    -0.007 A 
HETATM    7  S1  UNL     1      22.326  80.647  -0.354  1.00  0.00    -0.075 SA
HETATM    8  C7  UNL     1      22.448  82.096   0.534  1.00  0.00     0.098 A 
HETATM    9  C18 UNL     1      23.786  82.344   0.569  1.00  0.00     0.085 A 
HETATM   10  C19 UNL     1      24.272  83.552   1.270  1.00  0.00     0.103 C 
HETATM   11  N3  UNL     1      24.640  84.526   1.824  1.00  0.00    -0.191 NA
HETATM   12  C20 UNL     1      24.582  81.440  -0.063  1.00  0.00    -0.021 A 
HETATM   13  C21 UNL     1      26.100  81.542  -0.146  1.00  0.00     0.050 C 
ENDROOT
BRANCH   8  14
HETATM   14  N1  UNL     1      21.369  82.901   1.085  1.00  0.00    -0.319 N 
HETATM   15  C8  UNL     1      20.787  82.546   2.306  1.00  0.00     0.251 C 
HETATM   16  O1  UNL     1      21.254  81.502   2.891  1.00  0.00    -0.271 OA
ATOM     17  H1  UNL     1      21.037  83.723   0.580  1.00  0.00     0.169 HD
BRANCH  15  18
HETATM   18  C9  UNL     1      19.698  83.213   3.002  1.00  0.00     0.375 C 
BRANCH  18  19
HETATM   19  N2  UNL     1      19.990  84.469   3.666  1.00  0.00     0.110 N 
HETATM   20  C10 UNL     1      18.697  85.087   3.993  1.00  0.00     0.274 C 
HETATM   21  C11 UNL     1      17.874  84.139   4.778  1.00  0.00     0.035 C 
HETATM   22  C12 UNL     1      18.559  83.576   5.982  1.00  0.00    -0.001 C 
HETATM   23  C15 UNL     1      20.004  83.799   6.069  1.00  0.00     0.050 C 
HETATM   24  C16 UNL     1      20.761  84.277   4.875  1.00  0.00     0.330 C 
BRANCH  22  25
HETATM   25  C13 UNL     1      17.864  84.062   7.230  1.00  0.00     0.117 C 
BRANCH  25  26
HETATM   26  C14 UNL     1      17.826  83.080   8.327  1.00  0.00     0.172 C 
HETATM   27  O2  UNL     1      17.594  81.868   8.122  1.00  0.00    -0.648 OA
HETATM   28  O3  UNL     1      18.045  83.422   9.670  1.00  0.00    -0.648 OA
ENDBRANCH  25  26
ENDBRANCH  22  25
BRANCH  24  29
HETATM   29  C17 UNL     1      21.542  85.517   5.219  1.00  0.00     0.418 C 
HETATM   30  F1  UNL     1      20.876  86.137   6.311  1.00  0.00    -0.169 F 
HETATM   31  F2  UNL     1      22.810  85.333   5.658  1.00  0.00    -0.169 F 
HETATM   32  F3  UNL     1      21.554  86.483   4.245  1.00  0.00    -0.169 F 
ENDBRANCH  24  29
ENDBRANCH  18  19
ENDBRANCH  15  18
ENDBRANCH   8  14
TORSDOF 6
ENDMDL
MODEL 4
REMARK VINA RESULT: -8.014556825      3.175      4.326
REMARK  6 active torsions:
REMARK  status: ('A' for Active; 'I' for Inactive)
REMARK    1  A    between atoms: C7_8  and  N1_9 
REMARK       I    between atoms: N1_9  and  C8_11 
REMARK    2  A    between atoms: C8_11  and  C9_13 
REMARK    3  A    between atoms: C9_13  and  N2_14 
REMARK    4  A    between atoms: C12_17  and  C13_18 
REMARK    5  A    between atoms: C13_18  and  C14_19 
REMARK    6  A    between atoms: C16_23  and  C17_24 
ROOT
HETATM    1  C1  UNL     1      18.818  82.939   7.400  1.00  0.00     0.015 C 
HETATM    2  C2  UNL     1      18.919  84.388   7.726  1.00  0.00    -0.043 C 
HETATM    3  C3  UNL     1      18.579  84.574   9.217  1.00  0.00     0.015 C 
HETATM    4  C4  UNL     1      17.900  85.255   6.999  1.00  0.00     0.014 C 
HETATM    5  C5  UNL     1      18.059  84.970   5.548  1.00  0.00     0.047 C 
HETATM    6  C6  UNL     1      19.496  85.021   5.150  1.00  0.00    -0.007 A 
HETATM    7  S1  UNL     1      20.236  85.068   3.620  1.00  0.00    -0.075 SA
HETATM    8  C7  UNL     1      21.867  85.094   4.110  1.00  0.00     0.098 A 
HETATM    9  C18 UNL     1      21.798  85.065   5.469  1.00  0.00     0.085 A 
HETATM   10  C19 UNL     1      23.055  85.073   6.250  1.00  0.00     0.103 C 
HETATM   11  N3  UNL     1      24.067  85.068   6.856  1.00  0.00    -0.191 NA
HETATM   12  C20 UNL     1      20.550  85.027   6.008  1.00  0.00    -0.021 A 
HETATM   13  C21 UNL     1      20.260  84.980   7.503  1.00  0.00     0.050 C 
ENDROOT
BRANCH   8  14
HETATM   14  N1  UNL     1      23.054  85.099   3.269  1.00  0.00    -0.319 N 
HETATM   15  C8  UNL     1      23.495  83.911   2.677  1.00  0.00     0.251 C 
HETATM   16  O1  UNL     1      22.805  82.853   2.913  1.00  0.00    -0.271 OA
ATOM     17  H1  UNL     1      23.563  85.969   3.111  1.00  0.00     0.169 HD
BRANCH  15  18
HETATM   18  C9  UNL     1      24.657  83.718   1.825  1.00  0.00     0.375 C 
BRANCH  18  19
HETATM   19  N2  UNL     1      24.572  82.712   0.785  1.00  0.00     0.110 N 
HETATM   20  C10 UNL     1      23.910  83.343  -0.365  1.00  0.00     0.274 C 
HETATM   21  C11 UNL     1      24.637  84.576  -0.745  1.00  0.00     0.035 C 
HETATM   22  C12 UNL     1      26.103  84.389  -0.962  1.00  0.00    -0.001 C 
HETATM   23  C15 UNL     1      26.668  83.116  -0.507  1.00  0.00     0.050 C 
HETATM   24  C16 UNL     1      25.877  82.226   0.393  1.00  0.00     0.330 C 
BRANCH  22  25
HETATM   25  C13 UNL     1      26.433  84.633  -2.415  1.00  0.00     0.117 C 
BRANCH  25  26
HETATM   26  C14 UNL     1      27.072  85.933  -2.683  1.00  0.00     0.172 C 
HETATM   27  O2  UNL     1      27.444  86.262  -3.831  1.00  0.00    -0.648 OA
HETATM   28  O3  UNL     1      27.309  86.890  -1.686  1.00  0.00    -0.648 OA
ENDBRANCH  25  26
ENDBRANCH  22  25
BRANCH  24  29
HETATM   29  C17 UNL     1      25.784  80.844  -0.198  1.00  0.00     0.418 C 
HETATM   30  F1  UNL     1      25.775  80.997  -1.612  1.00  0.00    -0.169 F 
HETATM   31  F2  UNL     1      26.822  80.009   0.044  1.00  0.00    -0.169 F 
HETATM   32  F3  UNL     1      24.615  80.177   0.070  1.00  0.00    -0.169 F 
ENDBRANCH  24  29
ENDBRANCH  18  19
ENDBRANCH  15  18
ENDBRANCH   8  14
TORSDOF 6
ENDMDL
MODEL 5
REMARK VINA RESULT: -7.984513782      3.687      4.766
REMARK  6 active torsions:
REMARK  status: ('A' for Active; 'I' for Inactive)
REMARK    1  A    between atoms: C7_8  and  N1_9 
REMARK       I    between atoms: N1_9  and  C8_11 
REMARK    2  A    between atoms: C8_11  and  C9_13 
REMARK    3  A    between atoms: C9_13  and  N2_14 
REMARK    4  A    between atoms: C12_17  and  C13_18 
REMARK    5  A    between atoms: C13_18  and  C14_19 
REMARK    6  A    between atoms: C16_23  and  C17_24 
ROOT
HETATM    1  C1  UNL     1      17.868  85.548   7.773  1.00  0.00     0.015 C 
HETATM    2  C2  UNL     1      18.895  84.487   7.957  1.00  0.00    -0.043 C 
HETATM    3  C3  UNL     1      18.739  83.902   9.374  1.00  0.00     0.015 C 
HETATM    4  C4  UNL     1      20.328  85.004   7.921  1.00  0.00     0.014 C 
HETATM    5  C5  UNL     1      20.478  85.748   6.643  1.00  0.00     0.047 C 
HETATM    6  C6  UNL     1      19.947  84.951   5.497  1.00  0.00    -0.007 A 
HETATM    7  S1  UNL     1      20.111  85.155   3.817  1.00  0.00    -0.075 SA
HETATM    8  C7  UNL     1      19.184  83.825   3.294  1.00  0.00     0.098 A 
HETATM    9  C18 UNL     1      18.762  83.247   4.452  1.00  0.00     0.085 A 
HETATM   10  C19 UNL     1      17.911  82.039   4.380  1.00  0.00     0.103 C 
HETATM   11  N3  UNL     1      17.223  81.084   4.304  1.00  0.00    -0.191 NA
HETATM   12  C20 UNL     1      19.167  83.844   5.605  1.00  0.00    -0.021 A 
HETATM   13  C21 UNL     1      18.796  83.358   7.000  1.00  0.00     0.050 C 
ENDROOT
BRANCH   8  14
HETATM   14  N1  UNL     1      18.878  83.431   1.928  1.00  0.00    -0.319 N 
HETATM   15  C8  UNL     1      19.649  82.450   1.295  1.00  0.00     0.251 C 
HETATM   16  O1  UNL     1      20.608  81.935   1.978  1.00  0.00    -0.271 OA
ATOM     17  H1  UNL     1      18.102  83.869   1.432  1.00  0.00     0.169 HD
BRANCH  15  18
HETATM   18  C9  UNL     1      19.506  81.940  -0.058  1.00  0.00     0.375 C 
BRANCH  18  19
HETATM   19  N2  UNL     1      18.675  82.691  -0.980  1.00  0.00     0.110 N 
HETATM   20  C10 UNL     1      19.081  82.297  -2.336  1.00  0.00     0.274 C 
HETATM   21  C11 UNL     1      18.997  80.825  -2.475  1.00  0.00     0.035 C 
HETATM   22  C12 UNL     1      17.679  80.240  -2.080  1.00  0.00    -0.001 C 
HETATM   23  C15 UNL     1      16.766  81.129  -1.357  1.00  0.00     0.050 C 
HETATM   24  C16 UNL     1      17.268  82.415  -0.790  1.00  0.00     0.330 C 
BRANCH  22  25
HETATM   25  C13 UNL     1      17.005  79.651  -3.295  1.00  0.00     0.117 C 
BRANCH  25  26
HETATM   26  C14 UNL     1      16.770  78.199  -3.217  1.00  0.00     0.172 C 
HETATM   27  O2  UNL     1      17.143  77.521  -2.234  1.00  0.00    -0.648 OA
HETATM   28  O3  UNL     1      16.119  77.473  -4.224  1.00  0.00    -0.648 OA
ENDBRANCH  25  26
ENDBRANCH  22  25
BRANCH  24  29
HETATM   29  C17 UNL     1      16.423  83.561  -1.279  1.00  0.00     0.418 C 
HETATM   30  F1  UNL     1      15.597  83.053  -2.319  1.00  0.00    -0.169 F 
HETATM   31  F2  UNL     1      15.553  84.097  -0.389  1.00  0.00    -0.169 F 
HETATM   32  F3  UNL     1      17.119  84.581  -1.876  1.00  0.00    -0.169 F 
ENDBRANCH  24  29
ENDBRANCH  18  19
ENDBRANCH  15  18
ENDBRANCH   8  14
TORSDOF 6
ENDMDL
