MODEL 1
REMARK VINA RESULT: -5.438927254      0.000      0.000
REMARK  0 active torsions:
REMARK  status: ('A' for Active; 'I' for Inactive)
REMARK       I    between atoms: C3_5  and  N3_7 
ROOT
HETATM    1  C1  UNL     1      16.860  13.725  48.037  1.00  0.00     0.123 C 
HETATM    2  C2  UNL     1      17.687  14.465  47.524  1.00  0.00    -0.073 C 
HETATM    3  N1  UNL     1      18.647  15.297  46.945  1.00  0.00    -0.300 N 
ATOM      4  H1  UNL     1      19.571  15.363  47.371  1.00  0.00     0.178 HD
HETATM    5  C3  UNL     1      18.396  15.972  45.901  1.00  0.00     0.198 C 
HETATM    6  N2  UNL     1      17.077  15.853  45.324  1.00  0.00    -0.063 NA
HETATM    7  N3  UNL     1      19.329  16.836  45.265  1.00  0.00    -0.342 N 
HETATM    8  C4  UNL     1      20.730  16.493  45.287  1.00  0.00     0.128 C 
HETATM    9  C5  UNL     1      21.371  16.909  43.971  1.00  0.00     0.035 C 
HETATM   10  C6  UNL     1      21.041  18.387  43.793  1.00  0.00     0.106 C 
HETATM   11  N4  UNL     1      19.624  18.465  43.519  1.00  0.00    -0.233 NA
HETATM   12 BR1  UNL     1      19.184  17.588  41.921  1.00  0.00     0.014 Br
HETATM   13  C7  UNL     1      18.811  18.021  44.626  1.00  0.00     0.229 C 
ENDROOT
TORSDOF 0
ENDMDL
MODEL 2
REMARK VINA RESULT: -3.752750707      2.632      5.150
REMARK  0 active torsions:
REMARK  status: ('A' for Active; 'I' for Inactive)
REMARK       I    between atoms: C3_5  and  N3_7 
ROOT
HETATM    1  C1  UNL     1      20.356  19.242  44.135  1.00  0.00     0.123 C 
HETATM    2  C2  UNL     1      20.117  18.209  44.743  1.00  0.00    -0.073 C 
HETATM    3  N1  UNL     1      19.863  17.030  45.448  1.00  0.00    -0.300 N 
ATOM      4  H1  UNL     1      20.646  16.446  45.739  1.00  0.00     0.178 HD
HETATM    5  C3  UNL     1      18.681  16.671  45.734  1.00  0.00     0.198 C 
HETATM    6  N2  UNL     1      17.597  17.525  45.306  1.00  0.00    -0.063 NA
HETATM    7  N3  UNL     1      18.357  15.485  46.448  1.00  0.00    -0.342 N 
HETATM    8  C4  UNL     1      19.261  15.013  47.467  1.00  0.00     0.128 C 
HETATM    9  C5  UNL     1      18.457  14.405  48.609  1.00  0.00     0.035 C 
HETATM   10  C6  UNL     1      17.551  13.357  47.973  1.00  0.00     0.106 C 
HETATM   11  N4  UNL     1      16.559  14.078  47.207  1.00  0.00    -0.233 NA
HETATM   12 BR1  UNL     1      15.493  15.160  48.308  1.00  0.00     0.014 Br
HETATM   13  C7  UNL     1      17.126  14.816  46.104  1.00  0.00     0.229 C 
ENDROOT
TORSDOF 0
ENDMDL
MODEL 3
REMARK VINA RESULT: -3.736148441      1.939      2.474
REMARK  0 active torsions:
REMARK  status: ('A' for Active; 'I' for Inactive)
REMARK       I    between atoms: C3_5  and  N3_7 
ROOT
HETATM    1  C1  UNL     1      15.006  15.119  48.271  1.00  0.00     0.123 C 
HETATM    2  C2  UNL     1      15.663  15.673  47.401  1.00  0.00    -0.073 C 
HETATM    3  N1  UNL     1      16.399  16.322  46.408  1.00  0.00    -0.300 N 
ATOM      4  H1  UNL     1      15.920  16.948  45.761  1.00  0.00     0.178 HD
HETATM    5  C3  UNL     1      17.650  16.151  46.294  1.00  0.00     0.198 C 
HETATM    6  N2  UNL     1      18.296  15.259  47.228  1.00  0.00    -0.063 NA
HETATM    7  N3  UNL     1      18.455  16.782  45.305  1.00  0.00    -0.342 N 
HETATM    8  C4  UNL     1      18.112  18.112  44.866  1.00  0.00     0.128 C 
HETATM    9  C5  UNL     1      19.387  18.895  44.588  1.00  0.00     0.035 C 
HETATM   10  C6  UNL     1      20.194  18.048  43.609  1.00  0.00     0.106 C 
HETATM   11  N4  UNL     1      20.658  16.895  44.345  1.00  0.00    -0.233 NA
HETATM   12 BR1  UNL     1      21.803  17.389  45.746  1.00  0.00     0.014 Br
HETATM   13  C7  UNL     1      19.584  16.043  44.795  1.00  0.00     0.229 C 
ENDROOT
TORSDOF 0
ENDMDL
MODEL 4
REMARK VINA RESULT: -3.203716007      1.433      1.515
REMARK  0 active torsions:
REMARK  status: ('A' for Active; 'I' for Inactive)
REMARK       I    between atoms: C3_5  and  N3_7 
ROOT
HETATM    1  C1  UNL     1      14.640  14.746  47.946  1.00  0.00     0.123 C 
HETATM    2  C2  UNL     1      15.755  15.150  47.649  1.00  0.00    -0.073 C 
HETATM    3  N1  UNL     1      17.037  15.591  47.315  1.00  0.00    -0.300 N 
ATOM      4  H1  UNL     1      17.840  15.217  47.820  1.00  0.00     0.178 HD
HETATM    5  C3  UNL     1      17.224  16.446  46.398  1.00  0.00     0.198 C 
HETATM    6  N2  UNL     1      16.064  16.953  45.702  1.00  0.00    -0.063 NA
HETATM    7  N3  UNL     1      18.502  16.936  46.011  1.00  0.00    -0.342 N 
HETATM    8  C4  UNL     1      19.641  16.054  46.084  1.00  0.00     0.128 C 
HETATM    9  C5  UNL     1      20.582  16.351  44.924  1.00  0.00     0.035 C 
HETATM   10  C6  UNL     1      20.879  17.845  44.998  1.00  0.00     0.106 C 
HETATM   11  N4  UNL     1      19.660  18.528  44.628  1.00  0.00    -0.233 NA
HETATM   12 BR1  UNL     1      19.159  18.134  42.864  1.00  0.00     0.014 Br
HETATM   13  C7  UNL     1      18.583  18.305  45.563  1.00  0.00     0.229 C 
ENDROOT
TORSDOF 0
ENDMDL
MODEL 5
REMARK VINA RESULT: -2.945153330      2.635      3.631
REMARK  0 active torsions:
REMARK  status: ('A' for Active; 'I' for Inactive)
REMARK       I    between atoms: C3_5  and  N3_7 
ROOT
HETATM    1  C1  UNL     1      18.049  16.605  46.795  1.00  0.00     0.123 C 
HETATM    2  C2  UNL     1      18.523  16.565  45.668  1.00  0.00    -0.073 C 
HETATM    3  N1  UNL     1      19.044  16.527  44.373  1.00  0.00    -0.300 N 
ATOM      4  H1  UNL     1      18.418  16.347  43.589  1.00  0.00     0.178 HD
HETATM    5  C3  UNL     1      20.279  16.712  44.152  1.00  0.00     0.198 C 
HETATM    6  N2  UNL     1      21.136  16.966  45.286  1.00  0.00    -0.063 NA
HETATM    7  N3  UNL     1      20.871  16.685  42.859  1.00  0.00    -0.342 N 
HETATM    8  C4  UNL     1      20.106  17.152  41.729  1.00  0.00     0.128 C 
HETATM    9  C5  UNL     1      21.034  17.858  40.750  1.00  0.00     0.035 C 
HETATM   10  C6  UNL     1      22.153  16.867  40.445  1.00  0.00     0.106 C 
HETATM   11  N4  UNL     1      22.948  16.758  41.647  1.00  0.00    -0.233 NA
HETATM   12 BR1  UNL     1      23.745  18.396  42.096  1.00  0.00     0.014 Br
HETATM   13  C7  UNL     1      22.220  16.186  42.754  1.00  0.00     0.229 C 
ENDROOT
TORSDOF 0
ENDMDL
