MODEL 1
REMARK VINA RESULT: -7.241691278      0.000      0.000
REMARK  8 active torsions:
REMARK  status: ('A' for Active; 'I' for Inactive)
REMARK    1  A    between atoms: C3_3  and  C4_4 
REMARK       I    between atoms: C4_4  and  N1_6 
REMARK    2  A    between atoms: N1_6  and  C5_8 
REMARK    3  A    between atoms: C5_8  and  C8_11 
REMARK    4  A    between atoms: C8_11  and  O2_12 
REMARK    5  A    between atoms: C8_11  and  N2_14 
REMARK    6  A    between atoms: N2_14  and  C9_16 
REMARK    7  A    between atoms: C9_16  and  O3_17 
REMARK    8  A    between atoms: C9_16  and  N3_19 
ROOT
HETATM    1  C1  UNL     1      30.660  -2.543  78.636  1.00  0.00     0.012 C 
HETATM    2  C2  UNL     1      31.641  -3.102  78.176  1.00  0.00    -0.108 C 
HETATM    3  C3  UNL     1      32.816  -3.758  77.603  1.00  0.00     0.195 C 
ENDROOT
BRANCH   3   4
HETATM    4  C4  UNL     1      33.976  -2.829  77.555  1.00  0.00     0.229 C 
HETATM    5  O1  UNL     1      34.851  -2.971  76.663  1.00  0.00    -0.273 OA
HETATM    6  N1  UNL     1      34.126  -1.785  78.487  1.00  0.00    -0.344 N 
ATOM      7  H1  UNL     1      33.429  -1.650  79.220  1.00  0.00     0.163 HD
BRANCH   6   8
HETATM    8  C5  UNL     1      35.307  -0.875  78.402  1.00  0.00     0.090 C 
HETATM    9  C6  UNL     1      36.480  -1.790  78.627  1.00  0.00     0.047 C 
HETATM   10  C7  UNL     1      35.178   0.121  79.554  1.00  0.00     0.047 C 
BRANCH   8  11
HETATM   11  C8  UNL     1      35.299  -0.149  77.141  1.00  0.00     0.146 C 
BRANCH  11  12
HETATM   12  O2  UNL     1      36.243  -0.568  76.315  1.00  0.00    -0.347 OA
ATOM     13  H2  UNL     1      36.049  -0.356  75.409  1.00  0.00     0.219 HD
ENDBRANCH  11  12
BRANCH  11  14
HETATM   14  N2  UNL     1      34.511   0.880  76.644  1.00  0.00    -0.304 N 
ATOM     15  H2  UNL     1      35.072   1.588  76.172  1.00  0.00     0.171 HD
BRANCH  14  16
HETATM   16  C9  UNL     1      33.166   1.199  76.619  1.00  0.00     0.232 C 
BRANCH  16  17
HETATM   17  O3  UNL     1      32.719   1.471  75.402  1.00  0.00    -0.332 OA
ATOM     18  H3  UNL     1      32.747   2.398  75.194  1.00  0.00     0.221 HD
ENDBRANCH  16  17
BRANCH  16  19
HETATM   19  N3  UNL     1      32.184   1.296  77.590  1.00  0.00    -0.259 N 
HETATM   20  C10 UNL     1      30.932   1.885  77.239  1.00  0.00     0.185 C 
HETATM   21  N4  UNL     1      29.914   2.348  76.942  1.00  0.00    -0.172 NA
ATOM     22  H3  UNL     1      32.352   0.954  78.537  1.00  0.00     0.181 HD
ENDBRANCH  16  19
ENDBRANCH  14  16
ENDBRANCH  11  14
ENDBRANCH   8  11
ENDBRANCH   6   8
ENDBRANCH   3   4
TORSDOF 8
ENDMDL
MODEL 2
REMARK VINA RESULT: -7.063517715      2.248      3.103
REMARK  8 active torsions:
REMARK  status: ('A' for Active; 'I' for Inactive)
REMARK    1  A    between atoms: C3_3  and  C4_4 
REMARK       I    between atoms: C4_4  and  N1_6 
REMARK    2  A    between atoms: N1_6  and  C5_8 
REMARK    3  A    between atoms: C5_8  and  C8_11 
REMARK    4  A    between atoms: C8_11  and  O2_12 
REMARK    5  A    between atoms: C8_11  and  N2_14 
REMARK    6  A    between atoms: N2_14  and  C9_16 
REMARK    7  A    between atoms: C9_16  and  O3_17 
REMARK    8  A    between atoms: C9_16  and  N3_19 
ROOT
HETATM    1  C1  UNL     1      33.047   0.725  82.717  1.00  0.00     0.012 C 
HETATM    2  C2  UNL     1      33.845  -0.067  82.244  1.00  0.00    -0.108 C 
HETATM    3  C3  UNL     1      34.782  -1.031  81.669  1.00  0.00     0.195 C 
ENDROOT
BRANCH   3   4
HETATM    4  C4  UNL     1      34.649  -1.091  80.190  1.00  0.00     0.229 C 
HETATM    5  O1  UNL     1      33.645  -1.646  79.676  1.00  0.00    -0.273 OA
HETATM    6  N1  UNL     1      35.624  -0.537  79.338  1.00  0.00    -0.344 N 
ATOM      7  H1  UNL     1      36.447  -0.082  79.731  1.00  0.00     0.163 HD
BRANCH   6   8
HETATM    8  C5  UNL     1      35.450  -0.619  77.857  1.00  0.00     0.090 C 
HETATM    9  C6  UNL     1      35.544  -2.093  77.566  1.00  0.00     0.047 C 
HETATM   10  C7  UNL     1      36.631   0.124  77.235  1.00  0.00     0.047 C 
BRANCH   8  11
HETATM   11  C8  UNL     1      34.212   0.031  77.454  1.00  0.00     0.146 C 
BRANCH  11  12
HETATM   12  O2  UNL     1      34.311   1.349  77.465  1.00  0.00    -0.347 OA
ATOM     13  H2  UNL     1      34.178   1.728  76.604  1.00  0.00     0.219 HD
ENDBRANCH  11  12
BRANCH  11  14
HETATM   14  N2  UNL     1      32.969  -0.453  77.067  1.00  0.00    -0.304 N 
ATOM     15  H2  UNL     1      33.034  -1.401  76.697  1.00  0.00     0.171 HD
BRANCH  14  16
HETATM   16  C9  UNL     1      31.667   0.010  77.050  1.00  0.00     0.232 C 
BRANCH  16  17
HETATM   17  O3  UNL     1      30.797  -0.900  76.638  1.00  0.00    -0.332 OA
ATOM     18  H3  UNL     1      29.921  -0.551  76.521  1.00  0.00     0.221 HD
ENDBRANCH  16  17
BRANCH  16  19
HETATM   19  N3  UNL     1      31.074   1.220  77.369  1.00  0.00    -0.259 N 
HETATM   20  C10 UNL     1      31.100   2.270  76.402  1.00  0.00     0.185 C 
HETATM   21  N4  UNL     1      31.111   3.109  75.607  1.00  0.00    -0.172 NA
ATOM     22  H3  UNL     1      30.629   1.358  78.276  1.00  0.00     0.181 HD
ENDBRANCH  16  19
ENDBRANCH  14  16
ENDBRANCH  11  14
ENDBRANCH   8  11
ENDBRANCH   6   8
ENDBRANCH   3   4
TORSDOF 8
ENDMDL
MODEL 3
REMARK VINA RESULT: -7.047316162      1.570      1.784
REMARK  8 active torsions:
REMARK  status: ('A' for Active; 'I' for Inactive)
REMARK    1  A    between atoms: C3_3  and  C4_4 
REMARK       I    between atoms: C4_4  and  N1_6 
REMARK    2  A    between atoms: N1_6  and  C5_8 
REMARK    3  A    between atoms: C5_8  and  C8_11 
REMARK    4  A    between atoms: C8_11  and  O2_12 
REMARK    5  A    between atoms: C8_11  and  N2_14 
REMARK    6  A    between atoms: N2_14  and  C9_16 
REMARK    7  A    between atoms: C9_16  and  O3_17 
REMARK    8  A    between atoms: C9_16  and  N3_19 
ROOT
HETATM    1  C1  UNL     1      31.835  -5.082  78.708  1.00  0.00     0.012 C 
HETATM    2  C2  UNL     1      32.501  -4.391  77.956  1.00  0.00    -0.108 C 
HETATM    3  C3  UNL     1      33.283  -3.543  77.057  1.00  0.00     0.195 C 
ENDROOT
BRANCH   3   4
HETATM    4  C4  UNL     1      33.863  -2.384  77.784  1.00  0.00     0.229 C 
HETATM    5  O1  UNL     1      34.845  -1.769  77.295  1.00  0.00    -0.273 OA
HETATM    6  N1  UNL     1      33.341  -1.949  79.017  1.00  0.00    -0.344 N 
ATOM      7  H1  UNL     1      32.545  -2.432  79.434  1.00  0.00     0.163 HD
BRANCH   6   8
HETATM    8  C5  UNL     1      33.955  -0.780  79.714  1.00  0.00     0.090 C 
HETATM    9  C6  UNL     1      35.130  -1.374  80.443  1.00  0.00     0.047 C 
HETATM   10  C7  UNL     1      32.915  -0.265  80.708  1.00  0.00     0.047 C 
BRANCH   8  11
HETATM   11  C8  UNL     1      34.266   0.275  78.760  1.00  0.00     0.146 C 
BRANCH  11  12
HETATM   12  O2  UNL     1      35.548   0.598  78.769  1.00  0.00    -0.347 OA
ATOM     13  H2  UNL     1      35.807   1.068  77.985  1.00  0.00     0.219 HD
ENDBRANCH  11  12
BRANCH  11  14
HETATM   14  N2  UNL     1      33.494   0.996  77.859  1.00  0.00    -0.304 N 
ATOM     15  H2  UNL     1      32.709   1.455  78.321  1.00  0.00     0.171 HD
BRANCH  14  16
HETATM   16  C9  UNL     1      33.508   1.257  76.502  1.00  0.00     0.232 C 
BRANCH  16  17
HETATM   17  O3  UNL     1      34.702   1.092  75.953  1.00  0.00    -0.332 OA
ATOM     18  H3  UNL     1      35.399   1.019  76.594  1.00  0.00     0.221 HD
ENDBRANCH  16  17
BRANCH  16  19
HETATM   19  N3  UNL     1      32.544   1.655  75.591  1.00  0.00    -0.259 N 
HETATM   20  C10 UNL     1      31.251   2.019  76.079  1.00  0.00     0.185 C 
HETATM   21  N4  UNL     1      30.213   2.328  76.483  1.00  0.00    -0.172 NA
ATOM     22  H3  UNL     1      32.752   1.688  74.593  1.00  0.00     0.181 HD
ENDBRANCH  16  19
ENDBRANCH  14  16
ENDBRANCH  11  14
ENDBRANCH   8  11
ENDBRANCH   6   8
ENDBRANCH   3   4
TORSDOF 8
ENDMDL
MODEL 4
REMARK VINA RESULT: -6.996785780      2.077      3.524
REMARK  8 active torsions:
REMARK  status: ('A' for Active; 'I' for Inactive)
REMARK    1  A    between atoms: C3_3  and  C4_4 
REMARK       I    between atoms: C4_4  and  N1_6 
REMARK    2  A    between atoms: N1_6  and  C5_8 
REMARK    3  A    between atoms: C5_8  and  C8_11 
REMARK    4  A    between atoms: C8_11  and  O2_12 
REMARK    5  A    between atoms: C8_11  and  N2_14 
REMARK    6  A    between atoms: N2_14  and  C9_16 
REMARK    7  A    between atoms: C9_16  and  O3_17 
REMARK    8  A    between atoms: C9_16  and  N3_19 
ROOT
HETATM    1  C1  UNL     1      33.546   0.528  83.232  1.00  0.00     0.012 C 
HETATM    2  C2  UNL     1      34.113  -0.137  82.380  1.00  0.00    -0.108 C 
HETATM    3  C3  UNL     1      34.774  -0.952  81.363  1.00  0.00     0.195 C 
ENDROOT
BRANCH   3   4
HETATM    4  C4  UNL     1      33.932  -1.073  80.143  1.00  0.00     0.229 C 
HETATM    5  O1  UNL     1      33.473  -0.038  79.597  1.00  0.00    -0.273 OA
HETATM    6  N1  UNL     1      33.630  -2.326  79.576  1.00  0.00    -0.344 N 
ATOM      7  H1  UNL     1      33.990  -3.180  80.001  1.00  0.00     0.163 HD
BRANCH   6   8
HETATM    8  C5  UNL     1      32.780  -2.401  78.350  1.00  0.00     0.090 C 
HETATM    9  C6  UNL     1      31.388  -2.151  78.864  1.00  0.00     0.047 C 
HETATM   10  C7  UNL     1      32.903  -3.828  77.817  1.00  0.00     0.047 C 
BRANCH   8  11
HETATM   11  C8  UNL     1      33.261  -1.471  77.340  1.00  0.00     0.146 C 
BRANCH  11  12
HETATM   12  O2  UNL     1      34.501  -1.736  76.964  1.00  0.00    -0.347 OA
ATOM     13  H2  UNL     1      34.739  -2.642  77.122  1.00  0.00     0.219 HD
ENDBRANCH  11  12
BRANCH  11  14
HETATM   14  N2  UNL     1      32.684  -0.380  76.704  1.00  0.00    -0.304 N 
ATOM     15  H2  UNL     1      31.757  -0.603  76.343  1.00  0.00     0.171 HD
BRANCH  14  16
HETATM   16  C9  UNL     1      33.035   0.929  76.430  1.00  0.00     0.232 C 
BRANCH  16  17
HETATM   17  O3  UNL     1      34.302   1.197  76.710  1.00  0.00    -0.332 OA
ATOM     18  H3  UNL     1      34.719   1.746  76.057  1.00  0.00     0.221 HD
ENDBRANCH  16  17
BRANCH  16  19
HETATM   19  N3  UNL     1      32.349   2.021  75.927  1.00  0.00    -0.259 N 
HETATM   20  C10 UNL     1      30.978   2.193  76.288  1.00  0.00     0.185 C 
HETATM   21  N4  UNL     1      29.873   2.334  76.599  1.00  0.00    -0.172 NA
ATOM     22  H3  UNL     1      32.813   2.689  75.311  1.00  0.00     0.181 HD
ENDBRANCH  16  19
ENDBRANCH  14  16
ENDBRANCH  11  14
ENDBRANCH   8  11
ENDBRANCH   6   8
ENDBRANCH   3   4
TORSDOF 8
ENDMDL
MODEL 5
REMARK VINA RESULT: -6.990019788      1.816      3.506
REMARK  8 active torsions:
REMARK  status: ('A' for Active; 'I' for Inactive)
REMARK    1  A    between atoms: C3_3  and  C4_4 
REMARK       I    between atoms: C4_4  and  N1_6 
REMARK    2  A    between atoms: N1_6  and  C5_8 
REMARK    3  A    between atoms: C5_8  and  C8_11 
REMARK    4  A    between atoms: C8_11  and  O2_12 
REMARK    5  A    between atoms: C8_11  and  N2_14 
REMARK    6  A    between atoms: N2_14  and  C9_16 
REMARK    7  A    between atoms: C9_16  and  O3_17 
REMARK    8  A    between atoms: C9_16  and  N3_19 
ROOT
HETATM    1  C1  UNL     1      33.670   0.073  82.038  1.00  0.00     0.012 C 
HETATM    2  C2  UNL     1      34.325  -0.569  81.235  1.00  0.00    -0.108 C 
HETATM    3  C3  UNL     1      35.098  -1.361  80.279  1.00  0.00     0.195 C 
ENDROOT
BRANCH   3   4
HETATM    4  C4  UNL     1      34.238  -1.844  79.166  1.00  0.00     0.229 C 
HETATM    5  O1  UNL     1      34.762  -2.167  78.069  1.00  0.00    -0.273 OA
HETATM    6  N1  UNL     1      32.842  -1.954  79.306  1.00  0.00    -0.344 N 
ATOM      7  H1  UNL     1      32.395  -1.698  80.186  1.00  0.00     0.163 HD
BRANCH   6   8
HETATM    8  C5  UNL     1      32.016  -2.444  78.162  1.00  0.00     0.090 C 
HETATM    9  C6  UNL     1      30.737  -2.896  78.812  1.00  0.00     0.047 C 
HETATM   10  C7  UNL     1      32.760  -3.636  77.562  1.00  0.00     0.047 C 
BRANCH   8  11
HETATM   11  C8  UNL     1      31.883  -1.407  77.150  1.00  0.00     0.146 C 
BRANCH  11  12
HETATM   12  O2  UNL     1      30.691  -1.414  76.578  1.00  0.00    -0.347 OA
ATOM     13  H2  UNL     1      29.991  -1.547  77.206  1.00  0.00     0.219 HD
ENDBRANCH  11  12
BRANCH  11  14
HETATM   14  N2  UNL     1      32.747  -0.429  76.674  1.00  0.00    -0.304 N 
ATOM     15  H2  UNL     1      33.329  -0.781  75.914  1.00  0.00     0.171 HD
BRANCH  14  16
HETATM   16  C9  UNL     1      33.027   0.894  76.958  1.00  0.00     0.232 C 
BRANCH  16  17
HETATM   17  O3  UNL     1      34.056   1.042  77.779  1.00  0.00    -0.332 OA
ATOM     18  H3  UNL     1      33.895   1.679  78.466  1.00  0.00     0.221 HD
ENDBRANCH  16  17
BRANCH  16  19
HETATM   19  N3  UNL     1      32.465   2.099  76.571  1.00  0.00    -0.259 N 
HETATM   20  C10 UNL     1      31.042   2.195  76.492  1.00  0.00     0.185 C 
HETATM   21  N4  UNL     1      29.890   2.270  76.446  1.00  0.00    -0.172 NA
ATOM     22  H3  UNL     1      33.055   2.900  76.347  1.00  0.00     0.181 HD
ENDBRANCH  16  19
ENDBRANCH  14  16
ENDBRANCH  11  14
ENDBRANCH   8  11
ENDBRANCH   6   8
ENDBRANCH   3   4
TORSDOF 8
ENDMDL
