MODEL 1
REMARK VINA RESULT: -7.153467149      0.000      0.000
REMARK  5 active torsions:
REMARK  status: ('A' for Active; 'I' for Inactive)
REMARK    1  A    between atoms: C2_2  and  C5_5 
REMARK    2  A    between atoms: C5_5  and  C6_6 
REMARK    3  A    between atoms: C6_6  and  N1_7 
REMARK    4  A    between atoms: N1_7  and  C7_9 
REMARK    5  A    between atoms: C7_9  and  N2_11 
REMARK       I    between atoms: N3_15  and  C11_16 
ROOT
HETATM    1  N2  UNL     1     -73.443 -49.382 -75.736  1.00  0.00    -0.357 N 
HETATM    2  C8  UNL     1     -73.318 -50.792 -75.905  1.00  0.00     0.127 C 
HETATM    3  C9  UNL     1     -74.563 -51.496 -76.393  1.00  0.00     0.040 C 
HETATM    4  C10 UNL     1     -75.178 -50.902 -77.616  1.00  0.00     0.129 C 
HETATM    5  N3  UNL     1     -74.291 -50.005 -78.317  1.00  0.00    -0.335 N 
HETATM    6  C11 UNL     1     -73.618 -50.466 -79.501  1.00  0.00     0.330 C 
HETATM    7  N4  UNL     1     -73.801 -51.779 -79.978  1.00  0.00    -0.040 NA
HETATM    8  O1  UNL     1     -72.867 -49.685 -80.099  1.00  0.00    -0.251 OA
HETATM    9  C12 UNL     1     -73.988 -48.644 -77.940  1.00  0.00     0.147 C 
HETATM   10  C13 UNL     1     -74.318 -48.435 -76.445  1.00  0.00     0.145 C 
ENDROOT
BRANCH   1  11
HETATM   11  C7  UNL     1     -72.599 -48.785 -74.779  1.00  0.00     0.169 C 
HETATM   12  S1  UNL     1     -72.346 -49.570 -73.351  1.00  0.00    -0.041 SA
BRANCH  11  13
HETATM   13  N1  UNL     1     -71.925 -47.548 -74.926  1.00  0.00    -0.367 N 
ATOM     14  H1  UNL     1     -72.425 -46.762 -75.342  1.00  0.00     0.161 HD
BRANCH  13  15
HETATM   15  C6  UNL     1     -70.564 -47.360 -74.512  1.00  0.00     0.122 C 
BRANCH  15  16
HETATM   16  C5  UNL     1     -70.261 -46.182 -73.678  1.00  0.00     0.028 C 
BRANCH  16  17
HETATM   17  C2  UNL     1     -70.309 -46.317 -72.212  1.00  0.00    -0.050 C 
HETATM   18  C1  UNL     1     -71.707 -46.661 -71.696  1.00  0.00     0.014 C 
HETATM   19  C3  UNL     1     -69.455 -47.544 -71.827  1.00  0.00     0.014 C 
HETATM   20  C4  UNL     1     -69.739 -45.175 -71.440  1.00  0.00     0.014 C 
ENDBRANCH  16  17
ENDBRANCH  15  16
ENDBRANCH  13  15
ENDBRANCH  11  13
ENDBRANCH   1  11
TORSDOF 5
ENDMDL
MODEL 2
REMARK VINA RESULT: -6.836061050      4.928      6.382
REMARK  5 active torsions:
REMARK  status: ('A' for Active; 'I' for Inactive)
REMARK    1  A    between atoms: C2_2  and  C5_5 
REMARK    2  A    between atoms: C5_5  and  C6_6 
REMARK    3  A    between atoms: C6_6  and  N1_7 
REMARK    4  A    between atoms: N1_7  and  C7_9 
REMARK    5  A    between atoms: C7_9  and  N2_11 
REMARK       I    between atoms: N3_15  and  C11_16 
ROOT
HETATM    1  N2  UNL     1     -71.386 -51.313 -71.568  1.00  0.00    -0.357 N 
HETATM    2  C8  UNL     1     -69.980 -51.351 -71.333  1.00  0.00     0.127 C 
HETATM    3  C9  UNL     1     -69.562 -51.957 -70.013  1.00  0.00     0.040 C 
HETATM    4  C10 UNL     1     -70.151 -53.299 -69.728  1.00  0.00     0.129 C 
HETATM    5  N3  UNL     1     -70.710 -53.932 -70.898  1.00  0.00    -0.335 N 
HETATM    6  C11 UNL     1     -69.963 -54.968 -71.559  1.00  0.00     0.330 C 
HETATM    7  N4  UNL     1     -68.693 -55.362 -71.093  1.00  0.00    -0.040 NA
HETATM    8  O1  UNL     1     -70.456 -55.510 -72.556  1.00  0.00    -0.251 OA
HETATM    9  C12 UNL     1     -71.983 -53.623 -71.504  1.00  0.00     0.147 C 
HETATM   10  C13 UNL     1     -72.436 -52.213 -71.067  1.00  0.00     0.145 C 
ENDROOT
BRANCH   1  11
HETATM   11  C7  UNL     1     -71.854 -50.293 -72.420  1.00  0.00     0.169 C 
HETATM   12  S1  UNL     1     -72.591 -50.721 -73.832  1.00  0.00    -0.041 SA
BRANCH  11  13
HETATM   13  N1  UNL     1     -71.756 -48.901 -72.177  1.00  0.00    -0.367 N 
ATOM     14  H1  UNL     1     -71.440 -48.583 -71.261  1.00  0.00     0.161 HD
BRANCH  13  15
HETATM   15  C6  UNL     1     -72.086 -47.922 -73.173  1.00  0.00     0.122 C 
BRANCH  15  16
HETATM   16  C5  UNL     1     -72.010 -46.502 -72.784  1.00  0.00     0.028 C 
BRANCH  16  17
HETATM   17  C2  UNL     1     -70.744 -45.776 -72.983  1.00  0.00    -0.050 C 
HETATM   18  C1  UNL     1     -69.821 -45.855 -71.766  1.00  0.00     0.014 C 
HETATM   19  C3  UNL     1     -69.959 -46.502 -74.096  1.00  0.00     0.014 C 
HETATM   20  C4  UNL     1     -70.874 -44.363 -73.442  1.00  0.00     0.014 C 
ENDBRANCH  16  17
ENDBRANCH  15  16
ENDBRANCH  13  15
ENDBRANCH  11  13
ENDBRANCH   1  11
TORSDOF 5
ENDMDL
MODEL 3
REMARK VINA RESULT: -6.699210089      7.673     12.067
REMARK  5 active torsions:
REMARK  status: ('A' for Active; 'I' for Inactive)
REMARK    1  A    between atoms: C2_2  and  C5_5 
REMARK    2  A    between atoms: C5_5  and  C6_6 
REMARK    3  A    between atoms: C6_6  and  N1_7 
REMARK    4  A    between atoms: N1_7  and  C7_9 
REMARK    5  A    between atoms: C7_9  and  N2_11 
REMARK       I    between atoms: N3_15  and  C11_16 
ROOT
HETATM    1  N2  UNL     1     -67.513 -44.288 -67.548  1.00  0.00    -0.357 N 
HETATM    2  C8  UNL     1     -67.764 -44.310 -66.145  1.00  0.00     0.127 C 
HETATM    3  C9  UNL     1     -66.551 -44.544 -65.275  1.00  0.00     0.040 C 
HETATM    4  C10 UNL     1     -65.395 -43.643 -65.560  1.00  0.00     0.129 C 
HETATM    5  N3  UNL     1     -65.758 -42.489 -66.345  1.00  0.00    -0.335 N 
HETATM    6  C11 UNL     1     -65.927 -41.220 -65.690  1.00  0.00     0.330 C 
HETATM    7  N4  UNL     1     -65.759 -41.090 -64.298  1.00  0.00    -0.040 NA
HETATM    8  O1  UNL     1     -66.230 -40.234 -66.376  1.00  0.00    -0.251 OA
HETATM    9  C12 UNL     1     -65.985 -42.469 -67.771  1.00  0.00     0.147 C 
HETATM   10  C13 UNL     1     -66.290 -43.900 -68.267  1.00  0.00     0.145 C 
ENDROOT
BRANCH   1  11
HETATM   11  C7  UNL     1     -68.584 -44.663 -68.385  1.00  0.00     0.169 C 
HETATM   12  S1  UNL     1     -70.122 -44.526 -67.808  1.00  0.00    -0.041 SA
BRANCH  11  13
HETATM   13  N1  UNL     1     -68.466 -45.153 -69.708  1.00  0.00    -0.367 N 
ATOM     14  H1  UNL     1     -67.610 -45.636 -69.980  1.00  0.00     0.161 HD
BRANCH  13  15
HETATM   15  C6  UNL     1     -69.509 -44.996 -70.682  1.00  0.00     0.122 C 
BRANCH  15  16
HETATM   16  C5  UNL     1     -69.866 -46.172 -71.495  1.00  0.00     0.028 C 
BRANCH  16  17
HETATM   17  C2  UNL     1     -70.664 -45.977 -72.718  1.00  0.00    -0.050 C 
HETATM   18  C1  UNL     1     -70.670 -44.523 -73.194  1.00  0.00     0.014 C 
HETATM   19  C3  UNL     1     -69.963 -46.743 -73.860  1.00  0.00     0.014 C 
HETATM   20  C4  UNL     1     -72.056 -46.512 -72.673  1.00  0.00     0.014 C 
ENDBRANCH  16  17
ENDBRANCH  15  16
ENDBRANCH  13  15
ENDBRANCH  11  13
ENDBRANCH   1  11
TORSDOF 5
ENDMDL
MODEL 4
REMARK VINA RESULT: -6.607393006      5.097      6.523
REMARK  5 active torsions:
REMARK  status: ('A' for Active; 'I' for Inactive)
REMARK    1  A    between atoms: C2_2  and  C5_5 
REMARK    2  A    between atoms: C5_5  and  C6_6 
REMARK    3  A    between atoms: C6_6  and  N1_7 
REMARK    4  A    between atoms: N1_7  and  C7_9 
REMARK    5  A    between atoms: C7_9  and  N2_11 
REMARK       I    between atoms: N3_15  and  C11_16 
ROOT
HETATM    1  N2  UNL     1     -71.052 -51.452 -71.367  1.00  0.00    -0.357 N 
HETATM    2  C8  UNL     1     -69.657 -51.611 -71.118  1.00  0.00     0.127 C 
HETATM    3  C9  UNL     1     -69.309 -52.348 -69.846  1.00  0.00     0.040 C 
HETATM    4  C10 UNL     1     -69.996 -53.662 -69.678  1.00  0.00     0.129 C 
HETATM    5  N3  UNL     1     -70.577 -54.158 -70.902  1.00  0.00    -0.335 N 
HETATM    6  C11 UNL     1     -69.893 -55.189 -71.635  1.00  0.00     0.330 C 
HETATM    7  N4  UNL     1     -68.664 -55.710 -71.184  1.00  0.00    -0.040 NA
HETATM    8  O1  UNL     1     -70.405 -55.613 -72.679  1.00  0.00    -0.251 OA
HETATM    9  C12 UNL     1     -71.813 -53.710 -71.498  1.00  0.00     0.147 C 
HETATM   10  C13 UNL     1     -72.173 -52.310 -70.954  1.00  0.00     0.145 C 
ENDROOT
BRANCH   1  11
HETATM   11  C7  UNL     1     -71.430 -50.336 -72.142  1.00  0.00     0.169 C 
HETATM   12  S1  UNL     1     -72.476 -50.564 -73.396  1.00  0.00    -0.041 SA
BRANCH  11  13
HETATM   13  N1  UNL     1     -70.994 -49.004 -71.941  1.00  0.00    -0.367 N 
ATOM     14  H1  UNL     1     -71.565 -48.379 -71.372  1.00  0.00     0.161 HD
BRANCH  13  15
HETATM   15  C6  UNL     1     -69.776 -48.500 -72.511  1.00  0.00     0.122 C 
BRANCH  15  16
HETATM   16  C5  UNL     1     -69.878 -47.358 -73.438  1.00  0.00     0.028 C 
BRANCH  16  17
HETATM   17  C2  UNL     1     -70.230 -46.033 -72.900  1.00  0.00    -0.050 C 
HETATM   18  C1  UNL     1     -69.799 -44.889 -73.820  1.00  0.00     0.014 C 
HETATM   19  C3  UNL     1     -71.770 -45.933 -72.874  1.00  0.00     0.014 C 
HETATM   20  C4  UNL     1     -69.787 -45.766 -71.501  1.00  0.00     0.014 C 
ENDBRANCH  16  17
ENDBRANCH  15  16
ENDBRANCH  13  15
ENDBRANCH  11  13
ENDBRANCH   1  11
TORSDOF 5
ENDMDL
MODEL 5
REMARK VINA RESULT: -6.370206956      6.978      9.812
REMARK  5 active torsions:
REMARK  status: ('A' for Active; 'I' for Inactive)
REMARK    1  A    between atoms: C2_2  and  C5_5 
REMARK    2  A    between atoms: C5_5  and  C6_6 
REMARK    3  A    between atoms: C6_6  and  N1_7 
REMARK    4  A    between atoms: N1_7  and  C7_9 
REMARK    5  A    between atoms: C7_9  and  N2_11 
REMARK       I    between atoms: N3_15  and  C11_16 
ROOT
HETATM    1  N2  UNL     1     -70.740 -54.918 -71.174  1.00  0.00    -0.357 N 
HETATM    2  C8  UNL     1     -71.429 -53.733 -71.566  1.00  0.00     0.127 C 
HETATM    3  C9  UNL     1     -71.572 -52.683 -70.490  1.00  0.00     0.040 C 
HETATM    4  C10 UNL     1     -70.299 -52.313 -69.805  1.00  0.00     0.129 C 
HETATM    5  N3  UNL     1     -69.124 -52.743 -70.524  1.00  0.00    -0.335 N 
HETATM    6  C11 UNL     1     -68.387 -51.783 -71.301  1.00  0.00     0.330 C 
HETATM    7  N4  UNL     1     -68.801 -50.438 -71.381  1.00  0.00    -0.040 NA
HETATM    8  O1  UNL     1     -67.376 -52.161 -71.906  1.00  0.00    -0.251 OA
HETATM    9  C12 UNL     1     -68.591 -54.084 -70.556  1.00  0.00     0.147 C 
HETATM   10  C13 UNL     1     -69.693 -55.090 -70.155  1.00  0.00     0.145 C 
ENDROOT
BRANCH   1  11
HETATM   11  C7  UNL     1     -71.073 -56.100 -71.867  1.00  0.00     0.169 C 
HETATM   12  S1  UNL     1     -69.889 -56.886 -72.702  1.00  0.00    -0.041 SA
BRANCH  11  13
HETATM   13  N1  UNL     1     -72.357 -56.696 -71.914  1.00  0.00    -0.367 N 
ATOM     14  H1  UNL     1     -72.718 -57.154 -71.077  1.00  0.00     0.161 HD
BRANCH  13  15
HETATM   15  C6  UNL     1     -73.168 -56.681 -73.098  1.00  0.00     0.122 C 
BRANCH  15  16
HETATM   16  C5  UNL     1     -74.384 -55.847 -73.081  1.00  0.00     0.028 C 
BRANCH  16  17
HETATM   17  C2  UNL     1     -75.655 -56.430 -73.542  1.00  0.00    -0.050 C 
HETATM   18  C1  UNL     1     -76.542 -55.416 -74.267  1.00  0.00     0.014 C 
HETATM   19  C3  UNL     1     -75.322 -57.478 -74.626  1.00  0.00     0.014 C 
HETATM   20  C4  UNL     1     -76.444 -57.161 -72.508  1.00  0.00     0.014 C 
ENDBRANCH  16  17
ENDBRANCH  15  16
ENDBRANCH  13  15
ENDBRANCH  11  13
ENDBRANCH   1  11
TORSDOF 5
ENDMDL
