MODEL 1
REMARK VINA RESULT: -7.825036787      0.000      0.000
REMARK  4 active torsions:
REMARK  status: ('A' for Active; 'I' for Inactive)
REMARK    1  A    between atoms: C2_2  and  C3_3 
REMARK    2  A    between atoms: C4_6  and  C5_7 
REMARK    3  A    between atoms: C5_7  and  C6_8 
REMARK    4  A    between atoms: C13_15  and  C14_16 
ROOT
HETATM    1  C3  UNL     1     -73.327 -50.058 -75.735  1.00  0.00     0.097 A 
HETATM    2  N1  UNL     1     -72.926 -50.133 -74.456  1.00  0.00    -0.348 N 
ATOM      3  H1  UNL     1     -72.568 -51.027 -74.119  1.00  0.00     0.166 HD
HETATM    4  C4  UNL     1     -72.968 -49.098 -73.585  1.00  0.00     0.102 A 
HETATM    5  C16 UNL     1     -73.444 -47.900 -74.022  1.00  0.00     0.275 A 
HETATM    6  O1  UNL     1     -73.500 -46.909 -73.243  1.00  0.00    -0.266 OA
HETATM    7  N2  UNL     1     -73.856 -47.784 -75.301  1.00  0.00    -0.287 N 
ATOM      8  H2  UNL     1     -74.213 -46.888 -75.633  1.00  0.00     0.172 HD
HETATM    9  C17 UNL     1     -73.804 -48.826 -76.143  1.00  0.00     0.274 A 
HETATM   10  O2  UNL     1     -74.209 -48.619 -77.314  1.00  0.00    -0.266 OA
ENDROOT
BRANCH   4  11
HETATM   11  C5  UNL     1     -72.542 -49.307 -72.359  1.00  0.00     0.047 C 
BRANCH  11  12
HETATM   12  C6  UNL     1     -71.283 -49.888 -71.985  1.00  0.00    -0.022 A 
HETATM   13  C7  UNL     1     -71.212 -51.219 -71.555  1.00  0.00    -0.051 A 
HETATM   14  C8  UNL     1     -72.475 -52.035 -71.478  1.00  0.00     0.049 C 
HETATM   15  C9  UNL     1     -70.008 -51.781 -71.199  1.00  0.00     0.014 A 
HETATM   16  C10 UNL     1     -68.826 -51.077 -71.245  1.00  0.00    -0.061 A 
HETATM   17  C11 UNL     1     -67.518 -51.687 -70.858  1.00  0.00     0.048 C 
HETATM   18  C12 UNL     1     -68.920 -49.771 -71.670  1.00  0.00     0.014 A 
HETATM   19  C13 UNL     1     -70.109 -49.163 -72.039  1.00  0.00    -0.047 A 
BRANCH  19  20
HETATM   20  C14 UNL     1     -70.089 -47.718 -72.473  1.00  0.00     0.035 C 
HETATM   21  C15 UNL     1     -69.744 -47.728 -73.950  1.00  0.00     0.010 C 
ENDBRANCH  19  20
ENDBRANCH  11  12
ENDBRANCH   4  11
BRANCH   1  22
HETATM   22  C2  UNL     1     -73.273 -51.093 -76.556  1.00  0.00     0.004 C 
HETATM   23  C1  UNL     1     -73.159 -52.494 -76.172  1.00  0.00     0.038 C 
ENDBRANCH   1  22
TORSDOF 4
ENDMDL
MODEL 2
REMARK VINA RESULT: -7.812481612      2.414      4.188
REMARK  4 active torsions:
REMARK  status: ('A' for Active; 'I' for Inactive)
REMARK    1  A    between atoms: C2_2  and  C3_3 
REMARK    2  A    between atoms: C4_6  and  C5_7 
REMARK    3  A    between atoms: C5_7  and  C6_8 
REMARK    4  A    between atoms: C13_15  and  C14_16 
ROOT
HETATM    1  C3  UNL     1     -73.043 -51.824 -74.836  1.00  0.00     0.097 A 
HETATM    2  N1  UNL     1     -72.790 -50.805 -74.000  1.00  0.00    -0.348 N 
ATOM      3  H1  UNL     1     -72.845 -49.857 -74.373  1.00  0.00     0.166 HD
HETATM    4  C4  UNL     1     -72.467 -50.954 -72.695  1.00  0.00     0.102 A 
HETATM    5  C16 UNL     1     -72.390 -52.214 -72.184  1.00  0.00     0.275 A 
HETATM    6  O1  UNL     1     -72.091 -52.399 -70.973  1.00  0.00    -0.266 OA
HETATM    7  N2  UNL     1     -72.637 -53.266 -72.991  1.00  0.00    -0.287 N 
ATOM      8  H2  UNL     1     -72.580 -54.212 -72.614  1.00  0.00     0.172 HD
HETATM    9  C17 UNL     1     -72.955 -53.089 -74.283  1.00  0.00     0.274 A 
HETATM   10  O2  UNL     1     -73.168 -54.129 -74.953  1.00  0.00    -0.266 OA
ENDROOT
BRANCH   4  11
HETATM   11  C5  UNL     1     -72.246 -49.869 -71.986  1.00  0.00     0.047 C 
BRANCH  11  12
HETATM   12  C6  UNL     1     -71.599 -48.672 -72.447  1.00  0.00    -0.022 A 
HETATM   13  C7  UNL     1     -70.204 -48.550 -72.394  1.00  0.00    -0.051 A 
HETATM   14  C8  UNL     1     -69.388 -49.687 -71.839  1.00  0.00     0.049 C 
HETATM   15  C9  UNL     1     -69.580 -47.407 -72.837  1.00  0.00     0.014 A 
HETATM   16  C10 UNL     1     -70.282 -46.337 -73.347  1.00  0.00    -0.061 A 
HETATM   17  C11 UNL     1     -69.604 -45.096 -73.827  1.00  0.00     0.048 C 
HETATM   18  C12 UNL     1     -71.650 -46.480 -73.388  1.00  0.00     0.014 A 
HETATM   19  C13 UNL     1     -72.322 -47.611 -72.954  1.00  0.00    -0.047 A 
BRANCH  19  20
HETATM   20  C14 UNL     1     -73.828 -47.644 -73.034  1.00  0.00     0.035 C 
HETATM   21  C15 UNL     1     -74.170 -47.705 -74.511  1.00  0.00     0.010 C 
ENDBRANCH  19  20
ENDBRANCH  11  12
ENDBRANCH   4  11
BRANCH   1  22
HETATM   22  C2  UNL     1     -73.354 -51.639 -76.107  1.00  0.00     0.004 C 
HETATM   23  C1  UNL     1     -74.532 -50.947 -76.614  1.00  0.00     0.038 C 
ENDBRANCH   1  22
TORSDOF 4
ENDMDL
MODEL 3
REMARK VINA RESULT: -7.766884468      1.919      3.854
REMARK  4 active torsions:
REMARK  status: ('A' for Active; 'I' for Inactive)
REMARK    1  A    between atoms: C2_2  and  C3_3 
REMARK    2  A    between atoms: C4_6  and  C5_7 
REMARK    3  A    between atoms: C5_7  and  C6_8 
REMARK    4  A    between atoms: C13_15  and  C14_16 
ROOT
HETATM    1  C3  UNL     1     -73.816 -48.303 -76.407  1.00  0.00     0.097 A 
HETATM    2  N1  UNL     1     -72.569 -48.046 -75.980  1.00  0.00    -0.348 N 
ATOM      3  H1  UNL     1     -71.798 -48.225 -76.622  1.00  0.00     0.166 HD
HETATM    4  C4  UNL     1     -72.272 -47.564 -74.750  1.00  0.00     0.102 A 
HETATM    5  C16 UNL     1     -73.294 -47.321 -73.883  1.00  0.00     0.275 A 
HETATM    6  O1  UNL     1     -73.061 -46.872 -72.728  1.00  0.00    -0.266 OA
HETATM    7  N2  UNL     1     -74.560 -47.566 -74.275  1.00  0.00    -0.287 N 
ATOM      8  H2  UNL     1     -75.329 -47.386 -73.630  1.00  0.00     0.172 HD
HETATM    9  C17 UNL     1     -74.827 -48.043 -75.500  1.00  0.00     0.274 A 
HETATM   10  O2  UNL     1     -76.037 -48.239 -75.772  1.00  0.00    -0.266 OA
ENDROOT
BRANCH   4  11
HETATM   11  C5  UNL     1     -71.007 -47.355 -74.460  1.00  0.00     0.047 C 
BRANCH  11  12
HETATM   12  C6  UNL     1     -70.496 -46.832 -73.223  1.00  0.00    -0.022 A 
HETATM   13  C7  UNL     1     -70.314 -45.454 -73.054  1.00  0.00    -0.051 A 
HETATM   14  C8  UNL     1     -70.652 -44.522 -74.187  1.00  0.00     0.049 C 
HETATM   15  C9  UNL     1     -69.828 -44.948 -71.870  1.00  0.00     0.014 A 
HETATM   16  C10 UNL     1     -69.498 -45.757 -70.805  1.00  0.00    -0.061 A 
HETATM   17  C11 UNL     1     -68.969 -45.208 -69.521  1.00  0.00     0.048 C 
HETATM   18  C12 UNL     1     -69.685 -47.107 -70.996  1.00  0.00     0.014 A 
HETATM   19  C13 UNL     1     -70.172 -47.662 -72.168  1.00  0.00    -0.047 A 
BRANCH  19  20
HETATM   20  C14 UNL     1     -70.317 -49.160 -72.264  1.00  0.00     0.035 C 
HETATM   21  C15 UNL     1     -69.080 -49.746 -71.609  1.00  0.00     0.010 C 
ENDBRANCH  19  20
ENDBRANCH  11  12
ENDBRANCH   4  11
BRANCH   1  22
HETATM   22  C2  UNL     1     -74.067 -48.775 -77.616  1.00  0.00     0.004 C 
HETATM   23  C1  UNL     1     -74.060 -50.177 -78.013  1.00  0.00     0.038 C 
ENDBRANCH   1  22
TORSDOF 4
ENDMDL
MODEL 4
REMARK VINA RESULT: -7.716217812      0.404      2.357
REMARK  4 active torsions:
REMARK  status: ('A' for Active; 'I' for Inactive)
REMARK    1  A    between atoms: C2_2  and  C3_3 
REMARK    2  A    between atoms: C4_6  and  C5_7 
REMARK    3  A    between atoms: C5_7  and  C6_8 
REMARK    4  A    between atoms: C13_15  and  C14_16 
ROOT
HETATM    1  C3  UNL     1     -73.267 -50.069 -75.634  1.00  0.00     0.097 A 
HETATM    2  N1  UNL     1     -72.851 -50.113 -74.358  1.00  0.00    -0.348 N 
ATOM      3  H1  UNL     1     -72.537 -51.011 -73.989  1.00  0.00     0.166 HD
HETATM    4  C4  UNL     1     -72.822 -49.043 -73.531  1.00  0.00     0.102 A 
HETATM    5  C16 UNL     1     -73.238 -47.839 -74.011  1.00  0.00     0.275 A 
HETATM    6  O1  UNL     1     -73.228 -46.816 -73.273  1.00  0.00    -0.266 OA
HETATM    7  N2  UNL     1     -73.664 -47.753 -75.288  1.00  0.00    -0.287 N 
ATOM      8  H2  UNL     1     -73.977 -46.853 -75.652  1.00  0.00     0.172 HD
HETATM    9  C17 UNL     1     -73.682 -48.830 -76.087  1.00  0.00     0.274 A 
HETATM   10  O2  UNL     1     -74.094 -48.649 -77.259  1.00  0.00    -0.266 OA
ENDROOT
BRANCH   4  11
HETATM   11  C5  UNL     1     -72.389 -49.225 -72.303  1.00  0.00     0.047 C 
BRANCH  11  12
HETATM   12  C6  UNL     1     -71.214 -49.955 -71.917  1.00  0.00    -0.022 A 
HETATM   13  C7  UNL     1     -69.954 -49.344 -71.947  1.00  0.00    -0.051 A 
HETATM   14  C8  UNL     1     -69.841 -47.912 -72.398  1.00  0.00     0.049 C 
HETATM   15  C9  UNL     1     -68.826 -50.038 -71.575  1.00  0.00     0.014 A 
HETATM   16  C10 UNL     1     -68.874 -51.351 -71.160  1.00  0.00    -0.061 A 
HETATM   17  C11 UNL     1     -67.649 -52.104 -70.757  1.00  0.00     0.048 C 
HETATM   18  C12 UNL     1     -70.122 -51.930 -71.140  1.00  0.00     0.014 A 
HETATM   19  C13 UNL     1     -71.285 -51.271 -71.504  1.00  0.00    -0.047 A 
BRANCH  19  20
HETATM   20  C14 UNL     1     -72.595 -52.017 -71.456  1.00  0.00     0.035 C 
HETATM   21  C15 UNL     1     -72.291 -53.431 -71.915  1.00  0.00     0.010 C 
ENDBRANCH  19  20
ENDBRANCH  11  12
ENDBRANCH   4  11
BRANCH   1  22
HETATM   22  C2  UNL     1     -73.283 -51.138 -76.412  1.00  0.00     0.004 C 
HETATM   23  C1  UNL     1     -73.106 -52.519 -75.983  1.00  0.00     0.038 C 
ENDBRANCH   1  22
TORSDOF 4
ENDMDL
MODEL 5
REMARK VINA RESULT: -7.108353826      1.833      2.394
REMARK  4 active torsions:
REMARK  status: ('A' for Active; 'I' for Inactive)
REMARK    1  A    between atoms: C2_2  and  C3_3 
REMARK    2  A    between atoms: C4_6  and  C5_7 
REMARK    3  A    between atoms: C5_7  and  C6_8 
REMARK    4  A    between atoms: C13_15  and  C14_16 
ROOT
HETATM    1  C3  UNL     1     -75.097 -47.843 -75.347  1.00  0.00     0.097 A 
HETATM    2  N1  UNL     1     -74.411 -47.772 -74.195  1.00  0.00    -0.348 N 
ATOM      3  H1  UNL     1     -74.936 -47.620 -73.334  1.00  0.00     0.166 HD
HETATM    4  C4  UNL     1     -73.066 -47.890 -74.104  1.00  0.00     0.102 A 
HETATM    5  C16 UNL     1     -72.352 -48.093 -75.246  1.00  0.00     0.275 A 
HETATM    6  O1  UNL     1     -71.097 -48.208 -75.206  1.00  0.00    -0.266 OA
HETATM    7  N2  UNL     1     -73.005 -48.170 -76.423  1.00  0.00    -0.287 N 
ATOM      8  H2  UNL     1     -72.476 -48.322 -77.281  1.00  0.00     0.172 HD
HETATM    9  C17 UNL     1     -74.340 -48.050 -76.485  1.00  0.00     0.274 A 
HETATM   10  O2  UNL     1     -74.856 -48.137 -77.626  1.00  0.00    -0.266 OA
ENDROOT
BRANCH   4  11
HETATM   11  C5  UNL     1     -72.519 -47.803 -72.912  1.00  0.00     0.047 C 
BRANCH  11  12
HETATM   12  C6  UNL     1     -71.411 -48.579 -72.428  1.00  0.00    -0.022 A 
HETATM   13  C7  UNL     1     -71.540 -49.960 -72.235  1.00  0.00    -0.051 A 
HETATM   14  C8  UNL     1     -72.857 -50.625 -72.532  1.00  0.00     0.049 C 
HETATM   15  C9  UNL     1     -70.480 -50.708 -71.774  1.00  0.00     0.014 A 
HETATM   16  C10 UNL     1     -69.257 -50.148 -71.483  1.00  0.00    -0.061 A 
HETATM   17  C11 UNL     1     -68.107 -50.961 -70.982  1.00  0.00     0.048 C 
HETATM   18  C12 UNL     1     -69.155 -48.790 -71.679  1.00  0.00     0.014 A 
HETATM   19  C13 UNL     1     -70.193 -47.997 -72.141  1.00  0.00    -0.047 A 
BRANCH  19  20
HETATM   20  C14 UNL     1     -69.965 -46.514 -72.301  1.00  0.00     0.035 C 
HETATM   21  C15 UNL     1     -69.950 -45.937 -70.898  1.00  0.00     0.010 C 
ENDBRANCH  19  20
ENDBRANCH  11  12
ENDBRANCH   4  11
BRANCH   1  22
HETATM   22  C2  UNL     1     -76.413 -47.721 -75.396  1.00  0.00     0.004 C 
HETATM   23  C1  UNL     1     -77.349 -48.696 -75.940  1.00  0.00     0.038 C 
ENDBRANCH   1  22
TORSDOF 4
ENDMDL
