MODEL 1
REMARK VINA RESULT: -7.102443954      0.000      0.000
REMARK  8 active torsions:
REMARK  status: ('A' for Active; 'I' for Inactive)
REMARK    1  A    between atoms: O1_2  and  N1_3 
REMARK    2  A    between atoms: C2_5  and  C3_6 
REMARK    3  A    between atoms: C2_5  and  C8_15 
REMARK    4  A    between atoms: C3_6  and  C4_7 
REMARK       I    between atoms: C8_15  and  N3_17 
REMARK    5  A    between atoms: N3_17  and  C9_19 
REMARK    6  A    between atoms: C9_19  and  C10_20 
REMARK    7  A    between atoms: C10_20  and  C11_21 
REMARK    8  A    between atoms: C11_21  and  N4_22 
ROOT
HETATM    1  N1  UNL     1       7.556   8.254  19.173  1.00  0.00    -0.266 N 
ATOM      2  H1  UNL     1       7.084   7.903  18.340  1.00  0.00     0.194 HD
HETATM    3  C2  UNL     1       7.322   7.525  20.160  1.00  0.00     0.105 C 
ENDROOT
BRANCH   3   4
HETATM    4  C3  UNL     1       6.430   6.326  19.924  1.00  0.00     0.122 C 
BRANCH   4   5
HETATM    5  C4  UNL     1       6.982   5.390  18.939  1.00  0.00     0.017 A 
HETATM    6  C5  UNL     1       8.133   4.647  19.183  1.00  0.00     0.047 A 
HETATM    7  C6  UNL     1       8.382   3.851  18.080  1.00  0.00     0.046 A 
HETATM    8 BR1  UNL     1       9.811   2.611  17.806  1.00  0.00    -0.048 Br
HETATM    9  C7  UNL     1       7.382   4.128  17.194  1.00  0.00     0.097 A 
HETATM   10 BR2  UNL     1       7.161   3.355  15.482  1.00  0.00    -0.030 Br
HETATM   11  N2  UNL     1       6.535   5.062  17.720  1.00  0.00    -0.352 N 
ATOM     12  H2  UNL     1       5.706   5.443  17.264  1.00  0.00     0.166 HD
ENDBRANCH   4   5
ENDBRANCH   3   4
BRANCH   3  13
HETATM   13  C8  UNL     1       7.813   7.749  21.481  1.00  0.00     0.266 C 
HETATM   14  O2  UNL     1       7.915   6.789  22.285  1.00  0.00    -0.266 OA
HETATM   15  N3  UNL     1       8.201   9.017  21.950  1.00  0.00    -0.356 N 
ATOM     16  H3  UNL     1       8.113   9.808  21.311  1.00  0.00     0.162 HD
BRANCH  15  17
HETATM   17  C9  UNL     1       8.724   9.281  23.292  1.00  0.00     0.124 C 
BRANCH  17  18
HETATM   18  C10 UNL     1      10.168   8.947  23.411  1.00  0.00     0.039 C 
BRANCH  18  19
HETATM   19  C11 UNL     1      10.825   9.192  24.713  1.00  0.00     0.127 C 
BRANCH  19  20
HETATM   20  N4  UNL     1      10.586   8.307  25.800  1.00  0.00    -0.353 N 
HETATM   21  C12 UNL     1       9.371   7.937  26.454  1.00  0.00     0.169 A 
HETATM   22  C13 UNL     1       9.833   6.988  27.539  1.00  0.00     0.083 A 
HETATM   23  N5  UNL     1      11.085   6.843  27.498  1.00  0.00    -0.345 N 
HETATM   24  C14 UNL     1      11.634   7.605  26.470  1.00  0.00     0.173 A 
ATOM     25  H5  UNL     1      11.621   6.249  28.131  1.00  0.00     0.167 HD
HETATM   26  S1  UNL     1      13.238   7.687  26.080  1.00  0.00    -0.041 SA
ENDBRANCH  19  20
ENDBRANCH  18  19
ENDBRANCH  17  18
ENDBRANCH  15  17
ENDBRANCH   3  13
BRANCH   1  27
HETATM   27  O1  UNL     1       8.238   9.349  18.901  1.00  0.00    -0.285 OA
HETATM   28  C1  UNL     1       7.542  10.602  18.818  1.00  0.00     0.237 C 
ENDBRANCH   1  27
TORSDOF 8
ENDMDL
MODEL 2
REMARK VINA RESULT: -7.002377941      1.885      2.543
REMARK  8 active torsions:
REMARK  status: ('A' for Active; 'I' for Inactive)
REMARK    1  A    between atoms: O1_2  and  N1_3 
REMARK    2  A    between atoms: C2_5  and  C3_6 
REMARK    3  A    between atoms: C2_5  and  C8_15 
REMARK    4  A    between atoms: C3_6  and  C4_7 
REMARK       I    between atoms: C8_15  and  N3_17 
REMARK    5  A    between atoms: N3_17  and  C9_19 
REMARK    6  A    between atoms: C9_19  and  C10_20 
REMARK    7  A    between atoms: C10_20  and  C11_21 
REMARK    8  A    between atoms: C11_21  and  N4_22 
ROOT
HETATM    1  N1  UNL     1       8.004   9.156  19.884  1.00  0.00    -0.266 N 
ATOM      2  H1  UNL     1       7.948   9.205  18.867  1.00  0.00     0.194 HD
HETATM    3  C2  UNL     1       7.399   8.154  20.318  1.00  0.00     0.105 C 
ENDROOT
BRANCH   3   4
HETATM    4  C3  UNL     1       6.738   7.261  19.290  1.00  0.00     0.122 C 
BRANCH   4   5
HETATM    5  C4  UNL     1       7.065   5.842  19.475  1.00  0.00     0.017 A 
HETATM    6  C5  UNL     1       7.940   5.165  18.632  1.00  0.00     0.047 A 
HETATM    7  C6  UNL     1       8.053   3.860  19.077  1.00  0.00     0.046 A 
HETATM    8 BR1  UNL     1       9.103   2.441  18.343  1.00  0.00    -0.048 Br
HETATM    9  C7  UNL     1       7.247   3.775  20.173  1.00  0.00     0.097 A 
HETATM   10 BR2  UNL     1       6.969   2.236  21.237  1.00  0.00    -0.030 Br
HETATM   11  N2  UNL     1       6.649   4.980  20.411  1.00  0.00    -0.352 N 
ATOM     12  H2  UNL     1       6.000   5.187  21.170  1.00  0.00     0.166 HD
ENDBRANCH   4   5
ENDBRANCH   3   4
BRANCH   3  13
HETATM   13  C8  UNL     1       7.269   7.805  21.695  1.00  0.00     0.266 C 
HETATM   14  O2  UNL     1       8.135   7.079  22.245  1.00  0.00    -0.266 OA
HETATM   15  N3  UNL     1       6.198   8.239  22.499  1.00  0.00    -0.356 N 
ATOM     16  H3  UNL     1       5.482   8.820  22.063  1.00  0.00     0.162 HD
BRANCH  15  17
HETATM   17  C9  UNL     1       6.042   7.915  23.918  1.00  0.00     0.124 C 
BRANCH  17  18
HETATM   18  C10 UNL     1       6.623   8.959  24.803  1.00  0.00     0.039 C 
BRANCH  18  19
HETATM   19  C11 UNL     1       7.756   8.571  25.671  1.00  0.00     0.127 C 
BRANCH  19  20
HETATM   20  N4  UNL     1       9.090   8.752  25.211  1.00  0.00    -0.353 N 
HETATM   21  C12 UNL     1       9.605   9.511  24.117  1.00  0.00     0.169 A 
HETATM   22  C13 UNL     1      11.094   9.244  24.177  1.00  0.00     0.083 A 
HETATM   23  N5  UNL     1      11.369   8.477  25.139  1.00  0.00    -0.345 N 
HETATM   24  C14 UNL     1      10.213   8.124  25.831  1.00  0.00     0.173 A 
ATOM     25  H5  UNL     1      12.308   8.159  25.378  1.00  0.00     0.167 HD
HETATM   26  S1  UNL     1      10.144   7.140  27.158  1.00  0.00    -0.041 SA
ENDBRANCH  19  20
ENDBRANCH  18  19
ENDBRANCH  17  18
ENDBRANCH  15  17
ENDBRANCH   3  13
BRANCH   1  27
HETATM   27  O1  UNL     1       8.696  10.170  20.366  1.00  0.00    -0.285 OA
HETATM   28  C1  UNL     1       8.014  11.395  20.676  1.00  0.00     0.237 C 
ENDBRANCH   1  27
TORSDOF 8
ENDMDL
MODEL 3
REMARK VINA RESULT: -6.993648867      1.968      2.878
REMARK  8 active torsions:
REMARK  status: ('A' for Active; 'I' for Inactive)
REMARK    1  A    between atoms: O1_2  and  N1_3 
REMARK    2  A    between atoms: C2_5  and  C3_6 
REMARK    3  A    between atoms: C2_5  and  C8_15 
REMARK    4  A    between atoms: C3_6  and  C4_7 
REMARK       I    between atoms: C8_15  and  N3_17 
REMARK    5  A    between atoms: N3_17  and  C9_19 
REMARK    6  A    between atoms: C9_19  and  C10_20 
REMARK    7  A    between atoms: C10_20  and  C11_21 
REMARK    8  A    between atoms: C11_21  and  N4_22 
ROOT
HETATM    1  N1  UNL     1       6.216   5.012  20.638  1.00  0.00    -0.266 N 
ATOM      2  H1  UNL     1       6.062   4.376  19.855  1.00  0.00     0.194 HD
HETATM    3  C2  UNL     1       7.030   5.908  20.333  1.00  0.00     0.105 C 
ENDROOT
BRANCH   3   4
HETATM    4  C3  UNL     1       7.593   5.867  18.930  1.00  0.00     0.122 C 
BRANCH   4   5
HETATM    5  C4  UNL     1       7.755   4.501  18.421  1.00  0.00     0.017 A 
HETATM    6  C5  UNL     1       8.937   3.784  18.578  1.00  0.00     0.047 A 
HETATM    7  C6  UNL     1       8.769   2.533  18.013  1.00  0.00     0.046 A 
HETATM    8 BR1  UNL     1      10.026   1.097  17.910  1.00  0.00    -0.048 Br
HETATM    9  C7  UNL     1       7.495   2.519  17.527  1.00  0.00     0.097 A 
HETATM   10 BR2  UNL     1       6.658   1.077  16.633  1.00  0.00    -0.030 Br
HETATM   11  N2  UNL     1       6.884   3.715  17.777  1.00  0.00    -0.352 N 
ATOM     12  H2  UNL     1       5.929   3.965  17.518  1.00  0.00     0.166 HD
ENDBRANCH   4   5
ENDBRANCH   3   4
BRANCH   3  13
HETATM   13  C8  UNL     1       7.478   6.942  21.208  1.00  0.00     0.266 C 
HETATM   14  O2  UNL     1       8.346   7.764  20.819  1.00  0.00    -0.266 OA
HETATM   15  N3  UNL     1       6.992   7.102  22.519  1.00  0.00    -0.356 N 
ATOM     16  H3  UNL     1       6.296   6.436  22.853  1.00  0.00     0.162 HD
BRANCH  15  17
HETATM   17  C9  UNL     1       7.417   8.161  23.437  1.00  0.00     0.124 C 
BRANCH  17  18
HETATM   18  C10 UNL     1       7.487   7.693  24.846  1.00  0.00     0.039 C 
BRANCH  18  19
HETATM   19  C11 UNL     1       8.314   8.474  25.790  1.00  0.00     0.127 C 
BRANCH  19  20
HETATM   20  N4  UNL     1       9.590   7.983  26.182  1.00  0.00    -0.353 N 
HETATM   21  C12 UNL     1       9.967   7.112  27.250  1.00  0.00     0.169 A 
HETATM   22  C13 UNL     1      11.473   7.027  27.115  1.00  0.00     0.083 A 
HETATM   23  N5  UNL     1      11.871   7.720  26.140  1.00  0.00    -0.345 N 
HETATM   24  C14 UNL     1      10.797   8.339  25.507  1.00  0.00     0.173 A 
ATOM     25  H5  UNL     1      12.846   7.814  25.855  1.00  0.00     0.167 HD
HETATM   26  S1  UNL     1      10.893   9.327  24.185  1.00  0.00    -0.041 SA
ENDBRANCH  19  20
ENDBRANCH  18  19
ENDBRANCH  17  18
ENDBRANCH  15  17
ENDBRANCH   3  13
BRANCH   1  27
HETATM   27  O1  UNL     1       5.498   4.652  21.684  1.00  0.00    -0.285 OA
HETATM   28  C1  UNL     1       5.011   3.304  21.765  1.00  0.00     0.237 C 
ENDBRANCH   1  27
TORSDOF 8
ENDMDL
MODEL 4
REMARK VINA RESULT: -6.880250110      3.997      4.832
REMARK  8 active torsions:
REMARK  status: ('A' for Active; 'I' for Inactive)
REMARK    1  A    between atoms: O1_2  and  N1_3 
REMARK    2  A    between atoms: C2_5  and  C3_6 
REMARK    3  A    between atoms: C2_5  and  C8_15 
REMARK    4  A    between atoms: C3_6  and  C4_7 
REMARK       I    between atoms: C8_15  and  N3_17 
REMARK    5  A    between atoms: N3_17  and  C9_19 
REMARK    6  A    between atoms: C9_19  and  C10_20 
REMARK    7  A    between atoms: C10_20  and  C11_21 
REMARK    8  A    between atoms: C11_21  and  N4_22 
ROOT
HETATM    1  N1  UNL     1       7.787  12.164  19.838  1.00  0.00    -0.266 N 
ATOM      2  H1  UNL     1       7.097  12.647  19.261  1.00  0.00     0.194 HD
HETATM    3  C2  UNL     1       7.546  10.940  19.891  1.00  0.00     0.105 C 
ENDROOT
BRANCH   3   4
HETATM    4  C3  UNL     1       6.337  10.450  19.124  1.00  0.00     0.122 C 
BRANCH   4   5
HETATM    5  C4  UNL     1       6.351  10.863  17.716  1.00  0.00     0.017 A 
HETATM    6  C5  UNL     1       5.476  11.819  17.212  1.00  0.00     0.047 A 
HETATM    7  C6  UNL     1       5.751  12.000  15.869  1.00  0.00     0.046 A 
HETATM    8 BR1  UNL     1       4.896  13.174  14.627  1.00  0.00    -0.048 Br
HETATM    9  C7  UNL     1       6.783  11.152  15.589  1.00  0.00     0.097 A 
HETATM   10 BR2  UNL     1       7.620  10.931  13.907  1.00  0.00    -0.030 Br
HETATM   11  N2  UNL     1       7.144  10.465  16.713  1.00  0.00    -0.352 N 
ATOM     12  H2  UNL     1       7.888   9.769  16.776  1.00  0.00     0.166 HD
ENDBRANCH   4   5
ENDBRANCH   3   4
BRANCH   3  13
HETATM   13  C8  UNL     1       8.305   9.985  20.631  1.00  0.00     0.266 C 
HETATM   14  O2  UNL     1       9.033   9.157  20.028  1.00  0.00    -0.266 OA
HETATM   15  N3  UNL     1       8.288   9.914  22.036  1.00  0.00    -0.356 N 
ATOM     16  H3  UNL     1       7.693  10.572  22.538  1.00  0.00     0.162 HD
BRANCH  15  17
HETATM   17  C9  UNL     1       9.067   8.959  22.827  1.00  0.00     0.124 C 
BRANCH  17  18
HETATM   18  C10 UNL     1       9.773   9.609  23.963  1.00  0.00     0.039 C 
BRANCH  18  19
HETATM   19  C11 UNL     1      10.909   8.884  24.571  1.00  0.00     0.127 C 
BRANCH  19  20
HETATM   20  N4  UNL     1      10.698   8.096  25.736  1.00  0.00    -0.353 N 
HETATM   21  C12 UNL     1       9.492   7.711  26.398  1.00  0.00     0.169 A 
HETATM   22  C13 UNL     1       9.985   6.907  27.582  1.00  0.00     0.083 A 
HETATM   23  N5  UNL     1      11.244   6.843  27.582  1.00  0.00    -0.345 N 
HETATM   24  C14 UNL     1      11.770   7.536  26.496  1.00  0.00     0.173 A 
ATOM     25  H5  UNL     1      11.800   6.352  28.283  1.00  0.00     0.167 HD
HETATM   26  S1  UNL     1      13.376   7.688  26.132  1.00  0.00    -0.041 SA
ENDBRANCH  19  20
ENDBRANCH  18  19
ENDBRANCH  17  18
ENDBRANCH  15  17
ENDBRANCH   3  13
BRANCH   1  27
HETATM   27  O1  UNL     1       8.678  13.011  20.314  1.00  0.00    -0.285 OA
HETATM   28  C1  UNL     1       8.301  13.892  21.384  1.00  0.00     0.237 C 
ENDBRANCH   1  27
TORSDOF 8
ENDMDL
MODEL 5
REMARK VINA RESULT: -6.805634849      3.794      5.438
REMARK  8 active torsions:
REMARK  status: ('A' for Active; 'I' for Inactive)
REMARK    1  A    between atoms: O1_2  and  N1_3 
REMARK    2  A    between atoms: C2_5  and  C3_6 
REMARK    3  A    between atoms: C2_5  and  C8_15 
REMARK    4  A    between atoms: C3_6  and  C4_7 
REMARK       I    between atoms: C8_15  and  N3_17 
REMARK    5  A    between atoms: N3_17  and  C9_19 
REMARK    6  A    between atoms: C9_19  and  C10_20 
REMARK    7  A    between atoms: C10_20  and  C11_21 
REMARK    8  A    between atoms: C11_21  and  N4_22 
ROOT
HETATM    1  N1  UNL     1       7.497  12.246  19.704  1.00  0.00    -0.266 N 
ATOM      2  H1  UNL     1       6.993  13.063  19.358  1.00  0.00     0.194 HD
HETATM    3  C2  UNL     1       6.963  11.190  19.302  1.00  0.00     0.105 C 
ENDROOT
BRANCH   3   4
HETATM    4  C3  UNL     1       5.738  11.337  18.428  1.00  0.00     0.122 C 
BRANCH   4   5
HETATM    5  C4  UNL     1       6.061  11.379  16.997  1.00  0.00     0.017 A 
HETATM    6  C5  UNL     1       5.328  12.139  16.091  1.00  0.00     0.047 A 
HETATM    7  C6  UNL     1       5.889  11.984  14.836  1.00  0.00     0.046 A 
HETATM    8 BR1  UNL     1       5.337  12.769  13.183  1.00  0.00    -0.048 Br
HETATM    9  C7  UNL     1       6.945  11.138  15.008  1.00  0.00     0.097 A 
HETATM   10 BR2  UNL     1       8.121  10.533  13.656  1.00  0.00    -0.030 Br
HETATM   11  N2  UNL     1       7.045  10.774  16.321  1.00  0.00    -0.352 N 
ATOM     12  H2  UNL     1       7.748  10.149  16.716  1.00  0.00     0.166 HD
ENDBRANCH   4   5
ENDBRANCH   3   4
BRANCH   3  13
HETATM   13  C8  UNL     1       7.408   9.873  19.622  1.00  0.00     0.266 C 
HETATM   14  O2  UNL     1       8.300   9.324  18.928  1.00  0.00    -0.266 OA
HETATM   15  N3  UNL     1       6.892   9.130  20.701  1.00  0.00    -0.356 N 
ATOM     16  H3  UNL     1       6.160   9.559  21.266  1.00  0.00     0.162 HD
BRANCH  15  17
HETATM   17  C9  UNL     1       7.337   7.784  21.068  1.00  0.00     0.124 C 
BRANCH  17  18
HETATM   18  C10 UNL     1       8.507   7.805  21.984  1.00  0.00     0.039 C 
BRANCH  18  19
HETATM   19  C11 UNL     1       8.553   8.861  23.017  1.00  0.00     0.127 C 
BRANCH  19  20
HETATM   20  N4  UNL     1       8.901   8.524  24.354  1.00  0.00    -0.353 N 
HETATM   21  C12 UNL     1      10.165   8.525  25.019  1.00  0.00     0.169 A 
HETATM   22  C13 UNL     1       9.829   8.033  26.411  1.00  0.00     0.083 A 
HETATM   23  N5  UNL     1       8.594   7.805  26.514  1.00  0.00    -0.345 N 
HETATM   24  C14 UNL     1       7.942   8.076  25.314  1.00  0.00     0.173 A 
ATOM     25  H5  UNL     1       8.135   7.467  27.360  1.00  0.00     0.167 HD
HETATM   26  S1  UNL     1       6.321   7.911  25.036  1.00  0.00    -0.041 SA
ENDBRANCH  19  20
ENDBRANCH  18  19
ENDBRANCH  17  18
ENDBRANCH  15  17
ENDBRANCH   3  13
BRANCH   1  27
HETATM   27  O1  UNL     1       8.525  12.605  20.446  1.00  0.00    -0.285 OA
HETATM   28  C1  UNL     1       8.397  13.745  21.309  1.00  0.00     0.237 C 
ENDBRANCH   1  27
TORSDOF 8
ENDMDL
