MODEL 1
REMARK VINA RESULT: -9.675591221      0.000      0.000
REMARK  12 active torsions:
REMARK  status: ('A' for Active; 'I' for Inactive)
REMARK    1  A    between atoms: N1_1  and  C1_4 
REMARK    2  A    between atoms: C5_14  and  C6_15 
REMARK    3  A    between atoms: N6_18  and  C7_19 
REMARK    4  A    between atoms: C7_19  and  N7_20 
REMARK    5  A    between atoms: N7_20  and  O1_21 
REMARK    6  A    between atoms: N9_25  and  C8_26 
REMARK    7  A    between atoms: C8_26  and  N10_27 
REMARK    8  A    between atoms: C12_32  and  O3_33 
REMARK    9  A    between atoms: C12_32  and  C13_35 
REMARK   10  A    between atoms: C13_35  and  O4_36 
REMARK   11  A    between atoms: C13_35  and  C14_38 
REMARK   12  A    between atoms: C14_38  and  O5_39 
ROOT
HETATM    1  C1  UNL     1       6.091   0.467  24.660  1.00  0.00     0.131 A 
HETATM    2  N2  UNL     1       7.181   0.453  23.882  1.00  0.00    -0.337 N 
ATOM      3  H2  UNL     1       8.110   0.330  24.286  1.00  0.00     0.168 HD
HETATM    4  C2  UNL     1       7.022   0.604  22.557  1.00  0.00     0.183 A 
HETATM    5  N3  UNL     1       5.834   0.768  21.976  1.00  0.00    -0.336 N 
ATOM      6  H3  UNL     1       5.769   0.879  20.964  1.00  0.00     0.168 HD
HETATM    7  C3  UNL     1       4.728   0.787  22.729  1.00  0.00     0.146 A 
HETATM    8  C4  UNL     1       4.829   0.636  24.094  1.00  0.00     0.123 A 
HETATM    9  N4  UNL     1       3.593   0.692  24.598  1.00  0.00    -0.333 N 
ATOM     10  H4  UNL     1       3.357   0.609  25.588  1.00  0.00     0.168 HD
HETATM   11  C5  UNL     1       2.692   0.876  23.591  1.00  0.00     0.162 A 
HETATM   12  N9  UNL     1       3.389   0.930  22.468  1.00  0.00    -0.279 N 
ENDROOT
BRANCH  12  13
HETATM   13  C8  UNL     1       2.917   1.135  21.109  1.00  0.00     0.165 C 
BRANCH  13  14
HETATM   14  N10 UNL     1       3.688   0.511  20.129  1.00  0.00    -0.238 NA
HETATM   15  C9  UNL     1       3.193  -0.463  19.220  1.00  0.00     0.144 C 
HETATM   16  C10 UNL     1       4.301  -0.015  18.294  1.00  0.00     0.142 A 
HETATM   17  C11 UNL     1       5.119  -0.671  17.487  1.00  0.00     0.213 A 
HETATM   18  O2  UNL     1       5.571  -0.647  18.811  1.00  0.00    -0.369 OA
HETATM   19  C12 UNL     1       4.116   1.277  18.959  1.00  0.00     0.182 C 
BRANCH  19  20
HETATM   20  O3  UNL     1       3.033   1.982  18.440  1.00  0.00    -0.369 OA
ATOM     21  H3  UNL     1       3.082   2.890  18.714  1.00  0.00     0.212 HD
ENDBRANCH  19  20
BRANCH  19  22
HETATM   22  C13 UNL     1       5.293   2.169  19.211  1.00  0.00     0.195 C 
BRANCH  22  23
HETATM   23  O4  UNL     1       6.524   1.585  19.057  1.00  0.00    -0.389 OA
ATOM     24  H4  UNL     1       7.009   1.431  19.859  1.00  0.00     0.210 HD
ENDBRANCH  22  23
BRANCH  22  25
HETATM   25  C14 UNL     1       5.245   3.468  18.496  1.00  0.00     0.200 C 
BRANCH  25  26
HETATM   26  O5  UNL     1       5.584   3.443  17.164  1.00  0.00    -0.398 OA
ATOM     27  H5  UNL     1       4.878   3.600  16.547  1.00  0.00     0.209 HD
ENDBRANCH  25  26
ENDBRANCH  22  25
ENDBRANCH  19  22
ENDBRANCH  13  14
ENDBRANCH  12  13
BRANCH  11  28
HETATM   28  C6  UNL     1       1.237   1.019  23.781  1.00  0.00     0.183 A 
HETATM   29  N5  UNL     1       0.479   1.836  24.572  1.00  0.00    -0.263 N 
HETATM   30  N6  UNL     1      -0.640   1.309  24.122  1.00  0.00    -0.214 N 
ATOM     31  H5  UNL     1       0.696   2.568  25.249  1.00  0.00     0.190 HD
HETATM   32  N8  UNL     1       0.085   0.517  23.356  1.00  0.00    -0.263 N 
ATOM     33  H8  UNL     1      -0.153  -0.212  22.684  1.00  0.00     0.190 HD
BRANCH  30  34
HETATM   34  C7  UNL     1      -2.081   1.501  24.355  1.00  0.00     0.311 C 
BRANCH  34  35
HETATM   35  N7  UNL     1      -2.553   0.292  24.980  1.00  0.00    -0.081 NA
BRANCH  35  36
HETATM   36  O1  UNL     1      -1.810   0.008  26.058  1.00  0.00    -0.294 OA
ATOM     37  H1  UNL     1      -2.298  -0.545  26.656  1.00  0.00     0.238 HD
ENDBRANCH  35  36
ENDBRANCH  34  35
ENDBRANCH  30  34
ENDBRANCH  11  28
BRANCH   1  38
HETATM   38  N1  UNL     1       6.222   0.324  25.922  1.00  0.00    -0.383 N 
ATOM     39  H12 UNL     1       7.137   0.421  26.362  1.00  0.00     0.157 HD
ATOM     40  H11 UNL     1       5.401   0.112  26.489  1.00  0.00     0.157 HD
ENDBRANCH   1  38
TORSDOF 12
ENDMDL
MODEL 2
REMARK VINA RESULT: -9.630730295      3.241      6.268
REMARK  12 active torsions:
REMARK  status: ('A' for Active; 'I' for Inactive)
REMARK    1  A    between atoms: N1_1  and  C1_4 
REMARK    2  A    between atoms: C5_14  and  C6_15 
REMARK    3  A    between atoms: N6_18  and  C7_19 
REMARK    4  A    between atoms: C7_19  and  N7_20 
REMARK    5  A    between atoms: N7_20  and  O1_21 
REMARK    6  A    between atoms: N9_25  and  C8_26 
REMARK    7  A    between atoms: C8_26  and  N10_27 
REMARK    8  A    between atoms: C12_32  and  O3_33 
REMARK    9  A    between atoms: C12_32  and  C13_35 
REMARK   10  A    between atoms: C13_35  and  O4_36 
REMARK   11  A    between atoms: C13_35  and  C14_38 
REMARK   12  A    between atoms: C14_38  and  O5_39 
ROOT
HETATM    1  C1  UNL     1       6.162   1.315  18.241  1.00  0.00     0.131 A 
HETATM    2  N2  UNL     1       5.348   1.331  17.177  1.00  0.00    -0.337 N 
ATOM      3  H2  UNL     1       5.723   1.441  16.234  1.00  0.00     0.168 HD
HETATM    4  C2  UNL     1       4.028   1.200  17.380  1.00  0.00     0.183 A 
HETATM    5  N3  UNL     1       3.484   1.055  18.587  1.00  0.00    -0.336 N 
ATOM      6  H3  UNL     1       2.473   0.959  18.687  1.00  0.00     0.168 HD
HETATM    7  C3  UNL     1       4.271   1.036  19.669  1.00  0.00     0.146 A 
HETATM    8  C4  UNL     1       5.635   1.165  19.522  1.00  0.00     0.123 A 
HETATM    9  N4  UNL     1       6.178   1.114  20.742  1.00  0.00    -0.333 N 
ATOM     10  H4  UNL     1       7.176   1.183  20.944  1.00  0.00     0.168 HD
HETATM   11  C5  UNL     1       5.198   0.954  21.677  1.00  0.00     0.162 A 
HETATM   12  N9  UNL     1       4.053   0.906  21.017  1.00  0.00    -0.279 N 
ENDROOT
BRANCH  12  13
HETATM   13  C8  UNL     1       2.703   0.770  21.538  1.00  0.00     0.165 C 
BRANCH  13  14
HETATM   14  N10 UNL     1       2.420   1.587  22.632  1.00  0.00    -0.238 NA
HETATM   15  C9  UNL     1       1.938   2.920  22.532  1.00  0.00     0.144 C 
HETATM   16  C10 UNL     1       1.331   2.696  23.898  1.00  0.00     0.142 A 
HETATM   17  C11 UNL     1       1.221   3.462  24.971  1.00  0.00     0.213 A 
HETATM   18  O2  UNL     1       2.461   2.816  24.893  1.00  0.00    -0.369 OA
HETATM   19  C12 UNL     1       1.245   1.302  23.454  1.00  0.00     0.182 C 
BRANCH  19  20
HETATM   20  O3  UNL     1       0.142   1.083  22.632  1.00  0.00    -0.369 OA
ATOM     21  H3  UNL     1      -0.595   1.594  22.945  1.00  0.00     0.212 HD
ENDBRANCH  19  20
BRANCH  19  22
HETATM   22  C13 UNL     1       1.442   0.186  24.434  1.00  0.00     0.195 C 
BRANCH  22  23
HETATM   23  O4  UNL     1       2.412   0.392  25.380  1.00  0.00    -0.389 OA
ATOM     24  H4  UNL     1       2.118   0.364  26.283  1.00  0.00     0.210 HD
ENDBRANCH  22  23
BRANCH  22  25
HETATM   25  C14 UNL     1       0.194  -0.300  25.072  1.00  0.00     0.200 C 
BRANCH  25  26
HETATM   26  O5  UNL     1      -0.512  -1.255  24.380  1.00  0.00    -0.398 OA
ATOM     27  H5  UNL     1      -0.788  -2.017  24.876  1.00  0.00     0.209 HD
ENDBRANCH  25  26
ENDBRANCH  22  25
ENDBRANCH  19  22
ENDBRANCH  13  14
ENDBRANCH  12  13
BRANCH  11  28
HETATM   28  C6  UNL     1       5.428   0.891  23.132  1.00  0.00     0.183 A 
HETATM   29  N5  UNL     1       5.213   1.782  24.146  1.00  0.00    -0.263 N 
HETATM   30  N6  UNL     1       5.674   0.938  25.045  1.00  0.00    -0.214 N 
ATOM     31  H5  UNL     1       4.840   2.730  24.189  1.00  0.00     0.190 HD
HETATM   32  N8  UNL     1       5.885   0.074  24.072  1.00  0.00    -0.263 N 
ATOM     33  H8  UNL     1       6.261  -0.874  24.050  1.00  0.00     0.190 HD
BRANCH  30  34
HETATM   34  C7  UNL     1       5.877   0.937  26.503  1.00  0.00     0.311 C 
BRANCH  34  35
HETATM   35  N7  UNL     1       4.574   1.103  27.092  1.00  0.00    -0.081 NA
BRANCH  35  36
HETATM   36  O1  UNL     1       4.237   2.400  27.111  1.00  0.00    -0.294 OA
ATOM     37  H1  UNL     1       3.337   2.508  26.829  1.00  0.00     0.238 HD
ENDBRANCH  35  36
ENDBRANCH  34  35
ENDBRANCH  30  34
ENDBRANCH  11  28
BRANCH   1  38
HETATM   38  N1  UNL     1       7.420   1.438  18.067  1.00  0.00    -0.383 N 
ATOM     39  H12 UNL     1       7.879   1.000  17.268  1.00  0.00     0.157 HD
ATOM     40  H11 UNL     1       7.966   1.980  18.738  1.00  0.00     0.157 HD
ENDBRANCH   1  38
TORSDOF 12
ENDMDL
MODEL 3
REMARK VINA RESULT: -8.957323764      3.337      6.179
REMARK  12 active torsions:
REMARK  status: ('A' for Active; 'I' for Inactive)
REMARK    1  A    between atoms: N1_1  and  C1_4 
REMARK    2  A    between atoms: C5_14  and  C6_15 
REMARK    3  A    between atoms: N6_18  and  C7_19 
REMARK    4  A    between atoms: C7_19  and  N7_20 
REMARK    5  A    between atoms: N7_20  and  O1_21 
REMARK    6  A    between atoms: N9_25  and  C8_26 
REMARK    7  A    between atoms: C8_26  and  N10_27 
REMARK    8  A    between atoms: C12_32  and  O3_33 
REMARK    9  A    between atoms: C12_32  and  C13_35 
REMARK   10  A    between atoms: C13_35  and  O4_36 
REMARK   11  A    between atoms: C13_35  and  C14_38 
REMARK   12  A    between atoms: C14_38  and  O5_39 
ROOT
HETATM    1  C1  UNL     1       5.804   0.227  19.052  1.00  0.00     0.131 A 
HETATM    2  N2  UNL     1       4.965   0.473  18.037  1.00  0.00    -0.337 N 
ATOM      3  H2  UNL     1       5.213   0.216  17.081  1.00  0.00     0.168 HD
HETATM    4  C2  UNL     1       3.792   1.067  18.306  1.00  0.00     0.183 A 
HETATM    5  N3  UNL     1       3.418   1.425  19.534  1.00  0.00    -0.336 N 
ATOM      6  H3  UNL     1       2.514   1.874  19.685  1.00  0.00     0.168 HD
HETATM    7  C3  UNL     1       4.235   1.193  20.568  1.00  0.00     0.146 A 
HETATM    8  C4  UNL     1       5.453   0.586  20.352  1.00  0.00     0.123 A 
HETATM    9  N4  UNL     1       6.063   0.474  21.536  1.00  0.00    -0.333 N 
ATOM     10  H4  UNL     1       6.983   0.060  21.685  1.00  0.00     0.168 HD
HETATM   11  C5  UNL     1       5.268   0.994  22.515  1.00  0.00     0.162 A 
HETATM   12  N9  UNL     1       4.168   1.423  21.918  1.00  0.00    -0.279 N 
ENDROOT
BRANCH  12  13
HETATM   13  C8  UNL     1       3.011   2.081  22.501  1.00  0.00     0.165 C 
BRANCH  13  14
HETATM   14  N10 UNL     1       2.047   1.211  23.010  1.00  0.00    -0.238 NA
HETATM   15  C9  UNL     1       2.304  -0.133  23.394  1.00  0.00     0.144 C 
HETATM   16  C10 UNL     1       1.127   0.016  24.330  1.00  0.00     0.142 A 
HETATM   17  C11 UNL     1       0.138  -0.795  24.670  1.00  0.00     0.213 A 
HETATM   18  O2  UNL     1      -0.115  -0.104  23.479  1.00  0.00    -0.369 OA
HETATM   19  C12 UNL     1       1.537   1.422  24.365  1.00  0.00     0.182 C 
BRANCH  19  20
HETATM   20  O3  UNL     1       2.602   1.635  25.237  1.00  0.00    -0.369 OA
ATOM     21  H3  UNL     1       2.371   2.311  25.863  1.00  0.00     0.212 HD
ENDBRANCH  19  20
BRANCH  19  22
HETATM   22  C13 UNL     1       0.507   2.505  24.467  1.00  0.00     0.195 C 
BRANCH  22  23
HETATM   23  O4  UNL     1      -0.684   2.138  25.039  1.00  0.00    -0.389 OA
ATOM     24  H4  UNL     1      -1.078   2.783  25.615  1.00  0.00     0.210 HD
ENDBRANCH  22  23
BRANCH  22  25
HETATM   25  C14 UNL     1       1.000   3.769  25.066  1.00  0.00     0.200 C 
BRANCH  25  26
HETATM   26  O5  UNL     1       0.866   4.901  24.297  1.00  0.00    -0.398 OA
ATOM     27  H5  UNL     1       1.563   5.543  24.367  1.00  0.00     0.209 HD
ENDBRANCH  25  26
ENDBRANCH  22  25
ENDBRANCH  19  22
ENDBRANCH  13  14
ENDBRANCH  12  13
BRANCH  11  28
HETATM   28  C6  UNL     1       5.635   1.071  23.941  1.00  0.00     0.183 A 
HETATM   29  N5  UNL     1       5.951   0.121  24.871  1.00  0.00    -0.263 N 
HETATM   30  N6  UNL     1       6.128   1.031  25.806  1.00  0.00    -0.214 N 
ATOM     31  H5  UNL     1       6.022  -0.896  24.850  1.00  0.00     0.190 HD
HETATM   32  N8  UNL     1       5.823   1.953  24.914  1.00  0.00    -0.263 N 
ATOM     33  H8  UNL     1       5.757   2.970  24.956  1.00  0.00     0.190 HD
BRANCH  30  34
HETATM   34  C7  UNL     1       6.501   1.041  27.230  1.00  0.00     0.311 C 
BRANCH  34  35
HETATM   35  N7  UNL     1       5.347   1.522  27.946  1.00  0.00    -0.081 NA
BRANCH  35  36
HETATM   36  O1  UNL     1       4.225   1.049  27.387  1.00  0.00    -0.294 OA
ATOM     37  H1  UNL     1       3.792   1.734  26.892  1.00  0.00     0.238 HD
ENDBRANCH  35  36
ENDBRANCH  34  35
ENDBRANCH  30  34
ENDBRANCH  11  28
BRANCH   1  38
HETATM   38  N1  UNL     1       6.924  -0.336  18.815  1.00  0.00    -0.383 N 
ATOM     39  H12 UNL     1       7.373  -0.235  17.904  1.00  0.00     0.157 HD
ATOM     40  H11 UNL     1       7.368  -0.892  19.546  1.00  0.00     0.157 HD
ENDBRANCH   1  38
TORSDOF 12
ENDMDL
MODEL 4
REMARK VINA RESULT: -8.942810781      3.306      6.587
REMARK  12 active torsions:
REMARK  status: ('A' for Active; 'I' for Inactive)
REMARK    1  A    between atoms: N1_1  and  C1_4 
REMARK    2  A    between atoms: C5_14  and  C6_15 
REMARK    3  A    between atoms: N6_18  and  C7_19 
REMARK    4  A    between atoms: C7_19  and  N7_20 
REMARK    5  A    between atoms: N7_20  and  O1_21 
REMARK    6  A    between atoms: N9_25  and  C8_26 
REMARK    7  A    between atoms: C8_26  and  N10_27 
REMARK    8  A    between atoms: C12_32  and  O3_33 
REMARK    9  A    between atoms: C12_32  and  C13_35 
REMARK   10  A    between atoms: C13_35  and  O4_36 
REMARK   11  A    between atoms: C13_35  and  C14_38 
REMARK   12  A    between atoms: C14_38  and  O5_39 
ROOT
HETATM    1  C1  UNL     1       6.034   1.575  18.829  1.00  0.00     0.131 A 
HETATM    2  N2  UNL     1       5.054   1.743  17.932  1.00  0.00    -0.337 N 
ATOM      3  H2  UNL     1       5.268   1.979  16.963  1.00  0.00     0.168 HD
HETATM    4  C2  UNL     1       3.783   1.595  18.339  1.00  0.00     0.183 A 
HETATM    5  N3  UNL     1       3.446   1.288  19.591  1.00  0.00    -0.336 N 
ATOM      6  H3  UNL     1       2.464   1.187  19.849  1.00  0.00     0.168 HD
HETATM    7  C3  UNL     1       4.404   1.115  20.509  1.00  0.00     0.146 A 
HETATM    8  C4  UNL     1       5.726   1.254  20.150  1.00  0.00     0.123 A 
HETATM    9  N4  UNL     1       6.466   1.031  21.240  1.00  0.00    -0.333 N 
ATOM     10  H4  UNL     1       7.485   1.065  21.276  1.00  0.00     0.168 HD
HETATM   11  C5  UNL     1       5.653   0.751  22.299  1.00  0.00     0.162 A 
HETATM   12  N9  UNL     1       4.412   0.803  21.845  1.00  0.00    -0.279 N 
ENDROOT
BRANCH  12  13
HETATM   13  C8  UNL     1       3.166   0.605  22.567  1.00  0.00     0.165 C 
BRANCH  13  14
HETATM   14  N10 UNL     1       2.633   1.766  23.127  1.00  0.00    -0.238 NA
HETATM   15  C9  UNL     1       1.255   2.111  23.093  1.00  0.00     0.144 C 
HETATM   16  C10 UNL     1       1.527   2.907  24.348  1.00  0.00     0.142 A 
HETATM   17  C11 UNL     1       1.111   4.090  24.772  1.00  0.00     0.213 A 
HETATM   18  O2  UNL     1       2.208   4.181  23.908  1.00  0.00    -0.369 OA
HETATM   19  C12 UNL     1       2.551   1.886  24.582  1.00  0.00     0.182 C 
BRANCH  19  20
HETATM   20  O3  UNL     1       2.011   0.718  25.117  1.00  0.00    -0.369 OA
ATOM     21  H3  UNL     1       2.297  -0.029  24.605  1.00  0.00     0.212 HD
ENDBRANCH  19  20
BRANCH  19  22
HETATM   22  C13 UNL     1       3.847   2.254  25.238  1.00  0.00     0.195 C 
BRANCH  22  23
HETATM   23  O4  UNL     1       4.435   3.406  24.783  1.00  0.00    -0.389 OA
ATOM     24  H4  UNL     1       4.100   4.213  25.157  1.00  0.00     0.210 HD
ENDBRANCH  22  23
BRANCH  22  25
HETATM   25  C14 UNL     1       3.810   2.243  26.721  1.00  0.00     0.200 C 
BRANCH  25  26
HETATM   26  O5  UNL     1       4.097   1.044  27.329  1.00  0.00    -0.398 OA
ATOM     27  H5  UNL     1       4.886   1.018  27.857  1.00  0.00     0.209 HD
ENDBRANCH  25  26
ENDBRANCH  22  25
ENDBRANCH  19  22
ENDBRANCH  13  14
ENDBRANCH  12  13
BRANCH  11  28
HETATM   28  C6  UNL     1       6.123   0.486  23.672  1.00  0.00     0.183 A 
HETATM   29  N5  UNL     1       7.218   0.903  24.375  1.00  0.00    -0.263 N 
HETATM   30  N6  UNL     1       6.848   0.225  25.441  1.00  0.00    -0.214 N 
ATOM     31  H5  UNL     1       8.013   1.506  24.159  1.00  0.00     0.190 HD
HETATM   32  N8  UNL     1       5.789  -0.182  24.768  1.00  0.00    -0.263 N 
ATOM     33  H8  UNL     1       5.003  -0.787  25.004  1.00  0.00     0.190 HD
BRANCH  30  34
HETATM   34  C7  UNL     1       7.368   0.002  26.799  1.00  0.00     0.311 C 
BRANCH  34  35
HETATM   35  N7  UNL     1       6.903   1.107  27.597  1.00  0.00    -0.081 NA
BRANCH  35  36
HETATM   36  O1  UNL     1       6.752   0.726  28.873  1.00  0.00    -0.294 OA
ATOM     37  H1  UNL     1       7.499   0.209  29.150  1.00  0.00     0.238 HD
ENDBRANCH  35  36
ENDBRANCH  34  35
ENDBRANCH  30  34
ENDBRANCH  11  28
BRANCH   1  38
HETATM   38  N1  UNL     1       7.249   1.712  18.461  1.00  0.00    -0.383 N 
ATOM     39  H12 UNL     1       7.754   0.931  18.041  1.00  0.00     0.157 HD
ATOM     40  H11 UNL     1       7.711   2.611  18.591  1.00  0.00     0.157 HD
ENDBRANCH   1  38
TORSDOF 12
ENDMDL
MODEL 5
REMARK VINA RESULT: -8.830860500      2.928      6.506
REMARK  12 active torsions:
REMARK  status: ('A' for Active; 'I' for Inactive)
REMARK    1  A    between atoms: N1_1  and  C1_4 
REMARK    2  A    between atoms: C5_14  and  C6_15 
REMARK    3  A    between atoms: N6_18  and  C7_19 
REMARK    4  A    between atoms: C7_19  and  N7_20 
REMARK    5  A    between atoms: N7_20  and  O1_21 
REMARK    6  A    between atoms: N9_25  and  C8_26 
REMARK    7  A    between atoms: C8_26  and  N10_27 
REMARK    8  A    between atoms: C12_32  and  O3_33 
REMARK    9  A    between atoms: C12_32  and  C13_35 
REMARK   10  A    between atoms: C13_35  and  O4_36 
REMARK   11  A    between atoms: C13_35  and  C14_38 
REMARK   12  A    between atoms: C14_38  and  O5_39 
ROOT
HETATM    1  C1  UNL     1       5.581   1.132  19.352  1.00  0.00     0.131 A 
HETATM    2  N2  UNL     1       4.567   1.024  18.484  1.00  0.00    -0.337 N 
ATOM      3  H2  UNL     1       4.729   1.100  17.480  1.00  0.00     0.168 HD
HETATM    4  C2  UNL     1       3.332   0.813  18.967  1.00  0.00     0.183 A 
HETATM    5  N3  UNL     1       3.064   0.706  20.268  1.00  0.00    -0.336 N 
ATOM      6  H3  UNL     1       2.107   0.545  20.583  1.00  0.00     0.168 HD
HETATM    7  C3  UNL     1       4.057   0.810  21.158  1.00  0.00     0.146 A 
HETATM    8  C4  UNL     1       5.345   1.026  20.721  1.00  0.00     0.123 A 
HETATM    9  N4  UNL     1       6.132   1.090  21.800  1.00  0.00    -0.333 N 
ATOM     10  H4  UNL     1       7.141   1.242  21.783  1.00  0.00     0.168 HD
HETATM   11  C5  UNL     1       5.383   0.920  22.927  1.00  0.00     0.162 A 
HETATM   12  N9  UNL     1       4.133   0.751  22.527  1.00  0.00    -0.279 N 
ENDROOT
BRANCH  12  13
HETATM   13  C8  UNL     1       2.937   0.552  23.327  1.00  0.00     0.165 C 
BRANCH  13  14
HETATM   14  N10 UNL     1       2.392   1.723  23.853  1.00  0.00    -0.238 NA
HETATM   15  C9  UNL     1       2.724   3.032  23.408  1.00  0.00     0.144 C 
HETATM   16  C10 UNL     1       1.356   3.438  23.902  1.00  0.00     0.142 A 
HETATM   17  C11 UNL     1       0.910   4.508  24.541  1.00  0.00     0.213 A 
HETATM   18  O2  UNL     1       1.460   3.553  25.405  1.00  0.00    -0.369 OA
HETATM   19  C12 UNL     1       0.999   2.059  23.562  1.00  0.00     0.182 C 
BRANCH  19  20
HETATM   20  O3  UNL     1       0.756   1.903  22.199  1.00  0.00    -0.369 OA
ATOM     21  H3  UNL     1       1.494   1.463  21.793  1.00  0.00     0.212 HD
ENDBRANCH  19  20
BRANCH  19  22
HETATM   22  C13 UNL     1       0.004   1.310  24.395  1.00  0.00     0.195 C 
BRANCH  22  23
HETATM   23  O4  UNL     1      -1.032   2.056  24.894  1.00  0.00    -0.389 OA
ATOM     24  H4  UNL     1      -1.045   2.162  25.838  1.00  0.00     0.210 HD
ENDBRANCH  22  23
BRANCH  22  25
HETATM   25  C14 UNL     1      -0.508   0.065  23.772  1.00  0.00     0.200 C 
BRANCH  25  26
HETATM   26  O5  UNL     1      -0.024  -1.116  24.283  1.00  0.00    -0.398 OA
ATOM     27  H5  UNL     1      -0.584  -1.877  24.186  1.00  0.00     0.209 HD
ENDBRANCH  25  26
ENDBRANCH  22  25
ENDBRANCH  19  22
ENDBRANCH  13  14
ENDBRANCH  12  13
BRANCH  11  28
HETATM   28  C6  UNL     1       5.913   0.965  24.302  1.00  0.00     0.183 A 
HETATM   29  N5  UNL     1       6.135  -0.000  25.244  1.00  0.00    -0.263 N 
HETATM   30  N6  UNL     1       6.592   0.883  26.107  1.00  0.00    -0.214 N 
ATOM     31  H5  UNL     1       6.000  -1.011  25.268  1.00  0.00     0.190 HD
HETATM   32  N8  UNL     1       6.380   1.820  25.203  1.00  0.00    -0.263 N 
ATOM     33  H8  UNL     1       6.522   2.830  25.198  1.00  0.00     0.190 HD
BRANCH  30  34
HETATM   34  C7  UNL     1       7.115   0.861  27.482  1.00  0.00     0.311 C 
BRANCH  34  35
HETATM   35  N7  UNL     1       6.010   1.204  28.340  1.00  0.00    -0.081 NA
BRANCH  35  36
HETATM   36  O1  UNL     1       4.849   0.930  27.731  1.00  0.00    -0.294 OA
ATOM     37  H1  UNL     1       4.699  -0.008  27.717  1.00  0.00     0.238 HD
ENDBRANCH  35  36
ENDBRANCH  34  35
ENDBRANCH  30  34
ENDBRANCH  11  28
BRANCH   1  38
HETATM   38  N1  UNL     1       6.762   1.332  18.911  1.00  0.00    -0.383 N 
ATOM     39  H12 UNL     1       7.350   2.061  19.316  1.00  0.00     0.157 HD
ATOM     40  H11 UNL     1       7.115   0.756  18.146  1.00  0.00     0.157 HD
ENDBRANCH   1  38
TORSDOF 12
ENDMDL
