MODEL 1
REMARK VINA RESULT: -6.404082426      0.000      0.000
REMARK  3 active torsions:
REMARK  status: ('A' for Active; 'I' for Inactive)
REMARK    1  A    between atoms: C4_8  and  S1_9 
REMARK    2  A    between atoms: S1_9  and  N4_10 
REMARK    3  A    between atoms: C5_17  and  N6_18 
ROOT
HETATM    1  N1  UNL     1      42.713  26.773  97.154  1.00  0.00    -0.191 NA
HETATM    2  C1  UNL     1      42.886  25.886  97.899  1.00  0.00     0.106 C 
HETATM    3  C2  UNL     1      43.074  24.794  98.814  1.00  0.00     0.129 A 
HETATM    4  C3  UNL     1      43.711  23.619  98.431  1.00  0.00     0.143 A 
HETATM    5  N2  UNL     1      44.173  23.546  97.083  1.00  0.00    -0.081 NA
HETATM    6  N3  UNL     1      43.894  22.590  99.274  1.00  0.00    -0.319 N 
ATOM      7  H3  UNL     1      44.366  21.744  98.954  1.00  0.00     0.169 HD
HETATM    8  C4  UNL     1      43.457  22.679 100.526  1.00  0.00     0.226 A 
HETATM    9  N5  UNL     1      42.837  23.799 100.928  1.00  0.00    -0.317 N 
ATOM     10  H5  UNL     1      42.506  23.854 101.891  1.00  0.00     0.169 HD
HETATM   11  C5  UNL     1      42.635  24.846 100.122  1.00  0.00     0.125 A 
ENDROOT
BRANCH  11  12
HETATM   12  N6  UNL     1      42.030  25.904 100.564  1.00  0.00    -0.384 N 
ATOM     13  H62 UNL     1      42.480  26.817 100.503  1.00  0.00     0.157 HD
ATOM     14  H61 UNL     1      41.099  25.828 100.974  1.00  0.00     0.157 HD
ENDBRANCH  11  12
BRANCH   8  15
HETATM   15  S1  UNL     1      43.640  21.405 101.709  1.00  0.00     0.289 S 
HETATM   16  O1  UNL     1      42.559  20.378 101.509  1.00  0.00    -0.198 OA
HETATM   17  O2  UNL     1      45.013  20.799 101.608  1.00  0.00    -0.198 OA
BRANCH  15  18
HETATM   18  N4  UNL     1      43.472  22.071 103.282  1.00  0.00    -0.322 N 
ATOM     19  H42 UNL     1      42.682  22.635 103.592  1.00  0.00     0.169 HD
ATOM     20  H41 UNL     1      44.283  21.809 103.844  1.00  0.00     0.169 HD
ENDBRANCH  15  18
ENDBRANCH   8  15
TORSDOF 3
ENDMDL
MODEL 2
REMARK VINA RESULT: -6.030098588      3.621      5.073
REMARK  3 active torsions:
REMARK  status: ('A' for Active; 'I' for Inactive)
REMARK    1  A    between atoms: C4_8  and  S1_9 
REMARK    2  A    between atoms: S1_9  and  N4_10 
REMARK    3  A    between atoms: C5_17  and  N6_18 
ROOT
HETATM    1  N1  UNL     1      43.968  21.887 102.845  1.00  0.00    -0.191 NA
HETATM    2  C1  UNL     1      43.896  22.598 101.917  1.00  0.00     0.106 C 
HETATM    3  C2  UNL     1      43.832  23.478 100.782  1.00  0.00     0.129 A 
HETATM    4  C3  UNL     1      43.705  22.992  99.486  1.00  0.00     0.143 A 
HETATM    5  N2  UNL     1      43.641  21.575  99.331  1.00  0.00    -0.081 NA
HETATM    6  N3  UNL     1      43.644  23.801  98.416  1.00  0.00    -0.319 N 
ATOM      7  H3  UNL     1      43.552  23.406  97.480  1.00  0.00     0.169 HD
HETATM    8  C4  UNL     1      43.705  25.118  98.582  1.00  0.00     0.226 A 
HETATM    9  N5  UNL     1      43.828  25.620  99.820  1.00  0.00    -0.317 N 
ATOM     10  H5  UNL     1      43.875  26.633  99.933  1.00  0.00     0.169 HD
HETATM   11  C5  UNL     1      43.893  24.851 100.911  1.00  0.00     0.125 A 
ENDROOT
BRANCH  11  12
HETATM   12  N6  UNL     1      44.011  25.389 102.085  1.00  0.00    -0.384 N 
ATOM     13  H62 UNL     1      44.873  25.276 102.618  1.00  0.00     0.157 HD
ATOM     14  H61 UNL     1      43.241  25.930 102.480  1.00  0.00     0.157 HD
ENDBRANCH  11  12
BRANCH   8  15
HETATM   15  S1  UNL     1      43.635  26.265  97.265  1.00  0.00     0.289 S 
HETATM   16  O1  UNL     1      44.154  25.619  96.010  1.00  0.00    -0.198 OA
HETATM   17  O2  UNL     1      42.228  26.770  97.094  1.00  0.00    -0.198 OA
BRANCH  15  18
HETATM   18  N4  UNL     1      44.635  27.611  97.636  1.00  0.00    -0.322 N 
ATOM     19  H42 UNL     1      45.328  27.629  98.384  1.00  0.00     0.169 HD
ATOM     20  H41 UNL     1      44.420  28.374  96.994  1.00  0.00     0.169 HD
ENDBRANCH  15  18
ENDBRANCH   8  15
TORSDOF 3
ENDMDL
MODEL 3
REMARK VINA RESULT: -5.995090006      3.554      5.429
REMARK  3 active torsions:
REMARK  status: ('A' for Active; 'I' for Inactive)
REMARK    1  A    between atoms: C4_8  and  S1_9 
REMARK    2  A    between atoms: S1_9  and  N4_10 
REMARK    3  A    between atoms: C5_17  and  N6_18 
ROOT
HETATM    1  N1  UNL     1      43.764  21.652 102.794  1.00  0.00    -0.191 NA
HETATM    2  C1  UNL     1      43.762  22.419 101.909  1.00  0.00     0.106 C 
HETATM    3  C2  UNL     1      43.736  23.352 100.817  1.00  0.00     0.129 A 
HETATM    4  C3  UNL     1      43.714  24.726 101.028  1.00  0.00     0.143 A 
HETATM    5  N2  UNL     1      43.717  25.171 102.384  1.00  0.00    -0.081 NA
HETATM    6  N3  UNL     1      43.690  25.610 100.018  1.00  0.00    -0.319 N 
ATOM      7  H3  UNL     1      43.673  26.611 100.213  1.00  0.00     0.169 HD
HETATM    8  C4  UNL     1      43.688  25.175  98.762  1.00  0.00     0.226 A 
HETATM    9  N5  UNL     1      43.708  23.855  98.523  1.00  0.00    -0.317 N 
ATOM     10  H5  UNL     1      43.705  23.535  97.555  1.00  0.00     0.169 HD
HETATM   11  C5  UNL     1      43.732  22.942  99.498  1.00  0.00     0.125 A 
ENDROOT
BRANCH  11  12
HETATM   12  N6  UNL     1      43.752  21.678  99.210  1.00  0.00    -0.384 N 
ATOM     13  H62 UNL     1      43.117  21.300  98.508  1.00  0.00     0.157 HD
ATOM     14  H61 UNL     1      44.405  21.055  99.686  1.00  0.00     0.157 HD
ENDBRANCH  11  12
BRANCH   8  15
HETATM   15  S1  UNL     1      43.658  26.232  97.370  1.00  0.00     0.289 S 
HETATM   16  O1  UNL     1      44.175  25.491  96.168  1.00  0.00    -0.198 OA
HETATM   17  O2  UNL     1      42.265  26.757  97.148  1.00  0.00    -0.198 OA
BRANCH  15  18
HETATM   18  N4  UNL     1      44.686  27.576  97.662  1.00  0.00    -0.322 N 
ATOM     19  H42 UNL     1      45.649  27.509  97.989  1.00  0.00     0.169 HD
ATOM     20  H41 UNL     1      44.177  28.437  97.457  1.00  0.00     0.169 HD
ENDBRANCH  15  18
ENDBRANCH   8  15
TORSDOF 3
ENDMDL
MODEL 4
REMARK VINA RESULT: -5.893003480      2.316      3.377
REMARK  3 active torsions:
REMARK  status: ('A' for Active; 'I' for Inactive)
REMARK    1  A    between atoms: C4_8  and  S1_9 
REMARK    2  A    between atoms: S1_9  and  N4_10 
REMARK    3  A    between atoms: C5_17  and  N6_18 
ROOT
HETATM    1  N1  UNL     1      43.947  24.767  94.482  1.00  0.00    -0.191 NA
HETATM    2  C1  UNL     1      43.771  24.714  95.639  1.00  0.00     0.106 C 
HETATM    3  C2  UNL     1      43.581  24.652  97.062  1.00  0.00     0.129 A 
HETATM    4  C3  UNL     1      42.953  25.675  97.762  1.00  0.00     0.143 A 
HETATM    5  N2  UNL     1      42.505  26.797  97.002  1.00  0.00    -0.081 NA
HETATM    6  N3  UNL     1      42.768  25.631  99.091  1.00  0.00    -0.319 N 
ATOM      7  H3  UNL     1      42.303  26.404  99.569  1.00  0.00     0.169 HD
HETATM    8  C4  UNL     1      43.192  24.578  99.781  1.00  0.00     0.226 A 
HETATM    9  N5  UNL     1      43.802  23.572  99.135  1.00  0.00    -0.317 N 
ATOM     10  H5  UNL     1      44.124  22.769  99.676  1.00  0.00     0.169 HD
HETATM   11  C5  UNL     1      44.007  23.575  97.814  1.00  0.00     0.125 A 
ENDROOT
BRANCH  11  12
HETATM   12  N6  UNL     1      44.602  22.576  97.242  1.00  0.00    -0.384 N 
ATOM     13  H62 UNL     1      44.056  21.823  96.823  1.00  0.00     0.157 HD
ATOM     14  H61 UNL     1      45.621  22.539  97.208  1.00  0.00     0.157 HD
ENDBRANCH  11  12
BRANCH   8  15
HETATM   15  S1  UNL     1      43.005  24.411 101.510  1.00  0.00     0.289 S 
HETATM   16  O1  UNL     1      44.230  23.755 102.085  1.00  0.00    -0.198 OA
HETATM   17  O2  UNL     1      42.745  25.756 102.134  1.00  0.00    -0.198 OA
BRANCH  15  18
HETATM   18  N4  UNL     1      41.649  23.410 101.836  1.00  0.00    -0.322 N 
ATOM     19  H42 UNL     1      41.458  22.967 102.734  1.00  0.00     0.169 HD
ATOM     20  H41 UNL     1      41.078  23.335 100.994  1.00  0.00     0.169 HD
ENDBRANCH  15  18
ENDBRANCH   8  15
TORSDOF 3
ENDMDL
MODEL 5
REMARK VINA RESULT: -5.829244934      0.989      2.314
REMARK  3 active torsions:
REMARK  status: ('A' for Active; 'I' for Inactive)
REMARK    1  A    between atoms: C4_8  and  S1_9 
REMARK    2  A    between atoms: S1_9  and  N4_10 
REMARK    3  A    between atoms: C5_17  and  N6_18 
ROOT
HETATM    1  N1  UNL     1      43.410  25.580  96.151  1.00  0.00    -0.191 NA
HETATM    2  C1  UNL     1      43.468  24.984  97.158  1.00  0.00     0.106 C 
HETATM    3  C2  UNL     1      43.564  24.259  98.395  1.00  0.00     0.129 A 
HETATM    4  C3  UNL     1      42.869  24.656  99.532  1.00  0.00     0.143 A 
HETATM    5  N2  UNL     1      42.053  25.821  99.415  1.00  0.00    -0.081 NA
HETATM    6  N3  UNL     1      42.948  23.990 100.694  1.00  0.00    -0.319 N 
ATOM      7  H3  UNL     1      42.423  24.314 101.508  1.00  0.00     0.169 HD
HETATM    8  C4  UNL     1      43.713  22.907 100.782  1.00  0.00     0.226 A 
HETATM    9  N5  UNL     1      44.397  22.496  99.703  1.00  0.00    -0.317 N 
ATOM     10  H5  UNL     1      44.982  21.664  99.784  1.00  0.00     0.169 HD
HETATM   11  C5  UNL     1      44.347  23.130  98.528  1.00  0.00     0.125 A 
ENDROOT
BRANCH  11  12
HETATM   12  N6  UNL     1      45.029  22.689  97.517  1.00  0.00    -0.384 N 
ATOM     13  H62 UNL     1      45.569  23.334  96.940  1.00  0.00     0.157 HD
ATOM     14  H61 UNL     1      45.029  21.693  97.295  1.00  0.00     0.157 HD
ENDBRANCH  11  12
BRANCH   8  15
HETATM   15  S1  UNL     1      43.891  21.961 102.241  1.00  0.00     0.289 S 
HETATM   16  O1  UNL     1      42.666  21.111 102.439  1.00  0.00    -0.198 OA
HETATM   17  O2  UNL     1      45.144  21.130 102.169  1.00  0.00    -0.198 OA
BRANCH  15  18
HETATM   18  N4  UNL     1      44.040  23.020 103.584  1.00  0.00    -0.322 N 
ATOM     19  H42 UNL     1      43.280  23.258 104.221  1.00  0.00     0.169 HD
ATOM     20  H41 UNL     1      44.999  23.365 103.634  1.00  0.00     0.169 HD
ENDBRANCH  15  18
ENDBRANCH   8  15
TORSDOF 3
ENDMDL
