MODEL 1
REMARK VINA RESULT: -12.414079939      0.000      0.000
REMARK  5 active torsions:
REMARK  status: ('A' for Active; 'I' for Inactive)
REMARK    1  A    between atoms: C4_4  and  C5_5 
REMARK    2  A    between atoms: C5_5  and  O1_6 
REMARK    3  A    between atoms: O1_6  and  C6_7 
REMARK    4  A    between atoms: C9_10  and  C10_11 
REMARK    5  A    between atoms: C12_13  and  C13_14 
ROOT
HETATM    1  C10 UNL     1      57.553  33.250  73.328  1.00  0.00    -0.024 A 
HETATM    2  C11 UNL     1      57.540  32.285  74.294  1.00  0.00     0.025 A 
HETATM    3  C12 UNL     1      58.435  32.310  75.366  1.00  0.00    -0.014 A 
HETATM    4  C19 UNL     1      59.374  33.299  75.515  1.00  0.00    -0.015 A 
HETATM    5  C20 UNL     1      60.270  33.386  76.552  1.00  0.00     0.013 A 
HETATM    6  C21 UNL     1      61.191  34.417  76.652  1.00  0.00     0.001 A 
HETATM    7  C22 UNL     1      61.195  35.379  75.674  1.00  0.00     0.001 A 
HETATM    8  C23 UNL     1      60.300  35.300  74.633  1.00  0.00     0.012 A 
HETATM    9  C24 UNL     1      59.377  34.282  74.516  1.00  0.00    -0.024 A 
HETATM   10  C25 UNL     1      58.485  34.252  73.452  1.00  0.00     0.024 A 
ENDROOT
BRANCH   1  11
HETATM   11  C9  UNL     1      56.614  33.234  72.191  1.00  0.00    -0.026 A 
HETATM   12  C8  UNL     1      55.491  32.437  72.200  1.00  0.00     0.015 A 
HETATM   13  C7  UNL     1      54.607  32.423  71.129  1.00  0.00     0.037 A 
HETATM   14  C6  UNL     1      54.841  33.220  70.021  1.00  0.00     0.069 A 
HETATM   15  C27 UNL     1      55.957  34.007  70.021  1.00  0.00     0.037 A 
HETATM   16  C26 UNL     1      56.829  34.020  71.077  1.00  0.00     0.015 A 
BRANCH  14  17
HETATM   17  O1  UNL     1      53.939  33.179  68.975  1.00  0.00    -0.347 OA
BRANCH  17  18
HETATM   18  C5  UNL     1      52.865  34.071  68.834  1.00  0.00     0.214 C 
BRANCH  18  19
HETATM   19  C4  UNL     1      53.275  35.162  67.932  1.00  0.00    -0.034 A 
HETATM   20  C3  UNL     1      53.546  36.408  68.439  1.00  0.00     0.009 A 
HETATM   21  C2  UNL     1      53.931  37.447  67.628  1.00  0.00     0.001 A 
HETATM   22  C1  UNL     1      54.055  37.258  66.270  1.00  0.00     0.000 A 
HETATM   23  C29 UNL     1      53.781  35.997  65.752  1.00  0.00     0.001 A 
HETATM   24  C28 UNL     1      53.390  34.949  66.589  1.00  0.00     0.009 A 
ENDBRANCH  18  19
ENDBRANCH  17  18
ENDBRANCH  14  17
ENDBRANCH   1  11
BRANCH   3  25
HETATM   25  C13 UNL     1      58.400  31.213  76.349  1.00  0.00    -0.025 A 
HETATM   26  C14 UNL     1      57.399  31.201  77.315  1.00  0.00     0.012 A 
HETATM   27  C15 UNL     1      57.275  30.183  78.239  1.00  0.00     0.001 A 
HETATM   28  C16 UNL     1      58.187  29.143  78.186  1.00  0.00     0.000 A 
HETATM   29  C17 UNL     1      59.183  29.140  77.236  1.00  0.00     0.001 A 
HETATM   30  C18 UNL     1      59.277  30.166  76.335  1.00  0.00     0.012 A 
ENDBRANCH   3  25
TORSDOF 5
ENDMDL
MODEL 2
REMARK VINA RESULT: -12.361787728      0.082      1.499
REMARK  5 active torsions:
REMARK  status: ('A' for Active; 'I' for Inactive)
REMARK    1  A    between atoms: C4_4  and  C5_5 
REMARK    2  A    between atoms: C5_5  and  O1_6 
REMARK    3  A    between atoms: O1_6  and  C6_7 
REMARK    4  A    between atoms: C9_10  and  C10_11 
REMARK    5  A    between atoms: C12_13  and  C13_14 
ROOT
HETATM    1  C10 UNL     1      57.539  33.264  73.339  1.00  0.00    -0.024 A 
HETATM    2  C11 UNL     1      57.516  32.309  74.315  1.00  0.00     0.025 A 
HETATM    3  C12 UNL     1      58.409  32.336  75.388  1.00  0.00    -0.014 A 
HETATM    4  C19 UNL     1      59.357  33.318  75.530  1.00  0.00    -0.015 A 
HETATM    5  C20 UNL     1      60.251  33.407  76.568  1.00  0.00     0.013 A 
HETATM    6  C21 UNL     1      61.181  34.431  76.660  1.00  0.00     0.001 A 
HETATM    7  C22 UNL     1      61.194  35.383  75.673  1.00  0.00     0.001 A 
HETATM    8  C23 UNL     1      60.301  35.302  74.631  1.00  0.00     0.012 A 
HETATM    9  C24 UNL     1      59.369  34.291  74.522  1.00  0.00    -0.024 A 
HETATM   10  C25 UNL     1      58.479  34.259  73.456  1.00  0.00     0.024 A 
ENDROOT
BRANCH   1  11
HETATM   11  C9  UNL     1      56.602  33.246  72.201  1.00  0.00    -0.026 A 
HETATM   12  C8  UNL     1      56.802  34.042  71.095  1.00  0.00     0.015 A 
HETATM   13  C7  UNL     1      55.920  34.024  70.023  1.00  0.00     0.037 A 
HETATM   14  C6  UNL     1      54.811  33.195  70.046  1.00  0.00     0.069 A 
HETATM   15  C27 UNL     1      54.621  32.409  71.147  1.00  0.00     0.037 A 
HETATM   16  C26 UNL     1      55.491  32.427  72.204  1.00  0.00     0.015 A 
BRANCH  14  17
HETATM   17  O1  UNL     1      53.955  33.203  68.961  1.00  0.00    -0.347 OA
BRANCH  17  18
HETATM   18  C5  UNL     1      52.876  34.088  68.824  1.00  0.00     0.214 C 
BRANCH  18  19
HETATM   19  C4  UNL     1      53.288  35.200  67.947  1.00  0.00    -0.034 A 
HETATM   20  C3  UNL     1      53.416  34.998  66.596  1.00  0.00     0.009 A 
HETATM   21  C2  UNL     1      53.797  36.011  65.751  1.00  0.00     0.001 A 
HETATM   22  C1  UNL     1      54.062  37.267  66.248  1.00  0.00     0.000 A 
HETATM   23  C29 UNL     1      53.934  37.475  67.617  1.00  0.00     0.001 A 
HETATM   24  C28 UNL     1      53.546  36.435  68.465  1.00  0.00     0.009 A 
ENDBRANCH  18  19
ENDBRANCH  17  18
ENDBRANCH  14  17
ENDBRANCH   1  11
BRANCH   3  25
HETATM   25  C13 UNL     1      58.363  31.248  76.381  1.00  0.00    -0.025 A 
HETATM   26  C14 UNL     1      59.345  30.263  76.353  1.00  0.00     0.012 A 
HETATM   27  C15 UNL     1      59.393  29.240  77.278  1.00  0.00     0.001 A 
HETATM   28  C16 UNL     1      58.422  29.210  78.264  1.00  0.00     0.000 A 
HETATM   29  C17 UNL     1      57.443  30.177  78.306  1.00  0.00     0.001 A 
HETATM   30  C18 UNL     1      57.425  31.178  77.372  1.00  0.00     0.012 A 
ENDBRANCH   3  25
TORSDOF 5
ENDMDL
MODEL 3
REMARK VINA RESULT: -12.273327338      2.072      3.696
REMARK  5 active torsions:
REMARK  status: ('A' for Active; 'I' for Inactive)
REMARK    1  A    between atoms: C4_4  and  C5_5 
REMARK    2  A    between atoms: C5_5  and  O1_6 
REMARK    3  A    between atoms: O1_6  and  C6_7 
REMARK    4  A    between atoms: C9_10  and  C10_11 
REMARK    5  A    between atoms: C12_13  and  C13_14 
ROOT
HETATM    1  C10 UNL     1      59.491  31.525  75.830  1.00  0.00    -0.024 A 
HETATM    2  C11 UNL     1      59.164  30.294  76.321  1.00  0.00     0.025 A 
HETATM    3  C12 UNL     1      59.795  29.763  77.449  1.00  0.00    -0.014 A 
HETATM    4  C19 UNL     1      60.773  30.443  78.131  1.00  0.00    -0.015 A 
HETATM    5  C20 UNL     1      61.419  29.982  79.251  1.00  0.00     0.013 A 
HETATM    6  C21 UNL     1      62.395  30.721  79.901  1.00  0.00     0.001 A 
HETATM    7  C22 UNL     1      62.715  31.955  79.397  1.00  0.00     0.001 A 
HETATM    8  C23 UNL     1      62.072  32.425  78.276  1.00  0.00     0.012 A 
HETATM    9  C24 UNL     1      61.099  31.705  77.615  1.00  0.00    -0.024 A 
HETATM   10  C25 UNL     1      60.470  32.227  76.493  1.00  0.00     0.024 A 
ENDROOT
BRANCH   1  11
HETATM   11  C9  UNL     1      58.833  32.095  74.641  1.00  0.00    -0.026 A 
HETATM   12  C8  UNL     1      57.813  31.430  73.998  1.00  0.00     0.015 A 
HETATM   13  C7  UNL     1      57.193  31.967  72.878  1.00  0.00     0.037 A 
HETATM   14  C6  UNL     1      57.594  33.196  72.381  1.00  0.00     0.069 A 
HETATM   15  C27 UNL     1      58.606  33.849  73.025  1.00  0.00     0.037 A 
HETATM   16  C26 UNL     1      59.217  33.318  74.130  1.00  0.00     0.015 A 
BRANCH  14  17
HETATM   17  O1  UNL     1      56.954  33.700  71.265  1.00  0.00    -0.347 OA
BRANCH  17  18
HETATM   18  C5  UNL     1      56.132  32.936  70.423  1.00  0.00     0.214 C 
BRANCH  18  19
HETATM   19  C4  UNL     1      55.239  33.847  69.685  1.00  0.00    -0.034 A 
HETATM   20  C3  UNL     1      55.706  35.058  69.241  1.00  0.00     0.009 A 
HETATM   21  C2  UNL     1      54.902  35.930  68.550  1.00  0.00     0.001 A 
HETATM   22  C1  UNL     1      53.591  35.603  68.285  1.00  0.00     0.000 A 
HETATM   23  C29 UNL     1      53.113  34.377  68.734  1.00  0.00     0.001 A 
HETATM   24  C28 UNL     1      53.943  33.500  69.436  1.00  0.00     0.009 A 
ENDBRANCH  18  19
ENDBRANCH  17  18
ENDBRANCH  14  17
ENDBRANCH   1  11
BRANCH   3  25
HETATM   25  C13 UNL     1      59.429  28.409  77.899  1.00  0.00    -0.025 A 
HETATM   26  C14 UNL     1      58.120  28.157  78.297  1.00  0.00     0.012 A 
HETATM   27  C15 UNL     1      57.693  26.904  78.686  1.00  0.00     0.001 A 
HETATM   28  C16 UNL     1      58.614  25.871  78.672  1.00  0.00     0.000 A 
HETATM   29  C17 UNL     1      59.914  26.103  78.281  1.00  0.00     0.001 A 
HETATM   30  C18 UNL     1      60.304  27.358  77.901  1.00  0.00     0.012 A 
ENDBRANCH   3  25
TORSDOF 5
ENDMDL
MODEL 4
REMARK VINA RESULT: -12.148020442      0.943      3.707
REMARK  5 active torsions:
REMARK  status: ('A' for Active; 'I' for Inactive)
REMARK    1  A    between atoms: C4_4  and  C5_5 
REMARK    2  A    between atoms: C5_5  and  O1_6 
REMARK    3  A    between atoms: O1_6  and  C6_7 
REMARK    4  A    between atoms: C9_10  and  C10_11 
REMARK    5  A    between atoms: C12_13  and  C13_14 
ROOT
HETATM    1  C10 UNL     1      57.789  32.951  73.357  1.00  0.00    -0.024 A 
HETATM    2  C11 UNL     1      58.564  34.012  73.727  1.00  0.00     0.025 A 
HETATM    3  C12 UNL     1      59.429  33.941  74.822  1.00  0.00    -0.014 A 
HETATM    4  C19 UNL     1      59.555  32.808  75.586  1.00  0.00    -0.015 A 
HETATM    5  C20 UNL     1      60.396  32.671  76.662  1.00  0.00     0.013 A 
HETATM    6  C21 UNL     1      60.485  31.495  77.390  1.00  0.00     0.001 A 
HETATM    7  C22 UNL     1      59.699  30.438  77.008  1.00  0.00     0.001 A 
HETATM    8  C23 UNL     1      58.855  30.566  75.931  1.00  0.00     0.012 A 
HETATM    9  C24 UNL     1      58.753  31.727  75.195  1.00  0.00    -0.024 A 
HETATM   10  C25 UNL     1      57.893  31.804  74.106  1.00  0.00     0.024 A 
ENDROOT
BRANCH   1  11
HETATM   11  C9  UNL     1      56.871  33.015  72.205  1.00  0.00    -0.026 A 
HETATM   12  C8  UNL     1      55.986  31.994  71.936  1.00  0.00     0.015 A 
HETATM   13  C7  UNL     1      55.121  32.055  70.852  1.00  0.00     0.037 A 
HETATM   14  C6  UNL     1      55.133  33.155  70.011  1.00  0.00     0.069 A 
HETATM   15  C27 UNL     1      56.014  34.162  70.285  1.00  0.00     0.037 A 
HETATM   16  C26 UNL     1      56.867  34.102  71.355  1.00  0.00     0.015 A 
BRANCH  14  17
HETATM   17  O1  UNL     1      54.259  33.181  68.942  1.00  0.00    -0.347 OA
BRANCH  17  18
HETATM   18  C5  UNL     1      53.126  34.006  68.877  1.00  0.00     0.214 C 
BRANCH  18  19
HETATM   19  C4  UNL     1      53.422  35.141  67.983  1.00  0.00    -0.034 A 
HETATM   20  C3  UNL     1      53.455  34.955  66.624  1.00  0.00     0.009 A 
HETATM   21  C2  UNL     1      53.727  35.990  65.763  1.00  0.00     0.001 A 
HETATM   22  C1  UNL     1      53.976  37.252  66.253  1.00  0.00     0.000 A 
HETATM   23  C29 UNL     1      53.944  37.444  67.629  1.00  0.00     0.001 A 
HETATM   24  C28 UNL     1      53.667  36.383  68.494  1.00  0.00     0.009 A 
ENDBRANCH  18  19
ENDBRANCH  17  18
ENDBRANCH  14  17
ENDBRANCH   1  11
BRANCH   3  25
HETATM   25  C13 UNL     1      60.203  35.137  75.198  1.00  0.00    -0.025 A 
HETATM   26  C14 UNL     1      59.561  36.371  75.250  1.00  0.00     0.012 A 
HETATM   27  C15 UNL     1      60.209  37.525  75.638  1.00  0.00     0.001 A 
HETATM   28  C16 UNL     1      61.546  37.435  75.986  1.00  0.00     0.000 A 
HETATM   29  C17 UNL     1      62.196  36.222  75.940  1.00  0.00     0.001 A 
HETATM   30  C18 UNL     1      61.523  35.096  75.550  1.00  0.00     0.012 A 
ENDBRANCH   3  25
TORSDOF 5
ENDMDL
MODEL 5
REMARK VINA RESULT: -12.134581969      0.945      3.699
REMARK  5 active torsions:
REMARK  status: ('A' for Active; 'I' for Inactive)
REMARK    1  A    between atoms: C4_4  and  C5_5 
REMARK    2  A    between atoms: C5_5  and  O1_6 
REMARK    3  A    between atoms: O1_6  and  C6_7 
REMARK    4  A    between atoms: C9_10  and  C10_11 
REMARK    5  A    between atoms: C12_13  and  C13_14 
ROOT
HETATM    1  C10 UNL     1      57.784  32.944  73.378  1.00  0.00    -0.024 A 
HETATM    2  C11 UNL     1      58.558  34.007  73.745  1.00  0.00     0.025 A 
HETATM    3  C12 UNL     1      59.430  33.937  74.834  1.00  0.00    -0.014 A 
HETATM    4  C19 UNL     1      59.565  32.803  75.595  1.00  0.00    -0.015 A 
HETATM    5  C20 UNL     1      60.413  32.668  76.666  1.00  0.00     0.013 A 
HETATM    6  C21 UNL     1      60.511  31.491  77.390  1.00  0.00     0.001 A 
HETATM    7  C22 UNL     1      59.727  30.431  77.012  1.00  0.00     0.001 A 
HETATM    8  C23 UNL     1      58.875  30.557  75.940  1.00  0.00     0.012 A 
HETATM    9  C24 UNL     1      58.764  31.720  75.207  1.00  0.00    -0.024 A 
HETATM   10  C25 UNL     1      57.898  31.796  74.124  1.00  0.00     0.024 A 
ENDROOT
BRANCH   1  11
HETATM   11  C9  UNL     1      56.859  33.006  72.232  1.00  0.00    -0.026 A 
HETATM   12  C8  UNL     1      56.874  34.069  71.355  1.00  0.00     0.015 A 
HETATM   13  C7  UNL     1      56.004  34.127  70.274  1.00  0.00     0.037 A 
HETATM   14  C6  UNL     1      55.094  33.105  70.057  1.00  0.00     0.069 A 
HETATM   15  C27 UNL     1      55.086  32.056  70.931  1.00  0.00     0.037 A 
HETATM   16  C26 UNL     1      55.945  31.999  71.996  1.00  0.00     0.015 A 
BRANCH  14  17
HETATM   17  O1  UNL     1      54.243  33.197  68.972  1.00  0.00    -0.347 OA
BRANCH  17  18
HETATM   18  C5  UNL     1      53.131  34.050  68.920  1.00  0.00     0.214 C 
BRANCH  18  19
HETATM   19  C4  UNL     1      53.428  35.153  67.988  1.00  0.00    -0.034 A 
HETATM   20  C3  UNL     1      53.695  36.409  68.472  1.00  0.00     0.009 A 
HETATM   21  C2  UNL     1      53.976  37.459  67.633  1.00  0.00     0.001 A 
HETATM   22  C1  UNL     1      53.994  37.271  66.269  1.00  0.00     0.000 A 
HETATM   23  C29 UNL     1      53.723  36.000  65.775  1.00  0.00     0.001 A 
HETATM   24  C28 UNL     1      53.439  34.941  66.640  1.00  0.00     0.009 A 
ENDBRANCH  18  19
ENDBRANCH  17  18
ENDBRANCH  14  17
ENDBRANCH   1  11
BRANCH   3  25
HETATM   25  C13 UNL     1      60.202  35.136  75.207  1.00  0.00    -0.025 A 
HETATM   26  C14 UNL     1      59.556  36.367  75.264  1.00  0.00     0.012 A 
HETATM   27  C15 UNL     1      60.202  37.523  75.650  1.00  0.00     0.001 A 
HETATM   28  C16 UNL     1      61.541  37.437  75.991  1.00  0.00     0.000 A 
HETATM   29  C17 UNL     1      62.195  36.226  75.941  1.00  0.00     0.001 A 
HETATM   30  C18 UNL     1      61.523  35.098  75.553  1.00  0.00     0.012 A 
ENDBRANCH   3  25
TORSDOF 5
ENDMDL
