MODEL 1
REMARK VINA RESULT: -9.261118439      0.000      0.000
REMARK  6 active torsions:
REMARK  status: ('A' for Active; 'I' for Inactive)
REMARK    1  A    between atoms: C4_9  and  C5_10 
REMARK    2  A    between atoms: C5_10  and  C6_11 
REMARK    3  A    between atoms: C5_10  and  C12_17 
REMARK    4  A    between atoms: N3_20  and  C14_21 
REMARK    5  A    between atoms: C14_21  and  C15_22 
REMARK    6  A    between atoms: N4_35  and  O5_36 
ROOT
HETATM    1  C12 UNL     1      -3.574   5.023  12.736  1.00  0.00     0.143 C 
HETATM    2  C13 UNL     1      -2.416   5.803  12.569  1.00  0.00     0.281 C 
HETATM    3  O2  UNL     1      -1.351   5.112  12.509  1.00  0.00    -0.265 OA
HETATM    4  N3  UNL     1      -2.195   7.117  12.458  1.00  0.00    -0.272 N 
HETATM    5  C19 UNL     1      -3.092   8.011  12.014  1.00  0.00     0.263 C 
HETATM    6  O4  UNL     1      -2.631   9.153  11.825  1.00  0.00    -0.267 OA
HETATM    7  C20 UNL     1      -4.453   7.836  11.741  1.00  0.00     0.061 A 
HETATM    8  C21 UNL     1      -4.966   8.971  11.159  1.00  0.00     0.019 A 
HETATM    9  C22 UNL     1      -6.314   8.954  10.830  1.00  0.00     0.001 A 
HETATM   10  C23 UNL     1      -7.116   7.861  11.068  1.00  0.00     0.002 A 
HETATM   11  C24 UNL     1      -6.534   6.755  11.655  1.00  0.00     0.033 A 
HETATM   12  C25 UNL     1      -5.204   6.716  12.001  1.00  0.00     0.079 A 
HETATM   13  N4  UNL     1      -4.797   5.553  12.570  1.00  0.00    -0.218 N 
ENDROOT
BRANCH   1  14
HETATM   14  C5  UNL     1      -3.367   3.617  13.085  1.00  0.00     0.027 C 
BRANCH  14  15
HETATM   15  C4  UNL     1      -3.515   2.687  11.948  1.00  0.00     0.070 A 
HETATM   16  C2  UNL     1      -2.514   2.154  11.199  1.00  0.00     0.038 A 
HETATM   17  C1  UNL     1      -1.037   2.339  11.283  1.00  0.00     0.071 C 
HETATM   18  N1  UNL     1      -3.089   1.358  10.275  1.00  0.00    -0.301 N 
HETATM   19  N2  UNL     1      -4.416   1.388  10.435  1.00  0.00    -0.266 N 
ATOM     20  H1  UNL     1      -2.591   0.819   9.566  1.00  0.00     0.186 HD
HETATM   21  C3  UNL     1      -4.705   2.204  11.465  1.00  0.00     0.273 A 
ATOM     22  H2  UNL     1      -5.095   0.878   9.870  1.00  0.00     0.190 HD
HETATM   23  O1  UNL     1      -5.888   2.435  11.860  1.00  0.00    -0.266 OA
ENDBRANCH  14  15
BRANCH  14  24
HETATM   24  C6  UNL     1      -3.910   3.120  14.344  1.00  0.00    -0.022 A 
HETATM   25  C7  UNL     1      -4.027   1.755  14.588  1.00  0.00     0.012 A 
HETATM   26  C8  UNL     1      -4.565   1.255  15.754  1.00  0.00     0.001 A 
HETATM   27  C9  UNL     1      -5.014   2.118  16.743  1.00  0.00     0.000 A 
HETATM   28  C10 UNL     1      -4.917   3.470  16.541  1.00  0.00     0.001 A 
HETATM   29  C11 UNL     1      -4.384   3.932  15.385  1.00  0.00     0.012 A 
ENDBRANCH  14  24
ENDBRANCH   1  14
BRANCH  13  30
HETATM   30  O5  UNL     1      -5.836   4.825  13.041  1.00  0.00    -0.282 OA
ATOM     31  H5  UNL     1      -6.313   4.310  12.403  1.00  0.00     0.245 HD
ENDBRANCH  13  30
BRANCH   4  32
HETATM   32  C14 UNL     1      -0.906   7.604  12.857  1.00  0.00     0.200 C 
BRANCH  32  33
HETATM   33  C15 UNL     1      -0.856   8.396  14.073  1.00  0.00     0.070 A 
HETATM   34  C16 UNL     1      -1.540   8.193  15.236  1.00  0.00     0.036 A 
HETATM   35  C17 UNL     1      -1.175   9.193  16.107  1.00  0.00     0.027 A 
HETATM   36  C18 UNL     1      -0.279   9.973  15.440  1.00  0.00     0.142 A 
HETATM   37  O3  UNL     1      -0.118   9.473  14.253  1.00  0.00    -0.325 OA
ENDBRANCH  32  33
ENDBRANCH   4  32
TORSDOF 6
ENDMDL
MODEL 2
REMARK VINA RESULT: -9.061678333      2.819      6.737
REMARK  6 active torsions:
REMARK  status: ('A' for Active; 'I' for Inactive)
REMARK    1  A    between atoms: C4_9  and  C5_10 
REMARK    2  A    between atoms: C5_10  and  C6_11 
REMARK    3  A    between atoms: C5_10  and  C12_17 
REMARK    4  A    between atoms: N3_20  and  C14_21 
REMARK    5  A    between atoms: C14_21  and  C15_22 
REMARK    6  A    between atoms: N4_35  and  O5_36 
ROOT
HETATM    1  C12 UNL     1      -2.797   3.694  12.042  1.00  0.00     0.143 C 
HETATM    2  C13 UNL     1      -3.335   3.735  13.341  1.00  0.00     0.281 C 
HETATM    3  O2  UNL     1      -3.640   4.909  13.721  1.00  0.00    -0.265 OA
HETATM    4  N3  UNL     1      -3.597   2.803  14.263  1.00  0.00    -0.272 N 
HETATM    5  C19 UNL     1      -3.837   1.509  13.998  1.00  0.00     0.263 C 
HETATM    6  O4  UNL     1      -4.228   0.846  14.979  1.00  0.00    -0.267 OA
HETATM    7  C20 UNL     1      -3.708   0.815  12.791  1.00  0.00     0.061 A 
HETATM    8  C21 UNL     1      -4.203  -0.460  12.925  1.00  0.00     0.019 A 
HETATM    9  C22 UNL     1      -4.143  -1.279  11.805  1.00  0.00     0.001 A 
HETATM   10  C23 UNL     1      -3.614  -0.851  10.608  1.00  0.00     0.002 A 
HETATM   11  C24 UNL     1      -3.134   0.442  10.545  1.00  0.00     0.033 A 
HETATM   12  C25 UNL     1      -3.169   1.297  11.622  1.00  0.00     0.079 A 
HETATM   13  N4  UNL     1      -2.654   2.530  11.388  1.00  0.00    -0.218 N 
ENDROOT
BRANCH   1  14
HETATM   14  C5  UNL     1      -2.421   4.979  11.453  1.00  0.00     0.027 C 
BRANCH  14  15
HETATM   15  C4  UNL     1      -3.470   5.586  10.612  1.00  0.00     0.070 A 
HETATM   16  C2  UNL     1      -4.063   6.795  10.799  1.00  0.00     0.038 A 
HETATM   17  C1  UNL     1      -3.855   7.823  11.858  1.00  0.00     0.071 C 
HETATM   18  N1  UNL     1      -4.957   6.958   9.802  1.00  0.00    -0.301 N 
HETATM   19  N2  UNL     1      -4.930   5.883   9.009  1.00  0.00    -0.266 N 
ATOM     20  H1  UNL     1      -5.558   7.773   9.674  1.00  0.00     0.186 HD
HETATM   21  C3  UNL     1      -4.017   5.019   9.488  1.00  0.00     0.273 A 
ATOM     22  H2  UNL     1      -5.506   5.741   8.179  1.00  0.00     0.190 HD
HETATM   23  O1  UNL     1      -3.763   3.901   8.946  1.00  0.00    -0.266 OA
ENDBRANCH  14  15
BRANCH  14  24
HETATM   24  C6  UNL     1      -1.066   5.143  10.939  1.00  0.00    -0.022 A 
HETATM   25  C7  UNL     1       0.043   4.832  11.720  1.00  0.00     0.012 A 
HETATM   26  C8  UNL     1       1.336   5.006  11.275  1.00  0.00     0.001 A 
HETATM   27  C9  UNL     1       1.574   5.508  10.004  1.00  0.00     0.000 A 
HETATM   28  C10 UNL     1       0.510   5.828   9.203  1.00  0.00     0.001 A 
HETATM   29  C11 UNL     1      -0.749   5.646   9.668  1.00  0.00     0.012 A 
ENDBRANCH  14  24
ENDBRANCH   1  14
BRANCH  13  30
HETATM   30  O5  UNL     1      -1.862   2.552  10.291  1.00  0.00    -0.282 OA
ATOM     31  H5  UNL     1      -2.072   1.927   9.607  1.00  0.00     0.245 HD
ENDBRANCH  13  30
BRANCH   4  32
HETATM   32  C14 UNL     1      -3.608   3.218  15.636  1.00  0.00     0.200 C 
BRANCH  32  33
HETATM   33  C15 UNL     1      -4.878   3.127  16.334  1.00  0.00     0.070 A 
HETATM   34  C16 UNL     1      -6.051   3.753  16.030  1.00  0.00     0.036 A 
HETATM   35  C17 UNL     1      -6.979   3.366  16.969  1.00  0.00     0.027 A 
HETATM   36  C18 UNL     1      -6.334   2.516  17.815  1.00  0.00     0.142 A 
HETATM   37  O3  UNL     1      -5.107   2.400  17.410  1.00  0.00    -0.325 OA
ENDBRANCH  32  33
ENDBRANCH   4  32
TORSDOF 6
ENDMDL
MODEL 3
REMARK VINA RESULT: -8.990784931      2.391      5.321
REMARK  6 active torsions:
REMARK  status: ('A' for Active; 'I' for Inactive)
REMARK    1  A    between atoms: C4_9  and  C5_10 
REMARK    2  A    between atoms: C5_10  and  C6_11 
REMARK    3  A    between atoms: C5_10  and  C12_17 
REMARK    4  A    between atoms: N3_20  and  C14_21 
REMARK    5  A    between atoms: C14_21  and  C15_22 
REMARK    6  A    between atoms: N4_35  and  O5_36 
ROOT
HETATM    1  C12 UNL     1      -3.764   4.803  12.582  1.00  0.00     0.143 C 
HETATM    2  C13 UNL     1      -4.149   5.383  11.359  1.00  0.00     0.281 C 
HETATM    3  O2  UNL     1      -5.125   4.784  10.807  1.00  0.00    -0.265 OA
HETATM    4  N3  UNL     1      -3.710   6.429  10.654  1.00  0.00    -0.272 N 
HETATM    5  C19 UNL     1      -3.067   7.488  11.171  1.00  0.00     0.263 C 
HETATM    6  O4  UNL     1      -2.898   8.429  10.373  1.00  0.00    -0.267 OA
HETATM    7  C20 UNL     1      -2.568   7.673  12.465  1.00  0.00     0.061 A 
HETATM    8  C21 UNL     1      -2.116   8.962  12.615  1.00  0.00     0.019 A 
HETATM    9  C22 UNL     1      -1.584   9.302  13.852  1.00  0.00     0.001 A 
HETATM   10  C23 UNL     1      -1.504   8.401  14.891  1.00  0.00     0.002 A 
HETATM   11  C24 UNL     1      -1.977   7.123  14.669  1.00  0.00     0.033 A 
HETATM   12  C25 UNL     1      -2.514   6.732  13.465  1.00  0.00     0.079 A 
HETATM   13  N4  UNL     1      -2.928   5.441  13.418  1.00  0.00    -0.218 N 
ENDROOT
BRANCH   1  14
HETATM   14  C5  UNL     1      -4.330   3.489  12.887  1.00  0.00     0.027 C 
BRANCH  14  15
HETATM   15  C4  UNL     1      -4.870   3.369  14.255  1.00  0.00     0.070 A 
HETATM   16  C2  UNL     1      -5.986   3.973  14.744  1.00  0.00     0.038 A 
HETATM   17  C1  UNL     1      -6.953   4.898  14.088  1.00  0.00     0.071 C 
HETATM   18  N1  UNL     1      -6.115   3.588  16.031  1.00  0.00    -0.301 N 
HETATM   19  N2  UNL     1      -5.109   2.766  16.345  1.00  0.00    -0.266 N 
ATOM     20  H1  UNL     1      -6.861   3.878  16.662  1.00  0.00     0.186 HD
HETATM   21  C3  UNL     1      -4.325   2.614  15.263  1.00  0.00     0.273 A 
ATOM     22  H2  UNL     1      -4.961   2.328  17.254  1.00  0.00     0.190 HD
HETATM   23  O1  UNL     1      -3.285   1.888  15.252  1.00  0.00    -0.266 OA
ENDBRANCH  14  15
BRANCH  14  24
HETATM   24  C6  UNL     1      -3.638   2.299  12.406  1.00  0.00    -0.022 A 
HETATM   25  C7  UNL     1      -2.313   2.360  11.981  1.00  0.00     0.012 A 
HETATM   26  C8  UNL     1      -1.641   1.261  11.491  1.00  0.00     0.001 A 
HETATM   27  C9  UNL     1      -2.280   0.033  11.407  1.00  0.00     0.000 A 
HETATM   28  C10 UNL     1      -3.584  -0.070  11.815  1.00  0.00     0.001 A 
HETATM   29  C11 UNL     1      -4.219   1.028  12.292  1.00  0.00     0.012 A 
ENDBRANCH  14  24
ENDBRANCH   1  14
BRANCH  13  30
HETATM   30  O5  UNL     1      -2.381   4.694  14.405  1.00  0.00    -0.282 OA
ATOM     31  H5  UNL     1      -1.688   4.098  14.148  1.00  0.00     0.245 HD
ENDBRANCH  13  30
BRANCH   4  32
HETATM   32  C14 UNL     1      -3.933   6.409   9.237  1.00  0.00     0.200 C 
BRANCH  32  33
HETATM   33  C15 UNL     1      -5.301   6.604   8.789  1.00  0.00     0.070 A 
HETATM   34  C16 UNL     1      -6.168   7.595   9.146  1.00  0.00     0.036 A 
HETATM   35  C17 UNL     1      -7.346   7.371   8.472  1.00  0.00     0.027 A 
HETATM   36  C18 UNL     1      -7.154   6.247   7.727  1.00  0.00     0.142 A 
HETATM   37  O3  UNL     1      -5.944   5.828   7.939  1.00  0.00    -0.325 OA
ENDBRANCH  32  33
ENDBRANCH   4  32
TORSDOF 6
ENDMDL
MODEL 4
REMARK VINA RESULT: -8.944413986      2.206      6.786
REMARK  6 active torsions:
REMARK  status: ('A' for Active; 'I' for Inactive)
REMARK    1  A    between atoms: C4_9  and  C5_10 
REMARK    2  A    between atoms: C5_10  and  C6_11 
REMARK    3  A    between atoms: C5_10  and  C12_17 
REMARK    4  A    between atoms: N3_20  and  C14_21 
REMARK    5  A    between atoms: C14_21  and  C15_22 
REMARK    6  A    between atoms: N4_35  and  O5_36 
ROOT
HETATM    1  C12 UNL     1      -3.877   4.488  12.862  1.00  0.00     0.143 C 
HETATM    2  C13 UNL     1      -4.220   3.957  14.119  1.00  0.00     0.281 C 
HETATM    3  O2  UNL     1      -4.686   4.827  14.920  1.00  0.00    -0.265 OA
HETATM    4  N3  UNL     1      -4.163   2.733  14.652  1.00  0.00    -0.272 N 
HETATM    5  C19 UNL     1      -4.186   1.589  13.949  1.00  0.00     0.263 C 
HETATM    6  O4  UNL     1      -4.297   0.560  14.643  1.00  0.00    -0.267 OA
HETATM    7  C20 UNL     1      -4.102   1.399  12.566  1.00  0.00     0.061 A 
HETATM    8  C21 UNL     1      -4.319   0.078  12.257  1.00  0.00     0.019 A 
HETATM    9  C22 UNL     1      -4.265  -0.272  10.915  1.00  0.00     0.001 A 
HETATM   10  C23 UNL     1      -4.006   0.649   9.925  1.00  0.00     0.002 A 
HETATM   11  C24 UNL     1      -3.797   1.959  10.307  1.00  0.00     0.033 A 
HETATM   12  C25 UNL     1      -3.840   2.362  11.621  1.00  0.00     0.079 A 
HETATM   13  N4  UNL     1      -3.610   3.685  11.820  1.00  0.00    -0.218 N 
ENDROOT
BRANCH   1  14
HETATM   14  C5  UNL     1      -3.843   5.947  12.759  1.00  0.00     0.027 C 
BRANCH  14  15
HETATM   15  C4  UNL     1      -4.745   6.500  11.730  1.00  0.00     0.070 A 
HETATM   16  C2  UNL     1      -6.079   6.729  11.857  1.00  0.00     0.038 A 
HETATM   17  C1  UNL     1      -6.996   6.498  13.009  1.00  0.00     0.071 C 
HETATM   18  N1  UNL     1      -6.507   7.241  10.684  1.00  0.00    -0.301 N 
HETATM   19  N2  UNL     1      -5.474   7.331   9.842  1.00  0.00    -0.266 N 
ATOM     20  H1  UNL     1      -7.467   7.515  10.475  1.00  0.00     0.186 HD
HETATM   21  C3  UNL     1      -4.371   6.879  10.465  1.00  0.00     0.273 A 
ATOM     22  H2  UNL     1      -5.515   7.683   8.886  1.00  0.00     0.190 HD
HETATM   23  O1  UNL     1      -3.227   6.840   9.918  1.00  0.00    -0.266 OA
ENDBRANCH  14  15
BRANCH  14  24
HETATM   24  C6  UNL     1      -2.556   6.626  12.861  1.00  0.00    -0.022 A 
HETATM   25  C7  UNL     1      -2.482   7.991  13.125  1.00  0.00     0.012 A 
HETATM   26  C8  UNL     1      -1.283   8.667  13.195  1.00  0.00     0.001 A 
HETATM   27  C9  UNL     1      -0.087   7.991  13.001  1.00  0.00     0.000 A 
HETATM   28  C10 UNL     1      -0.117   6.647  12.737  1.00  0.00     0.001 A 
HETATM   29  C11 UNL     1      -1.311   6.009  12.675  1.00  0.00     0.012 A 
ENDBRANCH  14  24
ENDBRANCH   1  14
BRANCH  13  30
HETATM   30  O5  UNL     1      -3.003   4.262  10.757  1.00  0.00    -0.282 OA
ATOM     31  H5  UNL     1      -3.155   3.854   9.913  1.00  0.00     0.245 HD
ENDBRANCH  13  30
BRANCH   4  32
HETATM   32  C14 UNL     1      -4.055   2.639  16.079  1.00  0.00     0.200 C 
BRANCH  32  33
HETATM   33  C15 UNL     1      -5.135   1.958  16.771  1.00  0.00     0.070 A 
HETATM   34  C16 UNL     1      -6.459   2.285  16.789  1.00  0.00     0.036 A 
HETATM   35  C17 UNL     1      -7.101   1.357  17.575  1.00  0.00     0.027 A 
HETATM   36  C18 UNL     1      -6.140   0.495  18.010  1.00  0.00     0.142 A 
HETATM   37  O3  UNL     1      -5.003   0.880  17.517  1.00  0.00    -0.325 OA
ENDBRANCH  32  33
ENDBRANCH   4  32
TORSDOF 6
ENDMDL
MODEL 5
REMARK VINA RESULT: -8.898878002      2.585      5.114
REMARK  6 active torsions:
REMARK  status: ('A' for Active; 'I' for Inactive)
REMARK    1  A    between atoms: C4_9  and  C5_10 
REMARK    2  A    between atoms: C5_10  and  C6_11 
REMARK    3  A    between atoms: C5_10  and  C12_17 
REMARK    4  A    between atoms: N3_20  and  C14_21 
REMARK    5  A    between atoms: C14_21  and  C15_22 
REMARK    6  A    between atoms: N4_35  and  O5_36 
ROOT
HETATM    1  C12 UNL     1      -3.699   4.722  12.492  1.00  0.00     0.143 C 
HETATM    2  C13 UNL     1      -3.867   5.270  11.208  1.00  0.00     0.281 C 
HETATM    3  O2  UNL     1      -4.794   4.711  10.542  1.00  0.00    -0.265 OA
HETATM    4  N3  UNL     1      -3.261   6.254  10.537  1.00  0.00    -0.272 N 
HETATM    5  C19 UNL     1      -2.626   7.292  11.104  1.00  0.00     0.263 C 
HETATM    6  O4  UNL     1      -2.282   8.184  10.306  1.00  0.00    -0.267 OA
HETATM    7  C20 UNL     1      -2.303   7.501  12.449  1.00  0.00     0.061 A 
HETATM    8  C21 UNL     1      -1.789   8.765  12.618  1.00  0.00     0.019 A 
HETATM    9  C22 UNL     1      -1.415   9.124  13.906  1.00  0.00     0.001 A 
HETATM   10  C23 UNL     1      -1.545   8.267  14.976  1.00  0.00     0.002 A 
HETATM   11  C24 UNL     1      -2.069   7.013  14.733  1.00  0.00     0.033 A 
HETATM   12  C25 UNL     1      -2.457   6.604  13.478  1.00  0.00     0.079 A 
HETATM   13  N4  UNL     1      -2.948   5.341  13.417  1.00  0.00    -0.218 N 
ENDROOT
BRANCH   1  14
HETATM   14  C5  UNL     1      -4.393   3.461  12.758  1.00  0.00     0.027 C 
BRANCH  14  15
HETATM   15  C4  UNL     1      -4.984   3.372  14.106  1.00  0.00     0.070 A 
HETATM   16  C2  UNL     1      -6.064   4.058  14.567  1.00  0.00     0.038 A 
HETATM   17  C1  UNL     1      -6.932   5.064  13.892  1.00  0.00     0.071 C 
HETATM   18  N1  UNL     1      -6.265   3.673  15.844  1.00  0.00    -0.301 N 
HETATM   19  N2  UNL     1      -5.339   2.771  16.181  1.00  0.00    -0.266 N 
ATOM     20  H1  UNL     1      -7.006   4.017  16.455  1.00  0.00     0.186 HD
HETATM   21  C3  UNL     1      -4.534   2.566  15.122  1.00  0.00     0.273 A 
ATOM     22  H2  UNL     1      -5.256   2.314  17.089  1.00  0.00     0.190 HD
HETATM   23  O1  UNL     1      -3.555   1.760  15.136  1.00  0.00    -0.266 OA
ENDBRANCH  14  15
BRANCH  14  24
HETATM   24  C6  UNL     1      -3.796   2.219  12.278  1.00  0.00    -0.022 A 
HETATM   25  C7  UNL     1      -2.434   2.135  12.002  1.00  0.00     0.012 A 
HETATM   26  C8  UNL     1      -1.847   0.986  11.518  1.00  0.00     0.001 A 
HETATM   27  C9  UNL     1      -2.613  -0.146  11.287  1.00  0.00     0.000 A 
HETATM   28  C10 UNL     1      -3.958  -0.105  11.546  1.00  0.00     0.001 A 
HETATM   29  C11 UNL     1      -4.508   1.038  12.021  1.00  0.00     0.012 A 
ENDBRANCH  14  24
ENDBRANCH   1  14
BRANCH  13  30
HETATM   30  O5  UNL     1      -2.599   4.606  14.498  1.00  0.00    -0.282 OA
ATOM     31  H5  UNL     1      -3.277   4.055  14.870  1.00  0.00     0.245 HD
ENDBRANCH  13  30
BRANCH   4  32
HETATM   32  C14 UNL     1      -3.283   6.186   9.104  1.00  0.00     0.200 C 
BRANCH  32  33
HETATM   33  C15 UNL     1      -2.181   5.485   8.468  1.00  0.00     0.070 A 
HETATM   34  C16 UNL     1      -1.717   4.230   8.736  1.00  0.00     0.036 A 
HETATM   35  C17 UNL     1      -0.662   3.993   7.886  1.00  0.00     0.027 A 
HETATM   36  C18 UNL     1      -0.521   5.116   7.129  1.00  0.00     0.142 A 
HETATM   37  O3  UNL     1      -1.428   5.966   7.499  1.00  0.00    -0.325 OA
ENDBRANCH  32  33
ENDBRANCH   4  32
TORSDOF 6
ENDMDL
