MODEL 1
REMARK VINA RESULT: -7.830065993      0.000      0.000
REMARK  5 active torsions:
REMARK  status: ('A' for Active; 'I' for Inactive)
REMARK    1  A    between atoms: C4_4  and  N1_5 
REMARK    2  A    between atoms: N1_5  and  C5_7 
REMARK    3  A    between atoms: C8_12  and  N3_13 
REMARK    4  A    between atoms: N3_13  and  C9_15 
REMARK    5  A    between atoms: C11_17  and  C12_18 
ROOT
HETATM    1  C1  UNL     1       3.398   1.016 -21.093  1.00  0.00     0.104 C 
HETATM    2  C2  UNL     1       4.401   0.563 -20.554  1.00  0.00    -0.127 C 
HETATM    3  C3  UNL     1       5.578   0.034 -19.948  1.00  0.00     0.119 A 
HETATM    4  C4  UNL     1       6.200   0.575 -18.849  1.00  0.00     0.087 A 
HETATM    5  C21 UNL     1       7.283  -0.207 -18.571  1.00  0.00     0.139 A 
HETATM    6  N6  UNL     1       7.300  -1.193 -19.490  1.00  0.00    -0.307 N 
ATOM      7  H6  UNL     1       7.997  -1.936 -19.539  1.00  0.00     0.186 HD
HETATM    8  N7  UNL     1       6.272  -1.051 -20.323  1.00  0.00    -0.287 N 
HETATM    9  C22 UNL     1       5.945  -1.906 -21.441  1.00  0.00     0.178 C 
ENDROOT
BRANCH   4  10
HETATM   10  N1  UNL     1       5.756   1.735 -18.166  1.00  0.00    -0.339 N 
ATOM     11  H1  UNL     1       6.256   2.619 -18.263  1.00  0.00     0.167 HD
BRANCH  10  12
HETATM   12  C5  UNL     1       4.690   1.651 -17.409  1.00  0.00     0.107 C 
HETATM   13  C6  UNL     1       4.796   0.915 -16.248  1.00  0.00     0.065 C 
HETATM   14  C7  UNL     1       4.030   1.003 -15.085  1.00  0.00     0.093 C 
HETATM   15  N2  UNL     1       2.928   1.758 -14.913  1.00  0.00    -0.350 N 
HETATM   16  C8  UNL     1       2.359   2.690 -15.703  1.00  0.00     0.133 C 
ATOM     17  H2  UNL     1       2.439   1.596 -14.032  1.00  0.00     0.166 HD
HETATM   18  C11 UNL     1       2.576   2.806 -17.068  1.00  0.00     0.091 C 
HETATM   19  N5  UNL     1       3.587   2.288 -17.828  1.00  0.00    -0.339 N 
ATOM     20  H5  UNL     1       3.490   2.399 -18.838  1.00  0.00     0.167 HD
BRANCH  16  21
HETATM   21  N3  UNL     1       1.565   3.541 -15.222  1.00  0.00    -0.354 N 
ATOM     22  H3  UNL     1       0.827   3.850 -15.855  1.00  0.00     0.166 HD
BRANCH  21  23
HETATM   23  C9  UNL     1       1.539   4.133 -13.943  1.00  0.00     0.058 C 
HETATM   24  C10 UNL     1       2.313   5.417 -13.815  1.00  0.00     0.054 C 
ENDBRANCH  21  23
ENDBRANCH  16  21
BRANCH  18  25
HETATM   25  C12 UNL     1       1.576   3.597 -17.789  1.00  0.00     0.029 A 
HETATM   26  C13 UNL     1       0.469   3.081 -18.411  1.00  0.00     0.019 A 
HETATM   27  C14 UNL     1       0.013   1.671 -18.514  1.00  0.00     0.069 C 
HETATM   28  N4  UNL     1      -0.193   4.116 -18.954  1.00  0.00    -0.358 N 
HETATM   29  C15 UNL     1       0.434   5.276 -18.713  1.00  0.00     0.043 A 
ATOM     30  H4  UNL     1      -1.062   4.030 -19.482  1.00  0.00     0.166 HD
HETATM   31  C16 UNL     1       0.193   6.605 -19.032  1.00  0.00     0.030 A 
HETATM   32  C20 UNL     1       1.557   4.962 -17.976  1.00  0.00     0.005 A 
HETATM   33  C17 UNL     1       1.044   7.613 -18.633  1.00  0.00     0.002 A 
HETATM   34  C18 UNL     1       2.171   7.279 -17.891  1.00  0.00     0.001 A 
HETATM   35  C19 UNL     1       2.431   5.968 -17.562  1.00  0.00     0.014 A 
ENDBRANCH  18  25
ENDBRANCH  10  12
ENDBRANCH   4  10
TORSDOF 5
ENDMDL
MODEL 2
REMARK VINA RESULT: -7.710276844      1.031      2.115
REMARK  5 active torsions:
REMARK  status: ('A' for Active; 'I' for Inactive)
REMARK    1  A    between atoms: C4_4  and  N1_5 
REMARK    2  A    between atoms: N1_5  and  C5_7 
REMARK    3  A    between atoms: C8_12  and  N3_13 
REMARK    4  A    between atoms: N3_13  and  C9_15 
REMARK    5  A    between atoms: C11_17  and  C12_18 
ROOT
HETATM    1  C1  UNL     1       9.403   0.731 -16.143  1.00  0.00     0.104 C 
HETATM    2  C2  UNL     1       8.682   0.395 -17.076  1.00  0.00    -0.127 C 
HETATM    3  C3  UNL     1       7.844  -0.017 -18.154  1.00  0.00     0.119 A 
HETATM    4  C4  UNL     1       6.682   0.616 -18.524  1.00  0.00     0.087 A 
HETATM    5  C21 UNL     1       6.171  -0.069 -19.588  1.00  0.00     0.139 A 
HETATM    6  N6  UNL     1       7.015  -1.088 -19.840  1.00  0.00    -0.307 N 
ATOM      7  H6  UNL     1       6.897  -1.778 -20.582  1.00  0.00     0.186 HD
HETATM    8  N7  UNL     1       8.027  -1.060 -18.977  1.00  0.00    -0.287 N 
HETATM    9  C22 UNL     1       9.138  -1.983 -18.921  1.00  0.00     0.178 C 
ENDROOT
BRANCH   4  10
HETATM   10  N1  UNL     1       6.157   1.766 -17.885  1.00  0.00    -0.339 N 
ATOM     11  H1  UNL     1       6.611   2.673 -17.991  1.00  0.00     0.167 HD
BRANCH  10  12
HETATM   12  C5  UNL     1       5.075   1.642 -17.155  1.00  0.00     0.107 C 
HETATM   13  C6  UNL     1       5.211   1.037 -15.923  1.00  0.00     0.065 C 
HETATM   14  C7  UNL     1       4.394   1.155 -14.798  1.00  0.00     0.093 C 
HETATM   15  N2  UNL     1       3.213   1.801 -14.735  1.00  0.00    -0.350 N 
HETATM   16  C8  UNL     1       2.584   2.586 -15.631  1.00  0.00     0.133 C 
ATOM     17  H2  UNL     1       2.709   1.673 -13.858  1.00  0.00     0.166 HD
HETATM   18  C11 UNL     1       2.842   2.593 -16.994  1.00  0.00     0.091 C 
HETATM   19  N5  UNL     1       3.930   2.115 -17.669  1.00  0.00    -0.339 N 
ATOM     20  H5  UNL     1       3.863   2.117 -18.686  1.00  0.00     0.167 HD
BRANCH  16  21
HETATM   21  N3  UNL     1       1.688   3.391 -15.261  1.00  0.00    -0.354 N 
ATOM     22  H3  UNL     1       0.922   3.518 -15.924  1.00  0.00     0.166 HD
BRANCH  21  23
HETATM   23  C9  UNL     1       1.579   4.141 -14.074  1.00  0.00     0.058 C 
HETATM   24  C10 UNL     1       2.336   5.442 -14.066  1.00  0.00     0.054 C 
ENDBRANCH  21  23
ENDBRANCH  16  21
BRANCH  18  25
HETATM   25  C12 UNL     1       1.796   3.199 -17.820  1.00  0.00     0.029 A 
HETATM   26  C13 UNL     1       0.750   2.517 -18.386  1.00  0.00     0.019 A 
HETATM   27  C14 UNL     1       0.416   1.072 -18.318  1.00  0.00     0.069 C 
HETATM   28  N4  UNL     1       0.015   3.416 -19.061  1.00  0.00    -0.358 N 
HETATM   29  C15 UNL     1       0.537   4.647 -18.960  1.00  0.00     0.043 A 
ATOM     30  H4  UNL     1      -0.831   3.191 -19.585  1.00  0.00     0.166 HD
HETATM   31  C16 UNL     1       0.193   5.900 -19.445  1.00  0.00     0.030 A 
HETATM   32  C20 UNL     1       1.666   4.524 -18.177  1.00  0.00     0.005 A 
HETATM   33  C17 UNL     1       0.946   7.020 -19.166  1.00  0.00     0.002 A 
HETATM   34  C18 UNL     1       2.081   6.879 -18.374  1.00  0.00     0.001 A 
HETATM   35  C19 UNL     1       2.443   5.645 -17.881  1.00  0.00     0.014 A 
ENDBRANCH  18  25
ENDBRANCH  10  12
ENDBRANCH   4  10
TORSDOF 5
ENDMDL
MODEL 3
REMARK VINA RESULT: -7.617220020      2.041      4.845
REMARK  5 active torsions:
REMARK  status: ('A' for Active; 'I' for Inactive)
REMARK    1  A    between atoms: C4_4  and  N1_5 
REMARK    2  A    between atoms: N1_5  and  C5_7 
REMARK    3  A    between atoms: C8_12  and  N3_13 
REMARK    4  A    between atoms: N3_13  and  C9_15 
REMARK    5  A    between atoms: C11_17  and  C12_18 
ROOT
HETATM    1  C1  UNL     1       6.146  -0.906 -12.797  1.00  0.00     0.104 C 
HETATM    2  C2  UNL     1       6.354  -0.093 -13.689  1.00  0.00    -0.127 C 
HETATM    3  C3  UNL     1       6.598   0.837 -14.743  1.00  0.00     0.119 A 
HETATM    4  C4  UNL     1       5.827   1.945 -15.000  1.00  0.00     0.087 A 
HETATM    5  C21 UNL     1       6.376   2.578 -16.077  1.00  0.00     0.139 A 
HETATM    6  N6  UNL     1       7.452   1.857 -16.449  1.00  0.00    -0.307 N 
ATOM      7  H6  UNL     1       8.069   2.084 -17.229  1.00  0.00     0.186 HD
HETATM    8  N7  UNL     1       7.590   0.806 -15.646  1.00  0.00    -0.287 N 
HETATM    9  C22 UNL     1       8.621  -0.205 -15.718  1.00  0.00     0.178 C 
ENDROOT
BRANCH   4  10
HETATM   10  N1  UNL     1       4.681   2.315 -14.253  1.00  0.00    -0.339 N 
ATOM     11  H1  UNL     1       4.572   2.012 -13.285  1.00  0.00     0.167 HD
BRANCH  10  12
HETATM   12  C5  UNL     1       3.766   3.055 -14.828  1.00  0.00     0.107 C 
HETATM   13  C6  UNL     1       3.418   4.232 -14.199  1.00  0.00     0.065 C 
HETATM   14  C7  UNL     1       2.845   5.380 -14.749  1.00  0.00     0.093 C 
HETATM   15  N2  UNL     1       2.392   5.518 -16.010  1.00  0.00    -0.350 N 
HETATM   16  C8  UNL     1       2.480   4.700 -17.078  1.00  0.00     0.133 C 
ATOM     17  H2  UNL     1       1.899   6.392 -16.188  1.00  0.00     0.166 HD
HETATM   18  C11 UNL     1       2.728   3.337 -17.010  1.00  0.00     0.091 C 
HETATM   19  N5  UNL     1       3.246   2.604 -15.979  1.00  0.00    -0.339 N 
ATOM     20  H5  UNL     1       3.235   1.592 -16.100  1.00  0.00     0.167 HD
BRANCH  16  21
HETATM   21  N3  UNL     1       2.333   5.151 -18.245  1.00  0.00    -0.354 N 
ATOM     22  H3  UNL     1       2.684   4.547 -18.989  1.00  0.00     0.166 HD
BRANCH  21  23
HETATM   23  C9  UNL     1       1.758   6.361 -18.682  1.00  0.00     0.058 C 
HETATM   24  C10 UNL     1       0.366   6.244 -19.243  1.00  0.00     0.054 C 
ENDBRANCH  21  23
ENDBRANCH  16  21
BRANCH  18  25
HETATM   25  C12 UNL     1       2.382   2.583 -18.217  1.00  0.00     0.029 A 
HETATM   26  C13 UNL     1       1.105   2.344 -18.653  1.00  0.00     0.019 A 
HETATM   27  C14 UNL     1      -0.191   2.758 -18.058  1.00  0.00     0.069 C 
HETATM   28  N4  UNL     1       1.205   1.625 -19.784  1.00  0.00    -0.358 N 
HETATM   29  C15 UNL     1       2.486   1.389 -20.099  1.00  0.00     0.043 A 
ATOM     30  H4  UNL     1       0.408   1.302 -20.332  1.00  0.00     0.166 HD
HETATM   31  C16 UNL     1       3.135   0.719 -21.126  1.00  0.00     0.030 A 
HETATM   32  C20 UNL     1       3.244   1.989 -19.114  1.00  0.00     0.005 A 
HETATM   33  C17 UNL     1       4.510   0.640 -21.188  1.00  0.00     0.002 A 
HETATM   34  C18 UNL     1       5.258   1.252 -20.188  1.00  0.00     0.001 A 
HETATM   35  C19 UNL     1       4.636   1.922 -19.158  1.00  0.00     0.014 A 
ENDBRANCH  18  25
ENDBRANCH  10  12
ENDBRANCH   4  10
TORSDOF 5
ENDMDL
MODEL 4
REMARK VINA RESULT: -7.543202380      2.397      4.489
REMARK  5 active torsions:
REMARK  status: ('A' for Active; 'I' for Inactive)
REMARK    1  A    between atoms: C4_4  and  N1_5 
REMARK    2  A    between atoms: N1_5  and  C5_7 
REMARK    3  A    between atoms: C8_12  and  N3_13 
REMARK    4  A    between atoms: N3_13  and  C9_15 
REMARK    5  A    between atoms: C11_17  and  C12_18 
ROOT
HETATM    1  C1  UNL     1      11.021   1.580 -18.120  1.00  0.00     0.104 C 
HETATM    2  C2  UNL     1      10.239   0.997 -17.379  1.00  0.00    -0.127 C 
HETATM    3  C3  UNL     1       9.345   0.315 -16.502  1.00  0.00     0.119 A 
HETATM    4  C4  UNL     1       8.095   0.768 -16.156  1.00  0.00     0.087 A 
HETATM    5  C21 UNL     1       7.552  -0.153 -15.307  1.00  0.00     0.139 A 
HETATM    6  N6  UNL     1       8.467  -1.131 -15.153  1.00  0.00    -0.307 N 
ATOM      7  H6  UNL     1       8.346  -1.960 -14.572  1.00  0.00     0.186 HD
HETATM    8  N7  UNL     1       9.550  -0.853 -15.874  1.00  0.00    -0.287 N 
HETATM    9  C22 UNL     1      10.748  -1.655 -15.974  1.00  0.00     0.178 C 
ENDROOT
BRANCH   4  10
HETATM   10  N1  UNL     1       7.521   1.976 -16.625  1.00  0.00    -0.339 N 
ATOM     11  H1  UNL     1       8.003   2.865 -16.493  1.00  0.00     0.167 HD
BRANCH  10  12
HETATM   12  C5  UNL     1       6.360   1.929 -17.231  1.00  0.00     0.107 C 
HETATM   13  C6  UNL     1       6.155   0.896 -18.122  1.00  0.00     0.065 C 
HETATM   14  C7  UNL     1       4.949   0.346 -18.558  1.00  0.00     0.093 C 
HETATM   15  N2  UNL     1       3.716   0.811 -18.282  1.00  0.00    -0.350 N 
HETATM   16  C8  UNL     1       3.302   1.788 -17.451  1.00  0.00     0.133 C 
ATOM     17  H2  UNL     1       2.965   0.343 -18.790  1.00  0.00     0.166 HD
HETATM   18  C11 UNL     1       4.108   2.810 -16.971  1.00  0.00     0.091 C 
HETATM   19  N5  UNL     1       5.472   2.888 -16.933  1.00  0.00    -0.339 N 
ATOM     20  H5  UNL     1       5.862   3.785 -16.643  1.00  0.00     0.167 HD
BRANCH  16  21
HETATM   21  N3  UNL     1       2.109   1.826 -17.049  1.00  0.00    -0.354 N 
ATOM     22  H3  UNL     1       1.980   2.214 -16.114  1.00  0.00     0.166 HD
BRANCH  21  23
HETATM   23  C9  UNL     1       0.925   1.415 -17.691  1.00  0.00     0.058 C 
HETATM   24  C10 UNL     1      -0.028   2.524 -18.051  1.00  0.00     0.054 C 
ENDBRANCH  21  23
ENDBRANCH  16  21
BRANCH  18  25
HETATM   25  C12 UNL     1       3.389   3.966 -16.431  1.00  0.00     0.029 A 
HETATM   26  C13 UNL     1       2.741   4.908 -17.186  1.00  0.00     0.019 A 
HETATM   27  C14 UNL     1       2.602   5.006 -18.662  1.00  0.00     0.069 C 
HETATM   28  N4  UNL     1       2.209   5.798 -16.332  1.00  0.00    -0.358 N 
HETATM   29  C15 UNL     1       2.483   5.475 -15.060  1.00  0.00     0.043 A 
ATOM     30  H4  UNL     1       1.666   6.614 -16.614  1.00  0.00     0.166 HD
HETATM   31  C16 UNL     1       2.189   6.030 -13.822  1.00  0.00     0.030 A 
HETATM   32  C20 UNL     1       3.231   4.316 -15.107  1.00  0.00     0.005 A 
HETATM   33  C17 UNL     1       2.621   5.455 -12.646  1.00  0.00     0.002 A 
HETATM   34  C18 UNL     1       3.373   4.286 -12.713  1.00  0.00     0.001 A 
HETATM   35  C19 UNL     1       3.678   3.718 -13.929  1.00  0.00     0.014 A 
ENDBRANCH  18  25
ENDBRANCH  10  12
ENDBRANCH   4  10
TORSDOF 5
ENDMDL
MODEL 5
REMARK VINA RESULT: -7.471562271      0.633      1.631
REMARK  5 active torsions:
REMARK  status: ('A' for Active; 'I' for Inactive)
REMARK    1  A    between atoms: C4_4  and  N1_5 
REMARK    2  A    between atoms: N1_5  and  C5_7 
REMARK    3  A    between atoms: C8_12  and  N3_13 
REMARK    4  A    between atoms: N3_13  and  C9_15 
REMARK    5  A    between atoms: C11_17  and  C12_18 
ROOT
HETATM    1  C1  UNL     1       7.957  -1.499 -17.791  1.00  0.00     0.104 C 
HETATM    2  C2  UNL     1       7.251  -1.020 -18.671  1.00  0.00    -0.127 C 
HETATM    3  C3  UNL     1       6.422  -0.483 -19.699  1.00  0.00     0.119 A 
HETATM    4  C4  UNL     1       5.671   0.661 -19.578  1.00  0.00     0.087 A 
HETATM    5  C21 UNL     1       5.020   0.845 -20.763  1.00  0.00     0.139 A 
HETATM    6  N6  UNL     1       5.380  -0.173 -21.570  1.00  0.00    -0.307 N 
ATOM      7  H6  UNL     1       5.053  -0.306 -22.527  1.00  0.00     0.186 HD
HETATM    8  N7  UNL     1       6.227  -0.977 -20.932  1.00  0.00    -0.287 N 
HETATM    9  C22 UNL     1       6.839  -2.176 -21.457  1.00  0.00     0.178 C 
ENDROOT
BRANCH   4  10
HETATM   10  N1  UNL     1       5.618   1.465 -18.412  1.00  0.00    -0.339 N 
ATOM     11  H1  UNL     1       6.395   2.079 -18.169  1.00  0.00     0.167 HD
BRANCH  10  12
HETATM   12  C5  UNL     1       4.551   1.406 -17.654  1.00  0.00     0.107 C 
HETATM   13  C6  UNL     1       4.633   0.644 -16.507  1.00  0.00     0.065 C 
HETATM   14  C7  UNL     1       3.874   0.737 -15.340  1.00  0.00     0.093 C 
HETATM   15  N2  UNL     1       2.800   1.529 -15.150  1.00  0.00    -0.350 N 
HETATM   16  C8  UNL     1       2.264   2.496 -15.920  1.00  0.00     0.133 C 
ATOM     17  H2  UNL     1       2.308   1.368 -14.271  1.00  0.00     0.166 HD
HETATM   18  C11 UNL     1       2.483   2.631 -17.283  1.00  0.00     0.091 C 
HETATM   19  N5  UNL     1       3.471   2.091 -18.057  1.00  0.00    -0.339 N 
ATOM     20  H5  UNL     1       3.376   2.225 -19.064  1.00  0.00     0.167 HD
BRANCH  16  21
HETATM   21  N3  UNL     1       1.503   3.366 -15.420  1.00  0.00    -0.354 N 
ATOM     22  H3  UNL     1       0.779   3.717 -16.047  1.00  0.00     0.166 HD
BRANCH  21  23
HETATM   23  C9  UNL     1       1.499   3.930 -14.129  1.00  0.00     0.058 C 
HETATM   24  C10 UNL     1       2.272   5.213 -13.987  1.00  0.00     0.054 C 
ENDBRANCH  21  23
ENDBRANCH  16  21
BRANCH  18  25
HETATM   25  C12 UNL     1       1.511   3.471 -17.987  1.00  0.00     0.029 A 
HETATM   26  C13 UNL     1       0.372   3.011 -18.595  1.00  0.00     0.019 A 
HETATM   27  C14 UNL     1      -0.151   1.626 -18.700  1.00  0.00     0.069 C 
HETATM   28  N4  UNL     1      -0.249   4.079 -19.123  1.00  0.00    -0.358 N 
HETATM   29  C15 UNL     1       0.435   5.208 -18.885  1.00  0.00     0.043 A 
ATOM     30  H4  UNL     1      -1.128   4.037 -19.639  1.00  0.00     0.166 HD
HETATM   31  C16 UNL     1       0.253   6.548 -19.194  1.00  0.00     0.030 A 
HETATM   32  C20 UNL     1       1.553   4.837 -18.166  1.00  0.00     0.005 A 
HETATM   33  C17 UNL     1       1.155   7.514 -18.801  1.00  0.00     0.002 A 
HETATM   34  C18 UNL     1       2.276   7.123 -18.077  1.00  0.00     0.001 A 
HETATM   35  C19 UNL     1       2.478   5.798 -17.759  1.00  0.00     0.014 A 
ENDBRANCH  18  25
ENDBRANCH  10  12
ENDBRANCH   4  10
TORSDOF 5
ENDMDL
