MODEL 1
REMARK VINA RESULT: -7.643736461      0.000      0.000
REMARK  14 active torsions:
REMARK  status: ('A' for Active; 'I' for Inactive)
REMARK    1  A    between atoms: C3_3  and  C4_4 
REMARK    2  A    between atoms: C4_4  and  C5_5 
REMARK    3  A    between atoms: C5_5  and  C6_6 
REMARK    4  A    between atoms: C6_6  and  C7_7 
REMARK       I    between atoms: C7_7  and  N1_9 
REMARK    5  A    between atoms: C9_14  and  N3_15 
REMARK       I    between atoms: N3_15  and  C10_17 
REMARK    6  A    between atoms: N5_19  and  C11_21 
REMARK    7  A    between atoms: C11_21  and  C12_22 
REMARK    8  A    between atoms: C12_22  and  C13_23 
REMARK    9  A    between atoms: C13_23  and  C14_24 
REMARK   10  A    between atoms: C14_24  and  C15_25 
REMARK   11  A    between atoms: C15_25  and  N6_26 
REMARK   12  A    between atoms: C16_30  and  C17_31 
REMARK   13  A    between atoms: C17_31  and  C18_32 
REMARK   14  A    between atoms: C18_32  and  C19_33 
ROOT
HETATM    1  C1  UNL     1      30.177  -6.078  41.012  1.00  0.00     0.045 C 
HETATM    2  C2  UNL     1      29.278  -6.545  41.856  1.00  0.00     0.051 A 
HETATM    3  C3  UNL     1      28.426  -7.546  41.505  1.00  0.00     0.056 A 
HETATM    4  N2  UNL     1      27.533  -7.966  42.439  1.00  0.00    -0.339 N 
ATOM      5  H2  UNL     1      26.883  -8.715  42.204  1.00  0.00     0.167 HD
HETATM    6  C9  UNL     1      27.485  -7.425  43.653  1.00  0.00     0.131 A 
HETATM    7  C16 UNL     1      28.367  -6.386  44.026  1.00  0.00     0.056 A 
HETATM    8  N7  UNL     1      29.246  -5.964  43.120  1.00  0.00    -0.350 N 
HETATM    9  C21 UNL     1      30.183  -4.880  43.337  1.00  0.00     0.156 C 
ENDROOT
BRANCH   6  10
HETATM   10  N3  UNL     1      26.608  -7.849  44.518  1.00  0.00    -0.315 N 
HETATM   11  C10 UNL     1      26.694  -9.151  45.036  1.00  0.00     0.189 C 
HETATM   12  N4  UNL     1      26.356 -10.337  44.328  1.00  0.00    -0.063 NA
HETATM   13  N5  UNL     1      27.111  -9.294  46.252  1.00  0.00    -0.364 N 
ATOM     14  H5  UNL     1      27.356  -8.452  46.773  1.00  0.00     0.162 HD
ATOM     15  H3  UNL     1      25.854  -7.232  44.820  1.00  0.00     0.170 HD
BRANCH  13  16
HETATM   16  C11 UNL     1      27.253 -10.560  46.921  1.00  0.00     0.122 C 
BRANCH  16  17
HETATM   17  C12 UNL     1      28.700 -10.856  47.269  1.00  0.00     0.020 C 
BRANCH  17  18
HETATM   18  C13 UNL     1      28.991 -12.292  46.891  1.00  0.00     0.003 C 
BRANCH  18  19
HETATM   19  C14 UNL     1      27.837 -12.916  46.142  1.00  0.00     0.027 C 
BRANCH  19  20
HETATM   20  C15 UNL     1      28.327 -13.343  44.780  1.00  0.00     0.229 C 
BRANCH  20  21
HETATM   21  N6  UNL     1      28.772 -12.252  43.967  1.00  0.00    -0.079 N 
ATOM     22  H63 UNL     1      28.000 -11.869  43.421  1.00  0.00     0.274 HD
ATOM     23  H62 UNL     1      28.993 -11.439  44.542  1.00  0.00     0.274 HD
ATOM     24  H61 UNL     1      29.558 -12.491  43.362  1.00  0.00     0.274 HD
ENDBRANCH  20  21
ENDBRANCH  19  20
ENDBRANCH  18  19
ENDBRANCH  17  18
ENDBRANCH  16  17
ENDBRANCH  13  16
ENDBRANCH   6  10
BRANCH   7  25
HETATM   25  C17 UNL     1      28.244  -5.817  45.370  1.00  0.00     0.061 C 
BRANCH  25  26
HETATM   26  C18 UNL     1      29.390  -6.029  46.291  1.00  0.00     0.006 C 
BRANCH  26  27
HETATM   27  C19 UNL     1      29.953  -7.398  46.428  1.00  0.00    -0.004 C 
HETATM   28  C20 UNL     1      31.328  -7.610  45.894  1.00  0.00     0.005 C 
ENDBRANCH  26  27
ENDBRANCH  25  26
ENDBRANCH   7  25
BRANCH   3  29
HETATM   29  C4  UNL     1      28.438  -8.106  40.323  1.00  0.00     0.006 C 
BRANCH  29  30
HETATM   30  C5  UNL     1      27.144  -8.229  39.540  1.00  0.00     0.039 C 
BRANCH  30  31
HETATM   31  C6  UNL     1      26.629  -6.877  39.160  1.00  0.00     0.106 C 
BRANCH  31  32
HETATM   32  C7  UNL     1      25.223  -6.902  38.709  1.00  0.00     0.217 C 
HETATM   33  O1  UNL     1      24.493  -7.854  39.023  1.00  0.00    -0.274 OA
HETATM   34  N1  UNL     1      24.739  -5.840  37.927  1.00  0.00    -0.365 N 
HETATM   35  C8  UNL     1      23.360  -5.834  37.466  1.00  0.00     0.149 C 
ATOM     36  H1  UNL     1      25.359  -5.068  37.681  1.00  0.00     0.161 HD
ENDBRANCH  31  32
ENDBRANCH  30  31
ENDBRANCH  29  30
ENDBRANCH   3  29
TORSDOF 14
ENDMDL
MODEL 2
REMARK VINA RESULT: -7.591178224      1.476      1.867
REMARK  14 active torsions:
REMARK  status: ('A' for Active; 'I' for Inactive)
REMARK    1  A    between atoms: C3_3  and  C4_4 
REMARK    2  A    between atoms: C4_4  and  C5_5 
REMARK    3  A    between atoms: C5_5  and  C6_6 
REMARK    4  A    between atoms: C6_6  and  C7_7 
REMARK       I    between atoms: C7_7  and  N1_9 
REMARK    5  A    between atoms: C9_14  and  N3_15 
REMARK       I    between atoms: N3_15  and  C10_17 
REMARK    6  A    between atoms: N5_19  and  C11_21 
REMARK    7  A    between atoms: C11_21  and  C12_22 
REMARK    8  A    between atoms: C12_22  and  C13_23 
REMARK    9  A    between atoms: C13_23  and  C14_24 
REMARK   10  A    between atoms: C14_24  and  C15_25 
REMARK   11  A    between atoms: C15_25  and  N6_26 
REMARK   12  A    between atoms: C16_30  and  C17_31 
REMARK   13  A    between atoms: C17_31  and  C18_32 
REMARK   14  A    between atoms: C18_32  and  C19_33 
ROOT
HETATM    1  C1  UNL     1      29.985  -5.972  40.925  1.00  0.00     0.045 C 
HETATM    2  C2  UNL     1      29.177  -6.397  41.877  1.00  0.00     0.051 A 
HETATM    3  C3  UNL     1      28.248  -7.362  41.641  1.00  0.00     0.056 A 
HETATM    4  N2  UNL     1      27.459  -7.742  42.681  1.00  0.00    -0.339 N 
ATOM      5  H2  UNL     1      26.755  -8.464  42.533  1.00  0.00     0.167 HD
HETATM    6  C9  UNL     1      27.584  -7.195  43.888  1.00  0.00     0.131 A 
HETATM    7  C16 UNL     1      28.547  -6.194  44.141  1.00  0.00     0.056 A 
HETATM    8  N7  UNL     1      29.325  -5.812  43.131  1.00  0.00    -0.350 N 
HETATM    9  C21 UNL     1      30.326  -4.768  43.222  1.00  0.00     0.156 C 
ENDROOT
BRANCH   6  10
HETATM   10  N3  UNL     1      26.803  -7.580  44.857  1.00  0.00    -0.315 N 
HETATM   11  C10 UNL     1      26.839  -8.907  45.313  1.00  0.00     0.189 C 
HETATM   12  N4  UNL     1      26.293 -10.025  44.624  1.00  0.00    -0.063 NA
HETATM   13  N5  UNL     1      27.410  -9.142  46.451  1.00  0.00    -0.364 N 
ATOM     14  H5  UNL     1      27.804  -8.349  46.957  1.00  0.00     0.162 HD
ATOM     15  H3  UNL     1      26.161  -6.913  45.286  1.00  0.00     0.170 HD
BRANCH  13  16
HETATM   16  C11 UNL     1      27.526 -10.445  47.049  1.00  0.00     0.122 C 
BRANCH  16  17
HETATM   17  C12 UNL     1      28.974 -10.857  47.229  1.00  0.00     0.020 C 
BRANCH  17  18
HETATM   18  C13 UNL     1      29.087 -12.332  46.912  1.00  0.00     0.003 C 
BRANCH  18  19
HETATM   19  C14 UNL     1      27.865 -12.840  46.183  1.00  0.00     0.027 C 
BRANCH  19  20
HETATM   20  C15 UNL     1      28.272 -13.226  44.781  1.00  0.00     0.229 C 
BRANCH  20  21
HETATM   21  N6  UNL     1      28.502 -12.102  43.925  1.00  0.00    -0.079 N 
ATOM     22  H63 UNL     1      28.437 -11.229  44.448  1.00  0.00     0.274 HD
ATOM     23  H62 UNL     1      29.481 -12.058  43.641  1.00  0.00     0.274 HD
ATOM     24  H61 UNL     1      27.889 -12.081  43.110  1.00  0.00     0.274 HD
ENDBRANCH  20  21
ENDBRANCH  19  20
ENDBRANCH  18  19
ENDBRANCH  17  18
ENDBRANCH  16  17
ENDBRANCH  13  16
ENDBRANCH   6  10
BRANCH   7  25
HETATM   25  C17 UNL     1      28.615  -5.616  45.485  1.00  0.00     0.061 C 
BRANCH  25  26
HETATM   26  C18 UNL     1      29.398  -6.371  46.496  1.00  0.00     0.006 C 
BRANCH  26  27
HETATM   27  C19 UNL     1      30.864  -6.521  46.298  1.00  0.00    -0.004 C 
HETATM   28  C20 UNL     1      31.341  -7.857  45.843  1.00  0.00     0.005 C 
ENDBRANCH  26  27
ENDBRANCH  25  26
ENDBRANCH   7  25
BRANCH   3  29
HETATM   29  C4  UNL     1      28.090  -7.926  40.471  1.00  0.00     0.006 C 
BRANCH  29  30
HETATM   30  C5  UNL     1      26.872  -7.585  39.634  1.00  0.00     0.039 C 
BRANCH  30  31
HETATM   31  C6  UNL     1      27.250  -7.425  38.195  1.00  0.00     0.106 C 
BRANCH  31  32
HETATM   32  C7  UNL     1      27.323  -8.711  37.473  1.00  0.00     0.217 C 
HETATM   33  O1  UNL     1      26.286  -9.359  37.264  1.00  0.00    -0.274 OA
HETATM   34  N1  UNL     1      28.573  -9.176  37.034  1.00  0.00    -0.365 N 
HETATM   35  C8  UNL     1      28.680 -10.438  36.320  1.00  0.00     0.149 C 
ATOM     36  H1  UNL     1      29.412  -8.625  37.217  1.00  0.00     0.161 HD
ENDBRANCH  31  32
ENDBRANCH  30  31
ENDBRANCH  29  30
ENDBRANCH   3  29
TORSDOF 14
ENDMDL
MODEL 3
REMARK VINA RESULT: -7.498284035      1.871      2.407
REMARK  14 active torsions:
REMARK  status: ('A' for Active; 'I' for Inactive)
REMARK    1  A    between atoms: C3_3  and  C4_4 
REMARK    2  A    between atoms: C4_4  and  C5_5 
REMARK    3  A    between atoms: C5_5  and  C6_6 
REMARK    4  A    between atoms: C6_6  and  C7_7 
REMARK       I    between atoms: C7_7  and  N1_9 
REMARK    5  A    between atoms: C9_14  and  N3_15 
REMARK       I    between atoms: N3_15  and  C10_17 
REMARK    6  A    between atoms: N5_19  and  C11_21 
REMARK    7  A    between atoms: C11_21  and  C12_22 
REMARK    8  A    between atoms: C12_22  and  C13_23 
REMARK    9  A    between atoms: C13_23  and  C14_24 
REMARK   10  A    between atoms: C14_24  and  C15_25 
REMARK   11  A    between atoms: C15_25  and  N6_26 
REMARK   12  A    between atoms: C16_30  and  C17_31 
REMARK   13  A    between atoms: C17_31  and  C18_32 
REMARK   14  A    between atoms: C18_32  and  C19_33 
ROOT
HETATM    1  C1  UNL     1      29.224  -6.893  38.874  1.00  0.00     0.045 C 
HETATM    2  C2  UNL     1      28.757  -6.706  40.093  1.00  0.00     0.051 A 
HETATM    3  C3  UNL     1      27.506  -7.111  40.445  1.00  0.00     0.056 A 
HETATM    4  N2  UNL     1      27.107  -6.880  41.723  1.00  0.00    -0.339 N 
ATOM      5  H2  UNL     1      26.175  -7.174  42.014  1.00  0.00     0.167 HD
HETATM    6  C9  UNL     1      27.902  -6.280  42.605  1.00  0.00     0.131 A 
HETATM    7  C16 UNL     1      29.202  -5.857  42.249  1.00  0.00     0.056 A 
HETATM    8  N7  UNL     1      29.605  -6.076  40.999  1.00  0.00    -0.350 N 
HETATM    9  C21 UNL     1      30.889  -5.661  40.472  1.00  0.00     0.156 C 
ENDROOT
BRANCH   6  10
HETATM   10  N3  UNL     1      27.479  -6.068  43.819  1.00  0.00    -0.315 N 
HETATM   11  C10 UNL     1      27.269  -7.144  44.695  1.00  0.00     0.189 C 
HETATM   12  N4  UNL     1      26.177  -8.053  44.628  1.00  0.00    -0.063 NA
HETATM   13  N5  UNL     1      28.130  -7.332  45.643  1.00  0.00    -0.364 N 
ATOM     14  H5  UNL     1      28.917  -6.687  45.704  1.00  0.00     0.162 HD
ATOM     15  H3  UNL     1      27.300  -5.114  44.134  1.00  0.00     0.170 HD
BRANCH  13  16
HETATM   16  C11 UNL     1      28.051  -8.389  46.616  1.00  0.00     0.122 C 
BRANCH  16  17
HETATM   17  C12 UNL     1      29.094  -9.462  46.369  1.00  0.00     0.020 C 
BRANCH  17  18
HETATM   18  C13 UNL     1      28.500 -10.796  46.768  1.00  0.00     0.003 C 
BRANCH  18  19
HETATM   19  C14 UNL     1      27.252 -11.109  45.976  1.00  0.00     0.027 C 
BRANCH  19  20
HETATM   20  C15 UNL     1      27.653 -11.412  44.553  1.00  0.00     0.229 C 
BRANCH  20  21
HETATM   21  N6  UNL     1      26.661 -11.040  43.590  1.00  0.00    -0.079 N 
ATOM     22  H63 UNL     1      25.732 -11.032  44.012  1.00  0.00     0.274 HD
ATOM     23  H62 UNL     1      26.746 -10.053  43.347  1.00  0.00     0.274 HD
ATOM     24  H61 UNL     1      26.671 -11.621  42.752  1.00  0.00     0.274 HD
ENDBRANCH  20  21
ENDBRANCH  19  20
ENDBRANCH  18  19
ENDBRANCH  17  18
ENDBRANCH  16  17
ENDBRANCH  13  16
ENDBRANCH   6  10
BRANCH   7  25
HETATM   25  C17 UNL     1      30.016  -5.180  43.260  1.00  0.00     0.061 C 
BRANCH  25  26
HETATM   26  C18 UNL     1      30.955  -6.028  44.037  1.00  0.00     0.006 C 
BRANCH  26  27
HETATM   27  C19 UNL     1      31.457  -5.528  45.344  1.00  0.00    -0.004 C 
HETATM   28  C20 UNL     1      31.416  -6.486  46.484  1.00  0.00     0.005 C 
ENDBRANCH  26  27
ENDBRANCH  25  26
ENDBRANCH   7  25
BRANCH   3  29
HETATM   29  C4  UNL     1      26.692  -7.704  39.610  1.00  0.00     0.006 C 
BRANCH  29  30
HETATM   30  C5  UNL     1      25.469  -6.963  39.103  1.00  0.00     0.039 C 
BRANCH  30  31
HETATM   31  C6  UNL     1      25.551  -6.764  37.623  1.00  0.00     0.106 C 
BRANCH  31  32
HETATM   32  C7  UNL     1      26.248  -5.517  37.248  1.00  0.00     0.217 C 
HETATM   33  O1  UNL     1      26.131  -4.508  37.959  1.00  0.00    -0.274 OA
HETATM   34  N1  UNL     1      27.036  -5.501  36.084  1.00  0.00    -0.365 N 
HETATM   35  C8  UNL     1      27.735  -4.291  35.686  1.00  0.00     0.149 C 
ATOM     36  H1  UNL     1      27.117  -6.344  35.515  1.00  0.00     0.161 HD
ENDBRANCH  31  32
ENDBRANCH  30  31
ENDBRANCH  29  30
ENDBRANCH   3  29
TORSDOF 14
ENDMDL
MODEL 4
REMARK VINA RESULT: -7.423121515      4.409      8.919
REMARK  14 active torsions:
REMARK  status: ('A' for Active; 'I' for Inactive)
REMARK    1  A    between atoms: C3_3  and  C4_4 
REMARK    2  A    between atoms: C4_4  and  C5_5 
REMARK    3  A    between atoms: C5_5  and  C6_6 
REMARK    4  A    between atoms: C6_6  and  C7_7 
REMARK       I    between atoms: C7_7  and  N1_9 
REMARK    5  A    between atoms: C9_14  and  N3_15 
REMARK       I    between atoms: N3_15  and  C10_17 
REMARK    6  A    between atoms: N5_19  and  C11_21 
REMARK    7  A    between atoms: C11_21  and  C12_22 
REMARK    8  A    between atoms: C12_22  and  C13_23 
REMARK    9  A    between atoms: C13_23  and  C14_24 
REMARK   10  A    between atoms: C14_24  and  C15_25 
REMARK   11  A    between atoms: C15_25  and  N6_26 
REMARK   12  A    between atoms: C16_30  and  C17_31 
REMARK   13  A    between atoms: C17_31  and  C18_32 
REMARK   14  A    between atoms: C18_32  and  C19_33 
ROOT
HETATM    1  C1  UNL     1      30.952  -6.982  43.660  1.00  0.00     0.045 C 
HETATM    2  C2  UNL     1      29.973  -6.127  43.879  1.00  0.00     0.051 A 
HETATM    3  C3  UNL     1      29.722  -5.637  45.124  1.00  0.00     0.056 A 
HETATM    4  N2  UNL     1      28.694  -4.759  45.257  1.00  0.00    -0.339 N 
ATOM      5  H2  UNL     1      28.484  -4.376  46.179  1.00  0.00     0.167 HD
HETATM    6  C9  UNL     1      27.954  -4.385  44.217  1.00  0.00     0.131 A 
HETATM    7  C16 UNL     1      28.209  -4.887  42.921  1.00  0.00     0.056 A 
HETATM    8  N7  UNL     1      29.212  -5.749  42.776  1.00  0.00    -0.350 N 
HETATM    9  C21 UNL     1      29.567  -6.384  41.523  1.00  0.00     0.156 C 
ENDROOT
BRANCH   6  10
HETATM   10  N3  UNL     1      26.971  -3.548  44.388  1.00  0.00    -0.315 N 
HETATM   11  C10 UNL     1      27.221  -2.243  44.841  1.00  0.00     0.189 C 
HETATM   12  N4  UNL     1      27.562  -1.892  46.176  1.00  0.00    -0.063 NA
HETATM   13  N5  UNL     1      27.137  -1.276  43.985  1.00  0.00    -0.364 N 
ATOM     14  H5  UNL     1      26.892  -1.513  43.024  1.00  0.00     0.162 HD
ATOM     15  H3  UNL     1      26.014  -3.842  44.191  1.00  0.00     0.170 HD
BRANCH  13  16
HETATM   16  C11 UNL     1      27.365   0.110  44.297  1.00  0.00     0.122 C 
BRANCH  16  17
HETATM   17  C12 UNL     1      28.530   0.681  43.511  1.00  0.00     0.020 C 
BRANCH  17  18
HETATM   18  C13 UNL     1      28.906   2.011  44.129  1.00  0.00     0.003 C 
BRANCH  18  19
HETATM   19  C14 UNL     1      27.702   2.908  44.297  1.00  0.00     0.027 C 
BRANCH  19  20
HETATM   20  C15 UNL     1      27.684   3.900  43.159  1.00  0.00     0.229 C 
BRANCH  20  21
HETATM   21  N6  UNL     1      26.707   3.599  42.156  1.00  0.00    -0.079 N 
ATOM     22  H63 UNL     1      26.412   2.624  42.221  1.00  0.00     0.274 HD
ATOM     23  H62 UNL     1      25.821   4.058  42.365  1.00  0.00     0.274 HD
ATOM     24  H61 UNL     1      27.016   3.821  41.210  1.00  0.00     0.274 HD
ENDBRANCH  20  21
ENDBRANCH  19  20
ENDBRANCH  18  19
ENDBRANCH  17  18
ENDBRANCH  16  17
ENDBRANCH  13  16
ENDBRANCH   6  10
BRANCH   7  25
HETATM   25  C17 UNL     1      27.341  -4.454  41.824  1.00  0.00     0.061 C 
BRANCH  25  26
HETATM   26  C18 UNL     1      26.418  -5.474  41.262  1.00  0.00     0.006 C 
BRANCH  26  27
HETATM   27  C19 UNL     1      26.294  -5.589  39.786  1.00  0.00    -0.004 C 
HETATM   28  C20 UNL     1      27.163  -4.693  38.972  1.00  0.00     0.005 C 
ENDBRANCH  26  27
ENDBRANCH  25  26
ENDBRANCH   7  25
BRANCH   3  29
HETATM   29  C4  UNL     1      30.423  -5.978  46.174  1.00  0.00     0.006 C 
BRANCH  29  30
HETATM   30  C5  UNL     1      29.743  -6.688  47.330  1.00  0.00     0.039 C 
BRANCH  30  31
HETATM   31  C6  UNL     1      29.590  -8.147  47.033  1.00  0.00     0.106 C 
BRANCH  31  32
HETATM   32  C7  UNL     1      28.195  -8.532  46.739  1.00  0.00     0.217 C 
HETATM   33  O1  UNL     1      27.449  -7.738  46.147  1.00  0.00    -0.274 OA
HETATM   34  N1  UNL     1      27.739  -9.798  47.141  1.00  0.00    -0.365 N 
HETATM   35  C8  UNL     1      26.371 -10.208  46.868  1.00  0.00     0.149 C 
ATOM     36  H1  UNL     1      28.371 -10.434  47.627  1.00  0.00     0.161 HD
ENDBRANCH  31  32
ENDBRANCH  30  31
ENDBRANCH  29  30
ENDBRANCH   3  29
TORSDOF 14
ENDMDL
MODEL 5
REMARK VINA RESULT: -7.414075943      4.260      8.595
REMARK  14 active torsions:
REMARK  status: ('A' for Active; 'I' for Inactive)
REMARK    1  A    between atoms: C3_3  and  C4_4 
REMARK    2  A    between atoms: C4_4  and  C5_5 
REMARK    3  A    between atoms: C5_5  and  C6_6 
REMARK    4  A    between atoms: C6_6  and  C7_7 
REMARK       I    between atoms: C7_7  and  N1_9 
REMARK    5  A    between atoms: C9_14  and  N3_15 
REMARK       I    between atoms: N3_15  and  C10_17 
REMARK    6  A    between atoms: N5_19  and  C11_21 
REMARK    7  A    between atoms: C11_21  and  C12_22 
REMARK    8  A    between atoms: C12_22  and  C13_23 
REMARK    9  A    between atoms: C13_23  and  C14_24 
REMARK   10  A    between atoms: C14_24  and  C15_25 
REMARK   11  A    between atoms: C15_25  and  N6_26 
REMARK   12  A    between atoms: C16_30  and  C17_31 
REMARK   13  A    between atoms: C17_31  and  C18_32 
REMARK   14  A    between atoms: C18_32  and  C19_33 
ROOT
HETATM    1  C1  UNL     1      30.764  -7.251  43.948  1.00  0.00     0.045 C 
HETATM    2  C2  UNL     1      29.848  -6.311  44.079  1.00  0.00     0.051 A 
HETATM    3  C3  UNL     1      29.588  -5.735  45.284  1.00  0.00     0.056 A 
HETATM    4  N2  UNL     1      28.629  -4.774  45.327  1.00  0.00    -0.339 N 
ATOM      5  H2  UNL     1      28.414  -4.324  46.216  1.00  0.00     0.167 HD
HETATM    6  C9  UNL     1      27.962  -4.403  44.236  1.00  0.00     0.131 A 
HETATM    7  C16 UNL     1      28.227  -4.995  42.981  1.00  0.00     0.056 A 
HETATM    8  N7  UNL     1      29.163  -5.939  42.926  1.00  0.00    -0.350 N 
HETATM    9  C21 UNL     1      29.515  -6.669  41.725  1.00  0.00     0.156 C 
ENDROOT
BRANCH   6  10
HETATM   10  N3  UNL     1      27.043  -3.484  44.320  1.00  0.00    -0.315 N 
HETATM   11  C10 UNL     1      27.362  -2.202  44.793  1.00  0.00     0.189 C 
HETATM   12  N4  UNL     1      27.614  -1.870  46.153  1.00  0.00    -0.063 NA
HETATM   13  N5  UNL     1      27.435  -1.238  43.932  1.00  0.00    -0.364 N 
ATOM     14  H5  UNL     1      27.256  -1.461  42.953  1.00  0.00     0.162 HD
ATOM     15  H3  UNL     1      26.085  -3.698  44.040  1.00  0.00     0.170 HD
BRANCH  13  16
HETATM   16  C11 UNL     1      27.752   0.126  44.262  1.00  0.00     0.122 C 
BRANCH  16  17
HETATM   17  C12 UNL     1      26.685   1.087  43.774  1.00  0.00     0.020 C 
BRANCH  17  18
HETATM   18  C13 UNL     1      26.194   1.888  44.960  1.00  0.00     0.003 C 
BRANCH  18  19
HETATM   19  C14 UNL     1      25.277   1.073  45.841  1.00  0.00     0.027 C 
BRANCH  19  20
HETATM   20  C15 UNL     1      25.653   1.322  47.282  1.00  0.00     0.229 C 
BRANCH  20  21
HETATM   21  N6  UNL     1      26.974   0.881  47.610  1.00  0.00    -0.079 N 
ATOM     22  H63 UNL     1      26.955  -0.061  48.002  1.00  0.00     0.274 HD
ATOM     23  H62 UNL     1      27.516   0.701  46.765  1.00  0.00     0.274 HD
ATOM     24  H61 UNL     1      27.473   1.520  48.230  1.00  0.00     0.274 HD
ENDBRANCH  20  21
ENDBRANCH  19  20
ENDBRANCH  18  19
ENDBRANCH  17  18
ENDBRANCH  16  17
ENDBRANCH  13  16
ENDBRANCH   6  10
BRANCH   7  25
HETATM   25  C17 UNL     1      27.439  -4.559  41.826  1.00  0.00     0.061 C 
BRANCH  25  26
HETATM   26  C18 UNL     1      26.403  -5.502  41.332  1.00  0.00     0.006 C 
BRANCH  26  27
HETATM   27  C19 UNL     1      26.292  -5.740  39.869  1.00  0.00    -0.004 C 
HETATM   28  C20 UNL     1      26.953  -4.743  38.980  1.00  0.00     0.005 C 
ENDBRANCH  26  27
ENDBRANCH  25  26
ENDBRANCH   7  25
BRANCH   3  29
HETATM   29  C4  UNL     1      30.218  -6.069  46.381  1.00  0.00     0.006 C 
BRANCH  29  30
HETATM   30  C5  UNL     1      29.480  -6.829  47.467  1.00  0.00     0.039 C 
BRANCH  30  31
HETATM   31  C6  UNL     1      29.439  -8.291  47.150  1.00  0.00     0.106 C 
BRANCH  31  32
HETATM   32  C7  UNL     1      28.081  -8.770  46.821  1.00  0.00     0.217 C 
HETATM   33  O1  UNL     1      27.300  -8.030  46.205  1.00  0.00    -0.274 OA
HETATM   34  N1  UNL     1      27.702 -10.064  47.215  1.00  0.00    -0.365 N 
HETATM   35  C8  UNL     1      26.373 -10.566  46.907  1.00  0.00     0.149 C 
ATOM     36  H1  UNL     1      28.362 -10.654  47.721  1.00  0.00     0.161 HD
ENDBRANCH  31  32
ENDBRANCH  30  31
ENDBRANCH  29  30
ENDBRANCH   3  29
TORSDOF 14
ENDMDL
