MODEL 1
REMARK VINA RESULT: -8.546508701      0.000      0.000
REMARK  5 active torsions:
REMARK  status: ('A' for Active; 'I' for Inactive)
REMARK    1  A    between atoms: C4_8  and  C5_9 
REMARK    2  A    between atoms: C5_9  and  C6_10 
REMARK    3  A    between atoms: C6_10  and  N3_11 
REMARK    4  A    between atoms: C8_16  and  N5_17 
REMARK    5  A    between atoms: C13_25  and  N7_26 
ROOT
HETATM    1  N3  UNL     1      16.822   2.350  39.957  1.00  0.00    -0.225 N 
ATOM      2  H3  UNL     1      16.174   1.709  40.416  1.00  0.00     0.177 HD
HETATM    3  C7  UNL     1      18.027   1.948  39.860  1.00  0.00     0.707 A 
HETATM    4  N4  UNL     1      18.388   0.721  40.358  1.00  0.00    -0.021 N 
ATOM      5  H4  UNL     1      17.667   0.153  40.805  1.00  0.00     0.203 HD
HETATM    6  C8  UNL     1      19.626   0.227  40.292  1.00  0.00     0.709 A 
HETATM    7  N6  UNL     1      20.558   1.021  39.687  1.00  0.00    -0.022 N 
ATOM      8  H6  UNL     1      21.521   0.693  39.610  1.00  0.00     0.203 HD
HETATM    9  C13 UNL     1      20.233   2.220  39.195  1.00  0.00     0.705 A 
HETATM   10  N8  UNL     1      18.969   2.699  39.274  1.00  0.00    -0.022 N 
ATOM     11  H8  UNL     1      18.738   3.616  38.892  1.00  0.00     0.203 HD
ENDROOT
BRANCH   1  12
HETATM   12  C6  UNL     1      16.271   3.562  39.512  1.00  0.00     0.144 C 
BRANCH  12  13
HETATM   13  C5  UNL     1      15.102   3.376  38.541  1.00  0.00     0.079 C 
BRANCH  13  14
HETATM   14  C4  UNL     1      13.891   3.304  39.437  1.00  0.00     0.034 A 
HETATM   15  C2  UNL     1      12.586   3.015  39.090  1.00  0.00     0.029 A 
HETATM   16  C1  UNL     1      12.117   2.722  37.713  1.00  0.00     0.070 C 
HETATM   17  N1  UNL     1      11.797   3.042  40.191  1.00  0.00    -0.354 N 
HETATM   18  C3  UNL     1      12.583   3.342  41.218  1.00  0.00     0.180 A 
ATOM     19  H1  UNL     1      10.793   2.865  40.224  1.00  0.00     0.166 HD
HETATM   20  N2  UNL     1      13.855   3.503  40.769  1.00  0.00    -0.354 N 
ATOM     21  H2  UNL     1      14.659   3.738  41.351  1.00  0.00     0.166 HD
ENDBRANCH  13  14
ENDBRANCH  12  13
ENDBRANCH   1  12
BRANCH   6  22
HETATM   22  N5  UNL     1      19.989  -1.039  40.825  1.00  0.00    -0.213 N 
HETATM   23  C9  UNL     1      18.973  -1.833  41.452  1.00  0.00     0.167 C 
HETATM   24  C10 UNL     1      19.386  -3.179  41.906  1.00  0.00     0.188 C 
HETATM   25  O1  UNL     1      20.710  -3.502  41.786  1.00  0.00    -0.388 OA
HETATM   26  C11 UNL     1      21.345  -3.064  40.655  1.00  0.00     0.188 C 
HETATM   27  C12 UNL     1      21.334  -1.528  40.739  1.00  0.00     0.167 C 
ENDBRANCH   6  22
BRANCH   9  28
HETATM   28  N7  UNL     1      21.105   2.973  38.623  1.00  0.00    -0.234 N 
ATOM     29  H72 UNL     1      21.554   2.603  37.786  1.00  0.00     0.174 HD
ATOM     30  H71 UNL     1      21.337   3.896  38.989  1.00  0.00     0.174 HD
ENDBRANCH   9  28
TORSDOF 5
ENDMDL
MODEL 2
REMARK VINA RESULT: -8.453888106      3.288      7.582
REMARK  5 active torsions:
REMARK  status: ('A' for Active; 'I' for Inactive)
REMARK    1  A    between atoms: C4_8  and  C5_9 
REMARK    2  A    between atoms: C5_9  and  C6_10 
REMARK    3  A    between atoms: C6_10  and  N3_11 
REMARK    4  A    between atoms: C8_16  and  N5_17 
REMARK    5  A    between atoms: C13_25  and  N7_26 
ROOT
HETATM    1  N3  UNL     1      18.084   2.588  39.905  1.00  0.00    -0.225 N 
ATOM      2  H3  UNL     1      17.635   2.474  40.814  1.00  0.00     0.177 HD
HETATM    3  C7  UNL     1      17.300   2.701  38.907  1.00  0.00     0.707 A 
HETATM    4  N4  UNL     1      15.940   2.666  39.091  1.00  0.00    -0.021 N 
ATOM      5  H4  UNL     1      15.587   2.543  40.040  1.00  0.00     0.203 HD
HETATM    6  C8  UNL     1      15.054   2.781  38.099  1.00  0.00     0.709 A 
HETATM    7  N6  UNL     1      15.571   2.942  36.846  1.00  0.00    -0.022 N 
ATOM      8  H6  UNL     1      14.939   3.036  36.051  1.00  0.00     0.203 HD
HETATM    9  C13 UNL     1      16.892   2.980  36.641  1.00  0.00     0.705 A 
HETATM   10  N8  UNL     1      17.771   2.861  37.664  1.00  0.00    -0.022 N 
ATOM     11  H8  UNL     1      18.776   2.892  37.489  1.00  0.00     0.203 HD
ENDROOT
BRANCH   1  12
HETATM   12  C6  UNL     1      19.488   2.601  39.914  1.00  0.00     0.144 C 
BRANCH  12  13
HETATM   13  C5  UNL     1      20.105   1.202  39.990  1.00  0.00     0.079 C 
BRANCH  13  14
HETATM   14  C4  UNL     1      20.574   0.932  38.582  1.00  0.00     0.034 A 
HETATM   15  C2  UNL     1      20.676  -0.282  37.933  1.00  0.00     0.029 A 
HETATM   16  C1  UNL     1      20.341  -1.598  38.532  1.00  0.00     0.070 C 
HETATM   17  N1  UNL     1      21.131  -0.095  36.670  1.00  0.00    -0.354 N 
HETATM   18  C3  UNL     1      21.315   1.211  36.520  1.00  0.00     0.180 A 
ATOM     19  H1  UNL     1      21.299  -0.818  35.971  1.00  0.00     0.166 HD
HETATM   20  N2  UNL     1      20.979   1.841  37.675  1.00  0.00    -0.354 N 
ATOM     21  H2  UNL     1      21.027   2.848  37.832  1.00  0.00     0.166 HD
ENDBRANCH  13  14
ENDBRANCH  12  13
ENDBRANCH   1  12
BRANCH   6  22
HETATM   22  N5  UNL     1      13.648   2.728  38.301  1.00  0.00    -0.213 N 
HETATM   23  C9  UNL     1      12.804   2.480  37.170  1.00  0.00     0.167 C 
HETATM   24  C10 UNL     1      11.359   2.344  37.452  1.00  0.00     0.188 C 
HETATM   25  O1  UNL     1      10.948   2.570  38.737  1.00  0.00    -0.388 OA
HETATM   26  C11 UNL     1      11.767   2.107  39.731  1.00  0.00     0.188 C 
HETATM   27  C12 UNL     1      13.073   2.909  39.602  1.00  0.00     0.167 C 
ENDBRANCH   6  22
BRANCH   9  28
HETATM   28  N7  UNL     1      17.387   3.133  35.464  1.00  0.00    -0.234 N 
ATOM     29  H72 UNL     1      16.821   2.810  34.680  1.00  0.00     0.174 HD
ATOM     30  H71 UNL     1      18.303   3.557  35.320  1.00  0.00     0.174 HD
ENDBRANCH   9  28
TORSDOF 5
ENDMDL
MODEL 3
REMARK VINA RESULT: -8.347655702      3.100      7.172
REMARK  5 active torsions:
REMARK  status: ('A' for Active; 'I' for Inactive)
REMARK    1  A    between atoms: C4_8  and  C5_9 
REMARK    2  A    between atoms: C5_9  and  C6_10 
REMARK    3  A    between atoms: C6_10  and  N3_11 
REMARK    4  A    between atoms: C8_16  and  N5_17 
REMARK    5  A    between atoms: C13_25  and  N7_26 
ROOT
HETATM    1  N3  UNL     1      18.356   2.212  39.705  1.00  0.00    -0.225 N 
ATOM      2  H3  UNL     1      17.908   2.071  40.611  1.00  0.00     0.177 HD
HETATM    3  C7  UNL     1      17.575   2.478  38.734  1.00  0.00     0.707 A 
HETATM    4  N4  UNL     1      16.220   2.560  38.941  1.00  0.00    -0.021 N 
ATOM      5  H4  UNL     1      15.868   2.398  39.884  1.00  0.00     0.203 HD
HETATM    6  C8  UNL     1      15.337   2.837  37.979  1.00  0.00     0.709 A 
HETATM    7  N6  UNL     1      15.853   3.044  36.731  1.00  0.00    -0.022 N 
ATOM      8  H6  UNL     1      15.223   3.260  35.959  1.00  0.00     0.203 HD
HETATM    9  C13 UNL     1      17.168   2.970  36.504  1.00  0.00     0.705 A 
HETATM   10  N8  UNL     1      18.044   2.687  37.497  1.00  0.00    -0.022 N 
ATOM     11  H8  UNL     1      19.044   2.635  37.306  1.00  0.00     0.203 HD
ENDROOT
BRANCH   1  12
HETATM   12  C6  UNL     1      19.754   2.088  39.687  1.00  0.00     0.144 C 
BRANCH  12  13
HETATM   13  C5  UNL     1      20.231   0.658  39.425  1.00  0.00     0.079 C 
BRANCH  13  14
HETATM   14  C4  UNL     1      19.512  -0.164  40.466  1.00  0.00     0.034 A 
HETATM   15  C2  UNL     1      19.371  -1.536  40.525  1.00  0.00     0.029 A 
HETATM   16  C1  UNL     1      19.913  -2.491  39.526  1.00  0.00     0.070 C 
HETATM   17  N1  UNL     1      18.661  -1.882  41.626  1.00  0.00    -0.354 N 
HETATM   18  C3  UNL     1      18.357  -0.753  42.254  1.00  0.00     0.180 A 
ATOM     19  H1  UNL     1      18.410  -2.827  41.916  1.00  0.00     0.166 HD
HETATM   20  N2  UNL     1      18.869   0.294  41.557  1.00  0.00    -0.354 N 
ATOM     21  H2  UNL     1      18.781   1.276  41.819  1.00  0.00     0.166 HD
ENDBRANCH  13  14
ENDBRANCH  12  13
ENDBRANCH   1  12
BRANCH   6  22
HETATM   22  N5  UNL     1      13.936   2.904  38.204  1.00  0.00    -0.213 N 
HETATM   23  C9  UNL     1      13.054   2.499  37.148  1.00  0.00     0.167 C 
HETATM   24  C10 UNL     1      11.610   2.503  37.469  1.00  0.00     0.188 C 
HETATM   25  O1  UNL     1      11.241   2.989  38.693  1.00  0.00    -0.388 OA
HETATM   26  C11 UNL     1      12.056   2.672  39.747  1.00  0.00     0.188 C 
HETATM   27  C12 UNL     1      13.401   3.359  39.453  1.00  0.00     0.167 C 
ENDBRANCH   6  22
BRANCH   9  28
HETATM   28  N7  UNL     1      17.662   3.166  35.332  1.00  0.00    -0.234 N 
ATOM     29  H72 UNL     1      17.686   4.128  34.997  1.00  0.00     0.174 HD
ATOM     30  H71 UNL     1      18.011   2.394  34.764  1.00  0.00     0.174 HD
ENDBRANCH   9  28
TORSDOF 5
ENDMDL
MODEL 4
REMARK VINA RESULT: -8.299477143      1.114      1.515
REMARK  5 active torsions:
REMARK  status: ('A' for Active; 'I' for Inactive)
REMARK    1  A    between atoms: C4_8  and  C5_9 
REMARK    2  A    between atoms: C5_9  and  C6_10 
REMARK    3  A    between atoms: C6_10  and  N3_11 
REMARK    4  A    between atoms: C8_16  and  N5_17 
REMARK    5  A    between atoms: C13_25  and  N7_26 
ROOT
HETATM    1  N3  UNL     1      16.774   2.420  39.854  1.00  0.00    -0.225 N 
ATOM      2  H3  UNL     1      16.113   1.789  40.309  1.00  0.00     0.177 HD
HETATM    3  C7  UNL     1      17.979   2.011  39.790  1.00  0.00     0.707 A 
HETATM    4  N4  UNL     1      18.322   0.790  40.315  1.00  0.00    -0.021 N 
ATOM      5  H4  UNL     1      17.589   0.233  40.755  1.00  0.00     0.203 HD
HETATM    6  C8  UNL     1      19.559   0.289  40.284  1.00  0.00     0.709 A 
HETATM    7  N6  UNL     1      20.508   1.068  39.687  1.00  0.00    -0.022 N 
ATOM      8  H6  UNL     1      21.470   0.733  39.636  1.00  0.00     0.203 HD
HETATM    9  C13 UNL     1      20.200   2.261  39.169  1.00  0.00     0.705 A 
HETATM   10  N8  UNL     1      18.937   2.747  39.212  1.00  0.00    -0.022 N 
ATOM     11  H8  UNL     1      18.719   3.659  38.811  1.00  0.00     0.203 HD
ENDROOT
BRANCH   1  12
HETATM   12  C6  UNL     1      16.239   3.628  39.378  1.00  0.00     0.144 C 
BRANCH  12  13
HETATM   13  C5  UNL     1      14.780   3.845  39.785  1.00  0.00     0.079 C 
BRANCH  13  14
HETATM   14  C4  UNL     1      13.991   3.302  38.620  1.00  0.00     0.034 A 
HETATM   15  C2  UNL     1      12.632   3.071  38.541  1.00  0.00     0.029 A 
HETATM   16  C1  UNL     1      11.663   3.313  39.639  1.00  0.00     0.070 C 
HETATM   17  N1  UNL     1      12.315   2.587  37.317  1.00  0.00    -0.354 N 
HETATM   18  C3  UNL     1      13.449   2.511  36.630  1.00  0.00     0.180 A 
ATOM     19  H1  UNL     1      11.385   2.330  36.986  1.00  0.00     0.166 HD
HETATM   20  N2  UNL     1      14.470   2.943  37.414  1.00  0.00    -0.354 N 
ATOM     21  H2  UNL     1      15.450   2.989  37.133  1.00  0.00     0.166 HD
ENDBRANCH  13  14
ENDBRANCH  12  13
ENDBRANCH   1  12
BRANCH   6  22
HETATM   22  N5  UNL     1      19.903  -0.971  40.844  1.00  0.00    -0.213 N 
HETATM   23  C9  UNL     1      18.880  -1.728  41.504  1.00  0.00     0.167 C 
HETATM   24  C10 UNL     1      19.272  -3.070  41.988  1.00  0.00     0.188 C 
HETATM   25  O1  UNL     1      20.587  -3.423  41.860  1.00  0.00    -0.388 OA
HETATM   26  C11 UNL     1      21.216  -3.027  40.710  1.00  0.00     0.188 C 
HETATM   27  C12 UNL     1      21.236  -1.489  40.755  1.00  0.00     0.167 C 
ENDBRANCH   6  22
BRANCH   9  28
HETATM   28  N7  UNL     1      21.088   3.000  38.603  1.00  0.00    -0.234 N 
ATOM     29  H72 UNL     1      21.116   2.988  37.585  1.00  0.00     0.174 HD
ATOM     30  H71 UNL     1      21.735   3.570  39.148  1.00  0.00     0.174 HD
ENDBRANCH   9  28
TORSDOF 5
ENDMDL
MODEL 5
REMARK VINA RESULT: -8.207679825      3.613      7.577
REMARK  5 active torsions:
REMARK  status: ('A' for Active; 'I' for Inactive)
REMARK    1  A    between atoms: C4_8  and  C5_9 
REMARK    2  A    between atoms: C5_9  and  C6_10 
REMARK    3  A    between atoms: C6_10  and  N3_11 
REMARK    4  A    between atoms: C8_16  and  N5_17 
REMARK    5  A    between atoms: C13_25  and  N7_26 
ROOT
HETATM    1  N3  UNL     1      18.083   2.077  39.107  1.00  0.00    -0.225 N 
ATOM      2  H3  UNL     1      17.946   1.242  38.536  1.00  0.00     0.177 HD
HETATM    3  C7  UNL     1      17.065   2.833  39.239  1.00  0.00     0.707 A 
HETATM    4  N4  UNL     1      15.879   2.505  38.632  1.00  0.00    -0.021 N 
ATOM      5  H4  UNL     1      15.843   1.650  38.077  1.00  0.00     0.203 HD
HETATM    6  C8  UNL     1      14.769   3.241  38.724  1.00  0.00     0.709 A 
HETATM    7  N6  UNL     1      14.862   4.378  39.476  1.00  0.00    -0.022 N 
ATOM      8  H6  UNL     1      14.044   4.977  39.580  1.00  0.00     0.203 HD
HETATM    9  C13 UNL     1      16.006   4.719  40.077  1.00  0.00     0.705 A 
HETATM   10  N8  UNL     1      17.119   3.955  39.968  1.00  0.00    -0.022 N 
ATOM     11  H8  UNL     1      17.984   4.230  40.434  1.00  0.00     0.203 HD
ENDROOT
BRANCH   1  12
HETATM   12  C6  UNL     1      19.368   2.246  39.647  1.00  0.00     0.144 C 
BRANCH  12  13
HETATM   13  C5  UNL     1      20.388   2.762  38.631  1.00  0.00     0.079 C 
BRANCH  13  14
HETATM   14  C4  UNL     1      20.065   2.001  37.369  1.00  0.00     0.034 A 
HETATM   15  C2  UNL     1      20.376   0.693  37.056  1.00  0.00     0.029 A 
HETATM   16  C1  UNL     1      21.128  -0.237  37.934  1.00  0.00     0.070 C 
HETATM   17  N1  UNL     1      19.898   0.385  35.826  1.00  0.00    -0.354 N 
HETATM   18  C3  UNL     1      19.295   1.475  35.366  1.00  0.00     0.180 A 
ATOM     19  H1  UNL     1      19.984  -0.511  35.347  1.00  0.00     0.166 HD
HETATM   20  N2  UNL     1      19.392   2.460  36.296  1.00  0.00    -0.354 N 
ATOM     21  H2  UNL     1      19.013   3.402  36.198  1.00  0.00     0.166 HD
ENDBRANCH  13  14
ENDBRANCH  12  13
ENDBRANCH   1  12
BRANCH   6  22
HETATM   22  N5  UNL     1      13.551   2.898  38.078  1.00  0.00    -0.213 N 
HETATM   23  C9  UNL     1      13.604   2.427  36.725  1.00  0.00     0.167 C 
HETATM   24  C10 UNL     1      12.318   1.998  36.134  1.00  0.00     0.188 C 
HETATM   25  O1  UNL     1      11.190   2.186  36.884  1.00  0.00    -0.388 OA
HETATM   26  C11 UNL     1      11.303   1.952  38.228  1.00  0.00     0.188 C 
HETATM   27  C12 UNL     1      12.291   3.008  38.752  1.00  0.00     0.167 C 
ENDBRANCH   6  22
BRANCH   9  28
HETATM   28  N7  UNL     1      16.102   5.787  40.787  1.00  0.00    -0.234 N 
ATOM     29  H72 UNL     1      15.558   5.817  41.649  1.00  0.00     0.174 HD
ATOM     30  H71 UNL     1      16.693   6.567  40.502  1.00  0.00     0.174 HD
ENDBRANCH   9  28
TORSDOF 5
ENDMDL
