MODEL 1
REMARK VINA RESULT: -7.983614657      0.000      0.000
REMARK  6 active torsions:
REMARK  status: ('A' for Active; 'I' for Inactive)
REMARK    1  A    between atoms: C2_2  and  N1_3 
REMARK    2  A    between atoms: N1_3  and  C3_5 
REMARK    3  A    between atoms: C5_10  and  N3_11 
REMARK    4  A    between atoms: N4_14  and  C6_15 
REMARK    5  A    between atoms: C6_15  and  C7_16 
REMARK    6  A    between atoms: C7_16  and  N5_17 
ROOT
HETATM    1  C3  UNL     1      20.321   0.614  39.923  1.00  0.00     0.680 A 
HETATM    2  N2  UNL     1      20.508   0.873  38.619  1.00  0.00    -0.168 N 
ATOM      3  H2  UNL     1      21.338   0.613  38.087  1.00  0.00     0.186 HD
HETATM    4  C4  UNL     1      19.434   1.532  38.109  1.00  0.00     0.197 A 
HETATM    5  O1  UNL     1      19.124   2.003  36.926  1.00  0.00    -0.259 OA
HETATM    6  C5  UNL     1      17.965   2.628  36.707  1.00  0.00     0.227 A 
HETATM    7  N4  UNL     1      17.062   2.808  37.675  1.00  0.00    -0.296 N 
HETATM    8  C13 UNL     1      17.355   2.335  38.897  1.00  0.00     0.136 A 
HETATM    9  N7  UNL     1      16.525   2.477  39.875  1.00  0.00    -0.383 N 
ATOM     10  H71 UNL     1      16.748   2.118  40.803  1.00  0.00     0.157 HD
ATOM     11  H72 UNL     1      15.646   2.958  39.685  1.00  0.00     0.157 HD
HETATM   12  C14 UNL     1      18.554   1.679  39.155  1.00  0.00     0.144 A 
HETATM   13  N8  UNL     1      19.106   1.118  40.242  1.00  0.00    -0.184 N 
ATOM     14  H8  UNL     1      18.676   1.078  41.167  1.00  0.00     0.184 HD
ENDROOT
BRANCH   7  15
HETATM   15  C6  UNL     1      15.825   3.508  37.422  1.00  0.00     0.153 C 
BRANCH  15  16
HETATM   16  C7  UNL     1      14.739   2.604  36.935  1.00  0.00     0.137 C 
BRANCH  16  17
HETATM   17  N5  UNL     1      13.468   3.274  37.082  1.00  0.00    -0.408 N 
HETATM   18  C8  UNL     1      13.300   3.930  38.327  1.00  0.00     0.136 C 
HETATM   19  C9  UNL     1      12.082   3.581  39.106  1.00  0.00     0.135 C 
HETATM   20  N6  UNL     1      11.740   2.217  38.939  1.00  0.00    -0.414 N 
HETATM   21  C10 UNL     1      12.306   1.337  39.912  1.00  0.00     0.143 C 
HETATM   22  C11 UNL     1      11.652   1.712  37.619  1.00  0.00     0.135 C 
HETATM   23  C12 UNL     1      12.365   2.517  36.588  1.00  0.00     0.136 C 
ENDBRANCH  16  17
ENDBRANCH  15  16
ENDBRANCH   7  15
BRANCH   6  24
HETATM   24  N3  UNL     1      17.708   3.071  35.529  1.00  0.00    -0.365 N 
ATOM     25  H32 UNL     1      17.517   2.403  34.783  1.00  0.00     0.159 HD
ATOM     26  H31 UNL     1      17.702   4.078  35.368  1.00  0.00     0.159 HD
ENDBRANCH   6  24
BRANCH   1  27
HETATM   27  N1  UNL     1      21.153   0.005  40.713  1.00  0.00    -0.226 N 
ATOM     28  H1  UNL     1      21.895   0.547  41.155  1.00  0.00     0.177 HD
BRANCH  27  29
HETATM   29  C2  UNL     1      21.067  -1.399  40.988  1.00  0.00     0.133 C 
HETATM   30  C1  UNL     1      21.865  -2.233  39.979  1.00  0.00     0.027 C 
ENDBRANCH  27  29
ENDBRANCH   1  27
TORSDOF 6
ENDMDL
MODEL 2
REMARK VINA RESULT: -7.911039369      0.944      1.010
REMARK  6 active torsions:
REMARK  status: ('A' for Active; 'I' for Inactive)
REMARK    1  A    between atoms: C2_2  and  N1_3 
REMARK    2  A    between atoms: N1_3  and  C3_5 
REMARK    3  A    between atoms: C5_10  and  N3_11 
REMARK    4  A    between atoms: N4_14  and  C6_15 
REMARK    5  A    between atoms: C6_15  and  C7_16 
REMARK    6  A    between atoms: C7_16  and  N5_17 
ROOT
HETATM    1  C3  UNL     1      20.534  -0.023  40.040  1.00  0.00     0.680 A 
HETATM    2  N2  UNL     1      20.750   0.167  38.729  1.00  0.00    -0.168 N 
ATOM      3  H2  UNL     1      21.512  -0.255  38.197  1.00  0.00     0.186 HD
HETATM    4  C4  UNL     1      19.812   1.002  38.211  1.00  0.00     0.197 A 
HETATM    5  O1  UNL     1      19.580   1.495  37.018  1.00  0.00    -0.259 OA
HETATM    6  C5  UNL     1      18.555   2.319  36.791  1.00  0.00     0.227 A 
HETATM    7  N4  UNL     1      17.712   2.685  37.761  1.00  0.00    -0.296 N 
HETATM    8  C13 UNL     1      17.927   2.194  38.992  1.00  0.00     0.136 A 
HETATM    9  N7  UNL     1      17.149   2.510  39.972  1.00  0.00    -0.383 N 
ATOM     10  H71 UNL     1      17.312   2.137  40.908  1.00  0.00     0.157 HD
ATOM     11  H72 UNL     1      16.371   3.141  39.777  1.00  0.00     0.157 HD
HETATM   12  C14 UNL     1      18.986   1.333  39.259  1.00  0.00     0.144 A 
HETATM   13  N8  UNL     1      19.437   0.705  40.355  1.00  0.00    -0.184 N 
ATOM     14  H8  UNL     1      19.018   0.767  41.284  1.00  0.00     0.184 HD
ENDROOT
BRANCH   7  15
HETATM   15  C6  UNL     1      16.623   3.596  37.499  1.00  0.00     0.153 C 
BRANCH  15  16
HETATM   16  C7  UNL     1      15.289   2.923  37.519  1.00  0.00     0.137 C 
BRANCH  16  17
HETATM   17  N5  UNL     1      14.328   3.801  38.146  1.00  0.00    -0.408 N 
HETATM   18  C8  UNL     1      14.312   3.725  39.561  1.00  0.00     0.136 C 
HETATM   19  C9  UNL     1      12.997   3.458  40.200  1.00  0.00     0.135 C 
HETATM   20  N6  UNL     1      12.210   2.588  39.407  1.00  0.00    -0.414 N 
HETATM   21  C10 UNL     1      12.357   1.201  39.715  1.00  0.00     0.143 C 
HETATM   22  C11 UNL     1      12.045   2.907  38.036  1.00  0.00     0.135 C 
HETATM   23  C12 UNL     1      13.068   3.834  37.479  1.00  0.00     0.136 C 
ENDBRANCH  16  17
ENDBRANCH  15  16
ENDBRANCH   7  15
BRANCH   6  24
HETATM   24  N3  UNL     1      18.371   2.774  35.605  1.00  0.00    -0.365 N 
ATOM     25  H32 UNL     1      18.667   3.726  35.391  1.00  0.00     0.159 HD
ATOM     26  H31 UNL     1      17.931   2.174  34.907  1.00  0.00     0.159 HD
ENDBRANCH   6  24
BRANCH   1  27
HETATM   27  N1  UNL     1      21.247  -0.757  40.839  1.00  0.00    -0.226 N 
ATOM     28  H1  UNL     1      21.676  -0.319  41.655  1.00  0.00     0.177 HD
BRANCH  27  29
HETATM   29  C2  UNL     1      21.456  -2.158  40.620  1.00  0.00     0.133 C 
HETATM   30  C1  UNL     1      20.135  -2.917  40.449  1.00  0.00     0.027 C 
ENDBRANCH  27  29
ENDBRANCH   1  27
TORSDOF 6
ENDMDL
MODEL 3
REMARK VINA RESULT: -7.879395407      1.781      2.634
REMARK  6 active torsions:
REMARK  status: ('A' for Active; 'I' for Inactive)
REMARK    1  A    between atoms: C2_2  and  N1_3 
REMARK    2  A    between atoms: N1_3  and  C3_5 
REMARK    3  A    between atoms: C5_10  and  N3_11 
REMARK    4  A    between atoms: N4_14  and  C6_15 
REMARK    5  A    between atoms: C6_15  and  C7_16 
REMARK    6  A    between atoms: C7_16  and  N5_17 
ROOT
HETATM    1  C3  UNL     1      19.871   1.990  38.090  1.00  0.00     0.680 A 
HETATM    2  N2  UNL     1      19.300   2.274  39.271  1.00  0.00    -0.168 N 
ATOM      3  H2  UNL     1      19.763   2.188  40.177  1.00  0.00     0.186 HD
HETATM    4  C4  UNL     1      18.020   2.691  39.091  1.00  0.00     0.197 A 
HETATM    5  O1  UNL     1      17.058   3.076  39.894  1.00  0.00    -0.259 OA
HETATM    6  C5  UNL     1      15.862   3.439  39.426  1.00  0.00     0.227 A 
HETATM    7  N4  UNL     1      15.580   3.432  38.119  1.00  0.00    -0.296 N 
HETATM    8  C13 UNL     1      16.548   3.042  37.275  1.00  0.00     0.136 A 
HETATM    9  N7  UNL     1      16.339   3.012  36.002  1.00  0.00    -0.383 N 
ATOM     10  H71 UNL     1      17.074   2.715  35.360  1.00  0.00     0.157 HD
ATOM     11  H72 UNL     1      15.417   3.293  35.666  1.00  0.00     0.157 HD
HETATM   12  C14 UNL     1      17.804   2.658  37.733  1.00  0.00     0.144 A 
HETATM   13  N8  UNL     1      18.932   2.232  37.145  1.00  0.00    -0.184 N 
ATOM     14  H8  UNL     1      19.063   2.111  36.140  1.00  0.00     0.184 HD
ENDROOT
BRANCH   7  15
HETATM   15  C6  UNL     1      14.272   3.806  37.636  1.00  0.00     0.153 C 
BRANCH  15  16
HETATM   16  C7  UNL     1      13.421   2.624  37.299  1.00  0.00     0.137 C 
BRANCH  16  17
HETATM   17  N5  UNL     1      12.059   2.897  37.693  1.00  0.00    -0.408 N 
HETATM   18  C8  UNL     1      11.942   3.757  38.814  1.00  0.00     0.136 C 
HETATM   19  C9  UNL     1      11.123   3.262  39.952  1.00  0.00     0.135 C 
HETATM   20  N6  UNL     1      11.258   1.861  40.108  1.00  0.00    -0.414 N 
HETATM   21  C10 UNL     1      12.293   1.457  41.007  1.00  0.00     0.143 C 
HETATM   22  C11 UNL     1      11.072   1.044  38.966  1.00  0.00     0.135 C 
HETATM   23  C12 UNL     1      11.217   1.747  37.660  1.00  0.00     0.136 C 
ENDBRANCH  16  17
ENDBRANCH  15  16
ENDBRANCH   7  15
BRANCH   6  24
HETATM   24  N3  UNL     1      14.953   3.808  40.254  1.00  0.00    -0.365 N 
ATOM     25  H32 UNL     1      15.214   3.987  41.223  1.00  0.00     0.159 HD
ATOM     26  H31 UNL     1      13.994   3.913  39.924  1.00  0.00     0.159 HD
ENDBRANCH   6  24
BRANCH   1  27
HETATM   27  N1  UNL     1      21.082   1.560  37.903  1.00  0.00    -0.226 N 
ATOM     28  H1  UNL     1      21.862   2.159  38.173  1.00  0.00     0.177 HD
BRANCH  27  29
HETATM   29  C2  UNL     1      21.365   0.275  37.334  1.00  0.00     0.133 C 
HETATM   30  C1  UNL     1      20.720  -0.864  38.133  1.00  0.00     0.027 C 
ENDBRANCH  27  29
ENDBRANCH   1  27
TORSDOF 6
ENDMDL
MODEL 4
REMARK VINA RESULT: -7.597100444      2.130      3.225
REMARK  6 active torsions:
REMARK  status: ('A' for Active; 'I' for Inactive)
REMARK    1  A    between atoms: C2_2  and  N1_3 
REMARK    2  A    between atoms: N1_3  and  C3_5 
REMARK    3  A    between atoms: C5_10  and  N3_11 
REMARK    4  A    between atoms: N4_14  and  C6_15 
REMARK    5  A    between atoms: C6_15  and  C7_16 
REMARK    6  A    between atoms: C7_16  and  N5_17 
ROOT
HETATM    1  C3  UNL     1      19.282   1.988  36.578  1.00  0.00     0.680 A 
HETATM    2  N2  UNL     1      19.113   2.607  37.757  1.00  0.00    -0.168 N 
ATOM      3  H2  UNL     1      19.863   2.824  38.413  1.00  0.00     0.186 HD
HETATM    4  C4  UNL     1      17.801   2.904  37.952  1.00  0.00     0.197 A 
HETATM    5  O1  UNL     1      17.125   3.488  38.911  1.00  0.00    -0.259 OA
HETATM    6  C5  UNL     1      15.802   3.647  38.835  1.00  0.00     0.227 A 
HETATM    7  N4  UNL     1      15.097   3.223  37.782  1.00  0.00    -0.296 N 
HETATM    8  C13 UNL     1      15.765   2.621  36.785  1.00  0.00     0.136 A 
HETATM    9  N7  UNL     1      15.142   2.188  35.741  1.00  0.00    -0.383 N 
ATOM     10  H71 UNL     1      15.649   1.731  34.984  1.00  0.00     0.157 HD
ATOM     11  H72 UNL     1      14.131   2.320  35.704  1.00  0.00     0.157 HD
HETATM   12  C14 UNL     1      17.143   2.441  36.837  1.00  0.00     0.144 A 
HETATM   13  N8  UNL     1      18.053   1.891  36.018  1.00  0.00    -0.184 N 
ATOM     14  H8  UNL     1      17.850   1.467  35.113  1.00  0.00     0.184 HD
ENDROOT
BRANCH   7  15
HETATM   15  C6  UNL     1      13.662   3.383  37.731  1.00  0.00     0.153 C 
BRANCH  15  16
HETATM   16  C7  UNL     1      12.932   2.083  37.826  1.00  0.00     0.137 C 
BRANCH  16  17
HETATM   17  N5  UNL     1      11.646   2.309  38.443  1.00  0.00    -0.408 N 
HETATM   18  C8  UNL     1      11.460   3.629  38.924  1.00  0.00     0.136 C 
HETATM   19  C9  UNL     1      11.057   3.770  40.348  1.00  0.00     0.135 C 
HETATM   20  N6  UNL     1      11.659   2.771  41.151  1.00  0.00    -0.414 N 
HETATM   21  C10 UNL     1      12.910   3.146  41.731  1.00  0.00     0.143 C 
HETATM   22  C11 UNL     1      11.547   1.423  40.730  1.00  0.00     0.135 C 
HETATM   23  C12 UNL     1      11.225   1.240  39.287  1.00  0.00     0.136 C 
ENDBRANCH  16  17
ENDBRANCH  15  16
ENDBRANCH   7  15
BRANCH   6  24
HETATM   24  N3  UNL     1      15.186   4.226  39.801  1.00  0.00    -0.365 N 
ATOM     25  H32 UNL     1      14.167   4.251  39.792  1.00  0.00     0.159 HD
ATOM     26  H31 UNL     1      15.731   4.648  40.553  1.00  0.00     0.159 HD
ENDBRANCH   6  24
BRANCH   1  27
HETATM   27  N1  UNL     1      20.406   1.562  36.086  1.00  0.00    -0.226 N 
ATOM     28  H1  UNL     1      20.605   1.729  35.100  1.00  0.00     0.177 HD
BRANCH  27  29
HETATM   29  C2  UNL     1      21.377   0.865  36.876  1.00  0.00     0.133 C 
HETATM   30  C1  UNL     1      20.770  -0.339  37.606  1.00  0.00     0.027 C 
ENDBRANCH  27  29
ENDBRANCH   1  27
TORSDOF 6
ENDMDL
MODEL 5
REMARK VINA RESULT: -7.503492786      1.855      7.149
REMARK  6 active torsions:
REMARK  status: ('A' for Active; 'I' for Inactive)
REMARK    1  A    between atoms: C2_2  and  N1_3 
REMARK    2  A    between atoms: N1_3  and  C3_5 
REMARK    3  A    between atoms: C5_10  and  N3_11 
REMARK    4  A    between atoms: N4_14  and  C6_15 
REMARK    5  A    between atoms: C6_15  and  C7_16 
REMARK    6  A    between atoms: C7_16  and  N5_17 
ROOT
HETATM    1  C3  UNL     1      12.297   3.387  39.023  1.00  0.00     0.680 A 
HETATM    2  N2  UNL     1      12.595   2.932  37.795  1.00  0.00    -0.168 N 
ATOM      3  H2  UNL     1      11.907   2.684  37.083  1.00  0.00     0.186 HD
HETATM    4  C4  UNL     1      13.942   2.848  37.635  1.00  0.00     0.197 A 
HETATM    5  O1  UNL     1      14.728   2.473  36.656  1.00  0.00    -0.259 OA
HETATM    6  C5  UNL     1      16.057   2.491  36.782  1.00  0.00     0.227 A 
HETATM    7  N4  UNL     1      16.656   2.891  37.908  1.00  0.00    -0.296 N 
HETATM    8  C13 UNL     1      15.874   3.280  38.927  1.00  0.00     0.136 A 
HETATM    9  N7  UNL     1      16.391   3.677  40.041  1.00  0.00    -0.383 N 
ATOM     10  H71 UNL     1      15.797   3.972  40.815  1.00  0.00     0.157 HD
ATOM     11  H72 UNL     1      17.409   3.682  40.116  1.00  0.00     0.157 HD
HETATM   12  C14 UNL     1      14.487   3.272  38.824  1.00  0.00     0.144 A 
HETATM   13  N8  UNL     1      13.479   3.594  39.650  1.00  0.00    -0.184 N 
ATOM     14  H8  UNL     1      13.587   3.941  40.603  1.00  0.00     0.184 HD
ENDROOT
BRANCH   7  15
HETATM   15  C6  UNL     1      18.095   2.880  38.032  1.00  0.00     0.153 C 
BRANCH  15  16
HETATM   16  C7  UNL     1      18.576   1.941  39.090  1.00  0.00     0.137 C 
BRANCH  16  17
HETATM   17  N5  UNL     1      19.993   1.720  38.915  1.00  0.00    -0.408 N 
HETATM   18  C8  UNL     1      20.597   2.573  37.959  1.00  0.00     0.136 C 
HETATM   19  C9  UNL     1      21.369   1.916  36.871  1.00  0.00     0.135 C 
HETATM   20  N6  UNL     1      20.775   0.688  36.491  1.00  0.00    -0.414 N 
HETATM   21  C10 UNL     1      19.835   0.786  35.420  1.00  0.00     0.143 C 
HETATM   22  C11 UNL     1      20.460  -0.241  37.514  1.00  0.00     0.135 C 
HETATM   23  C12 UNL     1      20.353   0.341  38.881  1.00  0.00     0.136 C 
ENDBRANCH  16  17
ENDBRANCH  15  16
ENDBRANCH   7  15
BRANCH   6  24
HETATM   24  N3  UNL     1      16.783   2.114  35.793  1.00  0.00    -0.365 N 
ATOM     25  H32 UNL     1      16.429   2.242  34.845  1.00  0.00     0.159 HD
ATOM     26  H31 UNL     1      17.694   1.696  35.978  1.00  0.00     0.159 HD
ENDBRANCH   6  24
BRANCH   1  27
HETATM   27  N1  UNL     1      11.107   3.578  39.505  1.00  0.00    -0.226 N 
ATOM     28  H1  UNL     1      10.435   4.114  38.955  1.00  0.00     0.177 HD
BRANCH  27  29
HETATM   29  C2  UNL     1      10.700   3.064  40.779  1.00  0.00     0.133 C 
HETATM   30  C1  UNL     1      11.349   1.711  41.089  1.00  0.00     0.027 C 
ENDBRANCH  27  29
ENDBRANCH   1  27
TORSDOF 6
ENDMDL
