MODEL 1
REMARK VINA RESULT: -7.307737310      0.000      0.000
REMARK  7 active torsions:
REMARK  status: ('A' for Active; 'I' for Inactive)
REMARK    1  A    between atoms: C2_2  and  C3_3 
REMARK    2  A    between atoms: C3_3  and  C5_5 
REMARK    3  A    between atoms: C7_10  and  C8_11 
REMARK    4  A    between atoms: C11_16  and  O2_17 
REMARK    5  A    between atoms: C12_19  and  C13_20 
REMARK    6  A    between atoms: C13_20  and  C14_22 
REMARK    7  A    between atoms: C14_22  and  C15_24 
ROOT
HETATM    1  C5  UNL     1       8.809  66.438   3.511  1.00  0.00     0.061 C 
HETATM    2  N1  UNL     1       9.323  66.092   2.420  1.00  0.00    -0.325 N 
ATOM      3  H1  UNL     1      10.313  66.332   2.361  1.00  0.00     0.168 HD
HETATM    4  C6  UNL     1       8.867  65.463   1.283  1.00  0.00     0.244 C 
HETATM    5  O1  UNL     1       8.630  66.009   0.147  1.00  0.00    -0.271 OA
HETATM    6  C7  UNL     1       8.601  63.997   1.315  1.00  0.00     0.175 C 
HETATM    7  N2  UNL     1       7.445  63.735   0.497  1.00  0.00    -0.382 N 
ATOM      8  H2  UNL     1       7.129  64.389  -0.219  1.00  0.00     0.156 HD
HETATM    9  C11 UNL     1       6.773  62.511   0.748  1.00  0.00     0.244 C 
HETATM   10  C12 UNL     1       5.803  62.579   1.940  1.00  0.00     0.204 C 
HETATM   11  N3  UNL     1       4.816  63.505   1.697  1.00  0.00    -0.347 N 
HETATM   12  C18 UNL     1       3.969  63.392   0.582  1.00  0.00     0.100 C 
HETATM   13  C19 UNL     1       2.616  64.076   0.783  1.00  0.00     0.234 C 
HETATM   14  F1  UNL     1       1.966  63.966  -0.450  1.00  0.00    -0.242 F 
HETATM   15  C20 UNL     1       2.826  65.523   1.069  1.00  0.00     0.277 C 
HETATM   16  N4  UNL     1       4.126  65.701   1.675  1.00  0.00    -0.051 N 
ATOM     17  H41 UNL     1       4.193  66.586   2.178  1.00  0.00     0.279 HD
ATOM     18  H42 UNL     1       4.851  65.868   0.978  1.00  0.00     0.279 HD
HETATM   19  C21 UNL     1       4.450  64.543   2.545  1.00  0.00     0.287 C 
HETATM   20  C22 UNL     1       5.384  65.059   3.562  1.00  0.00     0.062 C 
HETATM   21  C23 UNL     1       6.245  66.214   3.105  1.00  0.00     0.089 C 
HETATM   22  C24 UNL     1       7.439  66.258   3.937  1.00  0.00     0.172 C 
HETATM   23  O4  UNL     1       7.227  66.116   5.192  1.00  0.00    -0.291 OA
ENDROOT
BRANCH  10  24
HETATM   24  C13 UNL     1       5.410  61.178   2.250  1.00  0.00     0.168 C 
HETATM   25  O3  UNL     1       4.687  60.552   1.492  1.00  0.00    -0.294 OA
BRANCH  24  26
HETATM   26  C14 UNL     1       5.865  60.474   3.462  1.00  0.00     0.133 C 
HETATM   27 BR1  UNL     1       6.973  61.801   4.416  1.00  0.00    -0.083 Br
BRANCH  26  28
HETATM   28  C15 UNL     1       6.852  59.371   3.111  1.00  0.00    -0.001 C 
HETATM   29  C16 UNL     1       6.945  58.339   4.186  1.00  0.00     0.011 C 
HETATM   30  C17 UNL     1       8.195  60.045   2.835  1.00  0.00     0.011 C 
ENDBRANCH  26  28
ENDBRANCH  24  26
ENDBRANCH  10  24
BRANCH   9  31
HETATM   31  O2  UNL     1       6.042  62.121  -0.355  1.00  0.00    -0.375 OA
ATOM     32  H2  UNL     1       5.172  62.503  -0.333  1.00  0.00     0.212 HD
ENDBRANCH   9  31
BRANCH   6  33
HETATM   33  C8  UNL     1       9.787  63.215   0.784  1.00  0.00     0.009 C 
HETATM   34  C9  UNL     1      10.121  63.629  -0.633  1.00  0.00     0.012 C 
HETATM   35  C10 UNL     1      11.004  63.310   1.646  1.00  0.00     0.012 C 
ENDBRANCH   6  33
BRANCH   1  36
HETATM   36  C3  UNL     1       9.717  67.127   4.506  1.00  0.00     0.035 C 
HETATM   37  C4  UNL     1       9.410  68.599   4.596  1.00  0.00     0.016 C 
BRANCH  36  38
HETATM   38  C2  UNL     1      11.161  67.000   4.067  1.00  0.00     0.006 C 
HETATM   39  C1  UNL     1      11.912  66.023   4.946  1.00  0.00     0.006 C 
ENDBRANCH  36  38
ENDBRANCH   1  36
TORSDOF 7
ENDMDL
MODEL 2
REMARK VINA RESULT: -7.252148769      2.859      7.129
REMARK  7 active torsions:
REMARK  status: ('A' for Active; 'I' for Inactive)
REMARK    1  A    between atoms: C2_2  and  C3_3 
REMARK    2  A    between atoms: C3_3  and  C5_5 
REMARK    3  A    between atoms: C7_10  and  C8_11 
REMARK    4  A    between atoms: C11_16  and  O2_17 
REMARK    5  A    between atoms: C12_19  and  C13_20 
REMARK    6  A    between atoms: C13_20  and  C14_22 
REMARK    7  A    between atoms: C14_22  and  C15_24 
ROOT
HETATM    1  C5  UNL     1       6.228  60.668   2.311  1.00  0.00     0.061 C 
HETATM    2  N1  UNL     1       5.776  61.039   1.201  1.00  0.00    -0.325 N 
ATOM      3  H1  UNL     1       4.903  60.572   0.959  1.00  0.00     0.168 HD
HETATM    4  C6  UNL     1       6.182  61.929   0.232  1.00  0.00     0.244 C 
HETATM    5  O1  UNL     1       6.693  61.641  -0.908  1.00  0.00    -0.271 OA
HETATM    6  C7  UNL     1       6.039  63.392   0.476  1.00  0.00     0.175 C 
HETATM    7  N2  UNL     1       7.173  64.056  -0.114  1.00  0.00    -0.382 N 
ATOM      8  H2  UNL     1       7.738  63.619  -0.842  1.00  0.00     0.156 HD
HETATM    9  C11 UNL     1       7.456  65.355   0.382  1.00  0.00     0.244 C 
HETATM   10  C12 UNL     1       8.256  65.349   1.695  1.00  0.00     0.204 C 
HETATM   11  N3  UNL     1       9.477  64.746   1.505  1.00  0.00    -0.347 N 
HETATM   12  C18 UNL     1      10.392  65.236   0.559  1.00  0.00     0.100 C 
HETATM   13  C19 UNL     1      11.844  64.888   0.890  1.00  0.00     0.234 C 
HETATM   14  F1  UNL     1      12.586  65.344  -0.204  1.00  0.00    -0.242 F 
HETATM   15  C20 UNL     1      11.997  63.408   0.968  1.00  0.00     0.277 C 
HETATM   16  N4  UNL     1      10.729  62.821   1.336  1.00  0.00    -0.051 N 
ATOM     17  H41 UNL     1      10.840  61.881   1.716  1.00  0.00     0.279 HD
ATOM     18  H42 UNL     1      10.165  62.587   0.519  1.00  0.00     0.279 HD
HETATM   19  C21 UNL     1      10.002  63.714   2.273  1.00  0.00     0.287 C 
HETATM   20  C22 UNL     1       9.124  62.832   3.063  1.00  0.00     0.062 C 
HETATM   21  C23 UNL     1       8.668  61.583   2.344  1.00  0.00     0.089 C 
HETATM   22  C24 UNL     1       7.437  61.116   2.967  1.00  0.00     0.172 C 
HETATM   23  O4  UNL     1       7.448  61.111   4.247  1.00  0.00    -0.291 OA
ENDROOT
BRANCH  10  24
HETATM   24  C13 UNL     1       8.218  66.738   2.226  1.00  0.00     0.168 C 
HETATM   25  O3  UNL     1       7.751  67.646   1.557  1.00  0.00    -0.294 OA
BRANCH  24  26
HETATM   26  C14 UNL     1       8.724  67.094   3.563  1.00  0.00     0.133 C 
HETATM   27 BR1  UNL     1       7.625  68.640   4.111  1.00  0.00    -0.083 Br
BRANCH  26  28
HETATM   28  C15 UNL     1      10.130  67.668   3.476  1.00  0.00    -0.001 C 
HETATM   29  C16 UNL     1      11.128  66.816   4.188  1.00  0.00     0.011 C 
HETATM   30  C17 UNL     1      10.069  69.086   4.041  1.00  0.00     0.011 C 
ENDBRANCH  26  28
ENDBRANCH  24  26
ENDBRANCH  10  24
BRANCH   9  31
HETATM   31  O2  UNL     1       8.184  66.080  -0.539  1.00  0.00    -0.375 OA
ATOM     32  H2  UNL     1       9.116  65.994  -0.372  1.00  0.00     0.212 HD
ENDBRANCH   9  31
BRANCH   6  33
HETATM   33  C8  UNL     1       4.761  63.926  -0.141  1.00  0.00     0.009 C 
HETATM   34  C9  UNL     1       4.869  63.988  -1.649  1.00  0.00     0.012 C 
HETATM   35  C10 UNL     1       3.538  63.163   0.254  1.00  0.00     0.012 C 
ENDBRANCH   6  33
BRANCH   1  36
HETATM   36  C3  UNL     1       5.424  59.630   3.063  1.00  0.00     0.035 C 
HETATM   37  C4  UNL     1       6.227  58.376   3.289  1.00  0.00     0.016 C 
BRANCH  36  38
HETATM   38  C2  UNL     1       4.201  59.237   2.260  1.00  0.00     0.006 C 
HETATM   39  C1  UNL     1       3.975  57.740   2.313  1.00  0.00     0.006 C 
ENDBRANCH  36  38
ENDBRANCH   1  36
TORSDOF 7
ENDMDL
MODEL 3
REMARK VINA RESULT: -7.171225896      2.583      6.877
REMARK  7 active torsions:
REMARK  status: ('A' for Active; 'I' for Inactive)
REMARK    1  A    between atoms: C2_2  and  C3_3 
REMARK    2  A    between atoms: C3_3  and  C5_5 
REMARK    3  A    between atoms: C7_10  and  C8_11 
REMARK    4  A    between atoms: C11_16  and  O2_17 
REMARK    5  A    between atoms: C12_19  and  C13_20 
REMARK    6  A    between atoms: C13_20  and  C14_22 
REMARK    7  A    between atoms: C14_22  and  C15_24 
ROOT
HETATM    1  C5  UNL     1       6.334  60.708   2.456  1.00  0.00     0.061 C 
HETATM    2  N1  UNL     1       5.231  61.121   2.892  1.00  0.00    -0.325 N 
ATOM      3  H1  UNL     1       4.708  60.393   3.380  1.00  0.00     0.168 HD
HETATM    4  C6  UNL     1       4.562  62.323   2.868  1.00  0.00     0.244 C 
HETATM    5  O1  UNL     1       3.544  62.620   2.146  1.00  0.00    -0.271 OA
HETATM    6  C7  UNL     1       5.020  63.433   3.749  1.00  0.00     0.175 C 
HETATM    7  N2  UNL     1       4.847  64.671   3.033  1.00  0.00    -0.382 N 
ATOM      8  H2  UNL     1       4.209  64.754   2.241  1.00  0.00     0.156 HD
HETATM    9  C11 UNL     1       5.618  65.768   3.497  1.00  0.00     0.244 C 
HETATM   10  C12 UNL     1       7.063  65.769   2.968  1.00  0.00     0.204 C 
HETATM   11  N3  UNL     1       7.066  65.862   1.596  1.00  0.00    -0.347 N 
HETATM   12  C18 UNL     1       6.469  66.950   0.938  1.00  0.00     0.100 C 
HETATM   13  C19 UNL     1       7.070  67.222  -0.441  1.00  0.00     0.234 C 
HETATM   14  F1  UNL     1       6.284  68.244  -0.986  1.00  0.00    -0.242 F 
HETATM   15  C20 UNL     1       6.918  66.014  -1.299  1.00  0.00     0.277 C 
HETATM   16  N4  UNL     1       6.862  64.840  -0.457  1.00  0.00    -0.051 N 
ATOM     17  H41 UNL     1       7.084  63.990  -0.974  1.00  0.00     0.279 HD
ATOM     18  H42 UNL     1       5.905  64.609  -0.190  1.00  0.00     0.279 HD
HETATM   19  C21 UNL     1       7.741  65.015   0.726  1.00  0.00     0.287 C 
HETATM   20  C22 UNL     1       8.129  63.654   1.137  1.00  0.00     0.062 C 
HETATM   21  C23 UNL     1       7.111  62.582   0.820  1.00  0.00     0.089 C 
HETATM   22  C24 UNL     1       7.328  61.458   1.721  1.00  0.00     0.172 C 
HETATM   23  O4  UNL     1       8.552  61.112   1.866  1.00  0.00    -0.291 OA
ENDROOT
BRANCH  10  24
HETATM   24  C13 UNL     1       7.806  66.787   3.757  1.00  0.00     0.168 C 
HETATM   25  O3  UNL     1       7.542  66.977   4.933  1.00  0.00    -0.294 OA
BRANCH  24  26
HETATM   26  C14 UNL     1       8.888  67.605   3.181  1.00  0.00     0.133 C 
HETATM   27 BR1  UNL     1      10.500  67.072   4.190  1.00  0.00    -0.083 Br
BRANCH  26  28
HETATM   28  C15 UNL     1       8.711  69.073   3.543  1.00  0.00    -0.001 C 
HETATM   29  C16 UNL     1       8.177  69.870   2.399  1.00  0.00     0.011 C 
HETATM   30  C17 UNL     1      10.069  69.581   4.022  1.00  0.00     0.011 C 
ENDBRANCH  26  28
ENDBRANCH  24  26
ENDBRANCH  10  24
BRANCH   9  31
HETATM   31  O2  UNL     1       5.042  66.964   3.119  1.00  0.00    -0.375 OA
ATOM     32  H2  UNL     1       5.704  67.572   2.811  1.00  0.00     0.212 HD
ENDBRANCH   9  31
BRANCH   6  33
HETATM   33  C8  UNL     1       4.221  63.476   5.037  1.00  0.00     0.009 C 
HETATM   34  C9  UNL     1       5.106  63.826   6.214  1.00  0.00     0.012 C 
HETATM   35  C10 UNL     1       3.047  64.399   4.986  1.00  0.00     0.012 C 
ENDBRANCH   6  33
BRANCH   1  36
HETATM   36  C3  UNL     1       6.675  59.258   2.723  1.00  0.00     0.035 C 
HETATM   37  C4  UNL     1       5.511  58.357   2.402  1.00  0.00     0.016 C 
BRANCH  36  38
HETATM   38  C2  UNL     1       6.999  59.061   4.189  1.00  0.00     0.006 C 
HETATM   39  C1  UNL     1       7.068  57.589   4.537  1.00  0.00     0.006 C 
ENDBRANCH  36  38
ENDBRANCH   1  36
TORSDOF 7
ENDMDL
MODEL 4
REMARK VINA RESULT: -7.166158459      2.673      6.702
REMARK  7 active torsions:
REMARK  status: ('A' for Active; 'I' for Inactive)
REMARK    1  A    between atoms: C2_2  and  C3_3 
REMARK    2  A    between atoms: C3_3  and  C5_5 
REMARK    3  A    between atoms: C7_10  and  C8_11 
REMARK    4  A    between atoms: C11_16  and  O2_17 
REMARK    5  A    between atoms: C12_19  and  C13_20 
REMARK    6  A    between atoms: C13_20  and  C14_22 
REMARK    7  A    between atoms: C14_22  and  C15_24 
ROOT
HETATM    1  C5  UNL     1       6.103  60.665   3.168  1.00  0.00     0.061 C 
HETATM    2  N1  UNL     1       5.316  61.588   3.490  1.00  0.00    -0.325 N 
ATOM      3  H1  UNL     1       4.626  61.290   4.180  1.00  0.00     0.168 HD
HETATM    4  C6  UNL     1       5.164  62.909   3.132  1.00  0.00     0.244 C 
HETATM    5  O1  UNL     1       4.250  63.398   2.378  1.00  0.00    -0.271 OA
HETATM    6  C7  UNL     1       6.131  63.921   3.641  1.00  0.00     0.175 C 
HETATM    7  N2  UNL     1       6.350  64.892   2.600  1.00  0.00    -0.382 N 
ATOM      8  H2  UNL     1       5.691  65.021   1.833  1.00  0.00     0.156 HD
HETATM    9  C11 UNL     1       7.540  65.657   2.708  1.00  0.00     0.244 C 
HETATM   10  C12 UNL     1       8.785  64.932   2.169  1.00  0.00     0.204 C 
HETATM   11  N3  UNL     1       8.634  64.660   0.829  1.00  0.00    -0.347 N 
HETATM   12  C18 UNL     1       8.417  65.688  -0.102  1.00  0.00     0.100 C 
HETATM   13  C19 UNL     1       8.879  65.327  -1.514  1.00  0.00     0.234 C 
HETATM   14  F1  UNL     1       8.480  66.402  -2.315  1.00  0.00    -0.242 F 
HETATM   15  C20 UNL     1       8.157  64.110  -1.981  1.00  0.00     0.277 C 
HETATM   16  N4  UNL     1       7.771  63.321  -0.833  1.00  0.00    -0.051 N 
ATOM     17  H41 UNL     1       7.575  62.352  -1.085  1.00  0.00     0.279 HD
ATOM     18  H42 UNL     1       6.846  63.577  -0.488  1.00  0.00     0.279 HD
HETATM   19  C21 UNL     1       8.805  63.419   0.229  1.00  0.00     0.287 C 
HETATM   20  C22 UNL     1       8.692  62.174   1.010  1.00  0.00     0.062 C 
HETATM   21  C23 UNL     1       7.306  61.569   1.041  1.00  0.00     0.089 C 
HETATM   22  C24 UNL     1       7.197  60.727   2.225  1.00  0.00     0.172 C 
HETATM   23  O4  UNL     1       8.201  59.962   2.436  1.00  0.00    -0.291 OA
ENDROOT
BRANCH  10  24
HETATM   24  C13 UNL     1       9.965  65.723   2.611  1.00  0.00     0.168 C 
HETATM   25  O3  UNL     1      10.009  66.929   2.428  1.00  0.00    -0.294 OA
BRANCH  24  26
HETATM   26  C14 UNL     1      11.123  65.114   3.288  1.00  0.00     0.133 C 
HETATM   27 BR1  UNL     1      11.606  66.408   4.699  1.00  0.00    -0.083 Br
BRANCH  26  28
HETATM   28  C15 UNL     1      12.343  65.108   2.378  1.00  0.00    -0.001 C 
HETATM   29  C16 UNL     1      12.227  64.089   1.293  1.00  0.00     0.011 C 
HETATM   30  C17 UNL     1      13.562  64.875   3.267  1.00  0.00     0.011 C 
ENDBRANCH  26  28
ENDBRANCH  24  26
ENDBRANCH  10  24
BRANCH   9  31
HETATM   31  O2  UNL     1       7.422  66.842   2.012  1.00  0.00    -0.375 OA
ATOM     32  H2  UNL     1       6.835  67.439   2.462  1.00  0.00     0.212 HD
ENDBRANCH   9  31
BRANCH   6  33
HETATM   33  C8  UNL     1       5.597  64.614   4.879  1.00  0.00     0.009 C 
HETATM   34  C9  UNL     1       4.471  65.563   4.526  1.00  0.00     0.012 C 
HETATM   35  C10 UNL     1       5.155  63.674   5.952  1.00  0.00     0.012 C 
ENDBRANCH   6  33
BRANCH   1  36
HETATM   36  C3  UNL     1       5.894  59.324   3.837  1.00  0.00     0.035 C 
HETATM   37  C4  UNL     1       7.208  58.696   4.222  1.00  0.00     0.016 C 
BRANCH  36  38
HETATM   38  C2  UNL     1       5.207  58.368   2.883  1.00  0.00     0.006 C 
HETATM   39  C1  UNL     1       5.775  56.971   3.013  1.00  0.00     0.006 C 
ENDBRANCH  36  38
ENDBRANCH   1  36
TORSDOF 7
ENDMDL
MODEL 5
REMARK VINA RESULT: -6.917547060      3.091      6.397
REMARK  7 active torsions:
REMARK  status: ('A' for Active; 'I' for Inactive)
REMARK    1  A    between atoms: C2_2  and  C3_3 
REMARK    2  A    between atoms: C3_3  and  C5_5 
REMARK    3  A    between atoms: C7_10  and  C8_11 
REMARK    4  A    between atoms: C11_16  and  O2_17 
REMARK    5  A    between atoms: C12_19  and  C13_20 
REMARK    6  A    between atoms: C13_20  and  C14_22 
REMARK    7  A    between atoms: C14_22  and  C15_24 
ROOT
HETATM    1  C5  UNL     1       4.017  63.399   3.210  1.00  0.00     0.061 C 
HETATM    2  N1  UNL     1       4.727  62.648   3.922  1.00  0.00    -0.325 N 
ATOM      3  H1  UNL     1       4.244  61.787   4.183  1.00  0.00     0.168 HD
HETATM    4  C6  UNL     1       6.003  62.710   4.435  1.00  0.00     0.244 C 
HETATM    5  O1  UNL     1       6.329  62.938   5.654  1.00  0.00    -0.271 OA
HETATM    6  C7  UNL     1       7.166  62.501   3.529  1.00  0.00     0.175 C 
HETATM    7  N2  UNL     1       8.225  63.382   3.950  1.00  0.00    -0.382 N 
ATOM      8  H2  UNL     1       8.256  63.780   4.889  1.00  0.00     0.156 HD
HETATM    9  C11 UNL     1       9.221  63.662   2.979  1.00  0.00     0.244 C 
HETATM   10  C12 UNL     1       8.817  64.768   1.989  1.00  0.00     0.204 C 
HETATM   11  N3  UNL     1       8.603  65.950   2.659  1.00  0.00    -0.347 N 
HETATM   12  C18 UNL     1       9.615  66.545   3.429  1.00  0.00     0.100 C 
HETATM   13  C19 UNL     1       9.451  68.058   3.572  1.00  0.00     0.234 C 
HETATM   14  F1  UNL     1      10.462  68.453   4.454  1.00  0.00    -0.242 F 
HETATM   15  C20 UNL     1       8.138  68.361   4.208  1.00  0.00     0.277 C 
HETATM   16  N4  UNL     1       7.215  67.287   3.918  1.00  0.00    -0.051 N 
ATOM     17  H41 UNL     1       6.244  67.577   4.038  1.00  0.00     0.279 HD
ATOM     18  H42 UNL     1       7.243  66.558   4.630  1.00  0.00     0.279 HD
HETATM   19  C21 UNL     1       7.467  66.745   2.559  1.00  0.00     0.287 C 
HETATM   20  C22 UNL     1       6.181  66.182   2.111  1.00  0.00     0.062 C 
HETATM   21  C23 UNL     1       5.290  65.673   3.221  1.00  0.00     0.089 C 
HETATM   22  C24 UNL     1       4.373  64.689   2.662  1.00  0.00     0.172 C 
HETATM   23  O4  UNL     1       3.831  65.027   1.552  1.00  0.00    -0.291 OA
ENDROOT
BRANCH  10  24
HETATM   24  C13 UNL     1       9.815  64.740   0.887  1.00  0.00     0.168 C 
HETATM   25  O3  UNL     1      10.808  65.448   0.929  1.00  0.00    -0.294 OA
BRANCH  24  26
HETATM   26  C14 UNL     1       9.673  63.869  -0.293  1.00  0.00     0.133 C 
HETATM   27 BR1  UNL     1      10.937  64.617  -1.613  1.00  0.00    -0.083 Br
BRANCH  26  28
HETATM   28  C15 UNL     1       8.315  64.063  -0.951  1.00  0.00    -0.001 C 
HETATM   29  C16 UNL     1       7.337  63.015  -0.535  1.00  0.00     0.011 C 
HETATM   30  C17 UNL     1       8.548  64.076  -2.460  1.00  0.00     0.011 C 
ENDBRANCH  26  28
ENDBRANCH  24  26
ENDBRANCH  10  24
BRANCH   9  31
HETATM   31  O2  UNL     1      10.393  64.063   3.586  1.00  0.00    -0.375 OA
ATOM     32  H2  UNL     1      10.556  63.553   4.371  1.00  0.00     0.212 HD
ENDBRANCH   9  31
BRANCH   6  33
HETATM   33  C8  UNL     1       7.649  61.065   3.582  1.00  0.00     0.009 C 
HETATM   34  C9  UNL     1       6.574  60.149   4.125  1.00  0.00     0.012 C 
HETATM   35  C10 UNL     1       8.147  60.549   2.270  1.00  0.00     0.012 C 
ENDBRANCH   6  33
BRANCH   1  36
HETATM   36  C3  UNL     1       2.624  62.911   2.879  1.00  0.00     0.035 C 
HETATM   37  C4  UNL     1       1.719  62.990   4.081  1.00  0.00     0.016 C 
BRANCH  36  38
HETATM   38  C2  UNL     1       2.669  61.458   2.451  1.00  0.00     0.006 C 
HETATM   39  C1  UNL     1       3.140  61.329   1.018  1.00  0.00     0.006 C 
ENDBRANCH  36  38
ENDBRANCH   1  36
TORSDOF 7
ENDMDL
