MODEL 1
REMARK VINA RESULT: -8.289289462      0.000      0.000
REMARK  9 active torsions:
REMARK  status: ('A' for Active; 'I' for Inactive)
REMARK    1  A    between atoms: C2_2  and  O1_3 
REMARK    2  A    between atoms: C2_2  and  N1_5 
REMARK    3  A    between atoms: C3_6  and  C4_7 
REMARK       I    between atoms: N3_16  and  C9_17 
REMARK       I    between atoms: C9_17  and  N4_19 
REMARK    4  A    between atoms: N4_19  and  C10_21 
REMARK    5  A    between atoms: C10_21  and  C12_23 
REMARK       I    between atoms: C12_23  and  N5_25 
REMARK    6  A    between atoms: C15_28  and  C16_29 
REMARK    7  A    between atoms: C16_29  and  N6_30 
REMARK    8  A    between atoms: C19_33  and  C20_34 
REMARK    9  A    between atoms: C20_34  and  O4_35 
ROOT
HETATM    1  N1  UNL     1      11.912  65.106   3.101  1.00  0.00    -0.277 N 
HETATM    2  C3  UNL     1      13.167  64.599   2.940  1.00  0.00     0.183 A 
HETATM    3  N2  UNL     1      13.155  63.792   1.874  1.00  0.00    -0.339 N 
ATOM      4  H2  UNL     1      13.963  63.279   1.522  1.00  0.00     0.167 HD
HETATM    5  C5  UNL     1      11.904  63.755   1.322  1.00  0.00     0.038 A 
HETATM    6  C6  UNL     1      11.139  64.569   2.086  1.00  0.00     0.065 A 
HETATM    7  C7  UNL     1       9.711  64.743   1.743  1.00  0.00     0.137 C 
HETATM    8  C8  UNL     1       9.407  66.100   1.155  1.00  0.00     0.039 C 
HETATM    9  N3  UNL     1       9.243  63.694   0.884  1.00  0.00    -0.324 N 
HETATM   10  C9  UNL     1       8.055  63.016   1.118  1.00  0.00     0.319 C 
HETATM   11  O2  UNL     1       7.729  62.095   0.309  1.00  0.00    -0.247 OA
HETATM   12  N4  UNL     1       7.201  63.296   2.192  1.00  0.00    -0.330 N 
ATOM     13  H4  UNL     1       7.457  64.030   2.851  1.00  0.00     0.165 HD
HETATM   14  C25 UNL     1      10.060  63.375  -0.267  1.00  0.00     0.134 C 
HETATM   15  C26 UNL     1      11.444  62.994   0.140  1.00  0.00     0.079 C 
ENDROOT
BRANCH  12  16
HETATM   16  C10 UNL     1       5.937  62.554   2.393  1.00  0.00     0.174 C 
HETATM   17  C11 UNL     1       6.083  61.736   3.677  1.00  0.00     0.042 C 
BRANCH  16  18
HETATM   18  C12 UNL     1       4.837  63.505   2.536  1.00  0.00     0.242 C 
HETATM   19  O3  UNL     1       3.919  63.520   1.645  1.00  0.00    -0.271 OA
HETATM   20  N5  UNL     1       4.753  64.394   3.601  1.00  0.00    -0.350 N 
HETATM   21  C13 UNL     1       3.636  65.358   3.628  1.00  0.00     0.126 C 
HETATM   22  C24 UNL     1       5.663  64.450   4.725  1.00  0.00     0.126 C 
HETATM   23  C14 UNL     1       4.121  66.573   4.369  1.00  0.00     0.026 C 
HETATM   24  C15 UNL     1       5.559  66.835   4.007  1.00  0.00     0.017 C 
HETATM   25  C23 UNL     1       6.427  65.781   4.713  1.00  0.00     0.026 C 
BRANCH  24  26
HETATM   26  C16 UNL     1       6.004  68.223   4.438  1.00  0.00     0.277 C 
BRANCH  26  27
HETATM   27  N6  UNL     1       6.044  69.059   3.253  1.00  0.00     0.088 N 
HETATM   28  C17 UNL     1       7.061  68.624   2.323  1.00  0.00     0.273 C 
HETATM   29  C18 UNL     1       7.408  69.794   1.434  1.00  0.00     0.037 C 
HETATM   30  C19 UNL     1       8.192  70.791   2.271  1.00  0.00     0.012 C 
HETATM   31  C21 UNL     1       7.598  70.924   3.655  1.00  0.00     0.037 C 
HETATM   32  C22 UNL     1       6.174  70.463   3.601  1.00  0.00     0.273 C 
BRANCH  30  33
HETATM   33  C20 UNL     1       9.609  70.284   2.426  1.00  0.00     0.168 C 
BRANCH  33  34
HETATM   34  O4  UNL     1      10.386  71.356   2.858  1.00  0.00    -0.400 OA
ATOM     35  H4  UNL     1      11.292  71.072   2.838  1.00  0.00     0.209 HD
ENDBRANCH  33  34
ENDBRANCH  30  33
ENDBRANCH  26  27
ENDBRANCH  24  26
ENDBRANCH  16  18
ENDBRANCH  12  16
BRANCH   1  36
HETATM   36  C2  UNL     1      11.495  65.987   4.091  1.00  0.00     0.119 C 
HETATM   37  C1  UNL     1      10.846  67.304   4.036  1.00  0.00     0.098 C 
BRANCH  36  38
HETATM   38  O1  UNL     1      11.705  65.606   5.328  1.00  0.00    -0.349 OA
ATOM     39  H1  UNL     1      12.124  66.290   5.836  1.00  0.00     0.219 HD
ENDBRANCH  36  38
ENDBRANCH   1  36
BRANCH   2  40
HETATM   40  C4  UNL     1      14.342  64.894   3.798  1.00  0.00     0.311 C 
HETATM   41  F1  UNL     1      15.532  65.012   3.119  1.00  0.00    -0.169 F 
HETATM   42  F2  UNL     1      14.399  64.228   4.975  1.00  0.00    -0.169 F 
ENDBRANCH   2  40
TORSDOF 9
ENDMDL
MODEL 2
REMARK VINA RESULT: -8.152038529      0.769      1.068
REMARK  9 active torsions:
REMARK  status: ('A' for Active; 'I' for Inactive)
REMARK    1  A    between atoms: C2_2  and  O1_3 
REMARK    2  A    between atoms: C2_2  and  N1_5 
REMARK    3  A    between atoms: C3_6  and  C4_7 
REMARK       I    between atoms: N3_16  and  C9_17 
REMARK       I    between atoms: C9_17  and  N4_19 
REMARK    4  A    between atoms: N4_19  and  C10_21 
REMARK    5  A    between atoms: C10_21  and  C12_23 
REMARK       I    between atoms: C12_23  and  N5_25 
REMARK    6  A    between atoms: C15_28  and  C16_29 
REMARK    7  A    between atoms: C16_29  and  N6_30 
REMARK    8  A    between atoms: C19_33  and  C20_34 
REMARK    9  A    between atoms: C20_34  and  O4_35 
ROOT
HETATM    1  N1  UNL     1      11.937  65.114   3.103  1.00  0.00    -0.277 N 
HETATM    2  C3  UNL     1      13.200  64.638   2.912  1.00  0.00     0.183 A 
HETATM    3  N2  UNL     1      13.190  63.863   1.821  1.00  0.00    -0.339 N 
ATOM      4  H2  UNL     1      14.004  63.377   1.445  1.00  0.00     0.167 HD
HETATM    5  C5  UNL     1      11.934  63.818   1.284  1.00  0.00     0.038 A 
HETATM    6  C6  UNL     1      11.163  64.592   2.081  1.00  0.00     0.065 A 
HETATM    7  C7  UNL     1       9.728  64.748   1.760  1.00  0.00     0.137 C 
HETATM    8  C8  UNL     1       9.389  66.117   1.219  1.00  0.00     0.039 C 
HETATM    9  N3  UNL     1       9.269  63.716   0.876  1.00  0.00    -0.324 N 
HETATM   10  C9  UNL     1       8.098  63.008   1.102  1.00  0.00     0.319 C 
HETATM   11  O2  UNL     1       7.780  62.106   0.270  1.00  0.00    -0.247 OA
HETATM   12  N4  UNL     1       7.252  63.238   2.194  1.00  0.00    -0.330 N 
ATOM     13  H4  UNL     1       7.502  63.957   2.873  1.00  0.00     0.165 HD
HETATM   14  C25 UNL     1      10.078  63.449  -0.294  1.00  0.00     0.134 C 
HETATM   15  C26 UNL     1      11.474  63.084   0.085  1.00  0.00     0.079 C 
ENDROOT
BRANCH  12  16
HETATM   16  C10 UNL     1       6.006  62.465   2.388  1.00  0.00     0.174 C 
HETATM   17  C11 UNL     1       6.147  61.684   3.695  1.00  0.00     0.042 C 
BRANCH  16  18
HETATM   18  C12 UNL     1       4.876  63.388   2.484  1.00  0.00     0.242 C 
HETATM   19  O3  UNL     1       4.004  63.389   1.547  1.00  0.00    -0.271 OA
HETATM   20  N5  UNL     1       4.716  64.263   3.551  1.00  0.00    -0.350 N 
HETATM   21  C13 UNL     1       3.575  65.199   3.530  1.00  0.00     0.126 C 
HETATM   22  C24 UNL     1       5.566  64.329   4.720  1.00  0.00     0.126 C 
HETATM   23  C14 UNL     1       3.991  66.417   4.306  1.00  0.00     0.026 C 
HETATM   24  C15 UNL     1       5.439  66.718   4.020  1.00  0.00     0.017 C 
HETATM   25  C23 UNL     1       6.296  65.679   4.760  1.00  0.00     0.026 C 
BRANCH  24  26
HETATM   26  C16 UNL     1       5.827  68.112   4.485  1.00  0.00     0.277 C 
BRANCH  26  27
HETATM   27  N6  UNL     1       6.987  68.525   3.718  1.00  0.00     0.088 N 
HETATM   28  C17 UNL     1       7.791  69.486   4.436  1.00  0.00     0.273 C 
HETATM   29  C18 UNL     1       8.616  70.249   3.426  1.00  0.00     0.037 C 
HETATM   30  C19 UNL     1       7.676  71.170   2.667  1.00  0.00     0.012 C 
HETATM   31  C21 UNL     1       6.373  70.473   2.346  1.00  0.00     0.037 C 
HETATM   32  C22 UNL     1       6.606  68.995   2.397  1.00  0.00     0.273 C 
BRANCH  30  33
HETATM   33  C20 UNL     1       7.356  72.363   3.543  1.00  0.00     0.168 C 
BRANCH  33  34
HETATM   34  O4  UNL     1       7.714  73.504   2.831  1.00  0.00    -0.400 OA
ATOM     35  H4  UNL     1       7.794  74.213   3.459  1.00  0.00     0.209 HD
ENDBRANCH  33  34
ENDBRANCH  30  33
ENDBRANCH  26  27
ENDBRANCH  24  26
ENDBRANCH  16  18
ENDBRANCH  12  16
BRANCH   1  36
HETATM   36  C2  UNL     1      11.515  65.956   4.125  1.00  0.00     0.119 C 
HETATM   37  C1  UNL     1      10.799  67.238   4.119  1.00  0.00     0.098 C 
BRANCH  36  38
HETATM   38  O1  UNL     1      11.792  65.566   5.346  1.00  0.00    -0.349 OA
ATOM     39  H1  UNL     1      11.175  64.911   5.650  1.00  0.00     0.219 HD
ENDBRANCH  36  38
ENDBRANCH   1  36
BRANCH   2  40
HETATM   40  C4  UNL     1      14.380  64.930   3.765  1.00  0.00     0.311 C 
HETATM   41  F1  UNL     1      15.565  65.055   3.079  1.00  0.00    -0.169 F 
HETATM   42  F2  UNL     1      14.446  64.256   4.936  1.00  0.00    -0.169 F 
ENDBRANCH   2  40
TORSDOF 9
ENDMDL
MODEL 3
REMARK VINA RESULT: -8.009275269      3.584      8.572
REMARK  9 active torsions:
REMARK  status: ('A' for Active; 'I' for Inactive)
REMARK    1  A    between atoms: C2_2  and  O1_3 
REMARK    2  A    between atoms: C2_2  and  N1_5 
REMARK    3  A    between atoms: C3_6  and  C4_7 
REMARK       I    between atoms: N3_16  and  C9_17 
REMARK       I    between atoms: C9_17  and  N4_19 
REMARK    4  A    between atoms: N4_19  and  C10_21 
REMARK    5  A    between atoms: C10_21  and  C12_23 
REMARK       I    between atoms: C12_23  and  N5_25 
REMARK    6  A    between atoms: C15_28  and  C16_29 
REMARK    7  A    between atoms: C16_29  and  N6_30 
REMARK    8  A    between atoms: C19_33  and  C20_34 
REMARK    9  A    between atoms: C20_34  and  O4_35 
ROOT
HETATM    1  N1  UNL     1       5.090  65.044   5.207  1.00  0.00    -0.277 N 
HETATM    2  C3  UNL     1       4.386  65.554   6.258  1.00  0.00     0.183 A 
HETATM    3  N2  UNL     1       4.467  66.888   6.203  1.00  0.00    -0.339 N 
ATOM      4  H2  UNL     1       4.031  67.527   6.868  1.00  0.00     0.167 HD
HETATM    5  C5  UNL     1       5.219  67.273   5.127  1.00  0.00     0.038 A 
HETATM    6  C6  UNL     1       5.602  66.129   4.516  1.00  0.00     0.065 A 
HETATM    7  C7  UNL     1       6.440  66.209   3.300  1.00  0.00     0.137 C 
HETATM    8  C8  UNL     1       5.689  65.854   2.040  1.00  0.00     0.039 C 
HETATM    9  N3  UNL     1       7.072  67.491   3.180  1.00  0.00    -0.324 N 
HETATM   10  C9  UNL     1       8.421  67.631   2.887  1.00  0.00     0.319 C 
HETATM   11  O2  UNL     1       8.893  68.806   2.812  1.00  0.00    -0.247 OA
HETATM   12  N4  UNL     1       9.284  66.549   2.670  1.00  0.00    -0.330 N 
ATOM     13  H4  UNL     1       8.916  65.600   2.735  1.00  0.00     0.165 HD
HETATM   14  C25 UNL     1       6.232  68.656   3.358  1.00  0.00     0.134 C 
HETATM   15  C26 UNL     1       5.565  68.643   4.692  1.00  0.00     0.079 C 
ENDROOT
BRANCH  12  16
HETATM   16  C10 UNL     1      10.714  66.748   2.349  1.00  0.00     0.174 C 
HETATM   17  C11 UNL     1      11.482  66.784   3.671  1.00  0.00     0.042 C 
BRANCH  16  18
HETATM   18  C12 UNL     1      11.185  65.630   1.534  1.00  0.00     0.242 C 
HETATM   19  O3  UNL     1      11.912  65.880   0.511  1.00  0.00    -0.271 OA
HETATM   20  N5  UNL     1      10.872  64.308   1.829  1.00  0.00    -0.350 N 
HETATM   21  C13 UNL     1      11.345  63.251   0.913  1.00  0.00     0.126 C 
HETATM   22  C24 UNL     1      10.132  63.856   2.987  1.00  0.00     0.126 C 
HETATM   23  C14 UNL     1      10.357  62.121   1.000  1.00  0.00     0.026 C 
HETATM   24  C15 UNL     1       8.966  62.685   1.121  1.00  0.00     0.017 C 
HETATM   25  C23 UNL     1       8.799  63.237   2.546  1.00  0.00     0.026 C 
BRANCH  24  26
HETATM   26  C16 UNL     1       7.906  61.627   0.864  1.00  0.00     0.277 C 
BRANCH  26  27
HETATM   27  N6  UNL     1       7.342  61.249   2.146  1.00  0.00     0.088 N 
HETATM   28  C17 UNL     1       7.938  60.038   2.660  1.00  0.00     0.273 C 
HETATM   29  C18 UNL     1       6.976  59.431   3.653  1.00  0.00     0.037 C 
HETATM   30  C19 UNL     1       5.803  58.865   2.871  1.00  0.00     0.012 C 
HETATM   31  C21 UNL     1       5.393  59.799   1.755  1.00  0.00     0.037 C 
HETATM   32  C22 UNL     1       5.892  61.171   2.083  1.00  0.00     0.273 C 
BRANCH  30  33
HETATM   33  C20 UNL     1       6.227  57.555   2.243  1.00  0.00     0.168 C 
BRANCH  33  34
HETATM   34  O4  UNL     1       5.149  57.088   1.497  1.00  0.00    -0.400 OA
ATOM     35  H4  UNL     1       4.404  57.033   2.084  1.00  0.00     0.209 HD
ENDBRANCH  33  34
ENDBRANCH  30  33
ENDBRANCH  26  27
ENDBRANCH  24  26
ENDBRANCH  16  18
ENDBRANCH  12  16
BRANCH   1  36
HETATM   36  C2  UNL     1       5.258  63.701   4.897  1.00  0.00     0.119 C 
HETATM   37  C1  UNL     1       6.313  62.733   5.224  1.00  0.00     0.098 C 
BRANCH  36  38
HETATM   38  O1  UNL     1       4.312  63.153   4.172  1.00  0.00    -0.349 OA
ATOM     39  H1  UNL     1       3.484  63.137   4.636  1.00  0.00     0.219 HD
ENDBRANCH  36  38
ENDBRANCH   1  36
BRANCH   2  40
HETATM   40  C4  UNL     1       3.655  64.766   7.281  1.00  0.00     0.311 C 
HETATM   41  F1  UNL     1       2.574  64.064   6.800  1.00  0.00    -0.169 F 
HETATM   42  F2  UNL     1       3.478  65.370   8.480  1.00  0.00    -0.169 F 
ENDBRANCH   2  40
TORSDOF 9
ENDMDL
MODEL 4
REMARK VINA RESULT: -7.775439649      1.059      1.497
REMARK  9 active torsions:
REMARK  status: ('A' for Active; 'I' for Inactive)
REMARK    1  A    between atoms: C2_2  and  O1_3 
REMARK    2  A    between atoms: C2_2  and  N1_5 
REMARK    3  A    between atoms: C3_6  and  C4_7 
REMARK       I    between atoms: N3_16  and  C9_17 
REMARK       I    between atoms: C9_17  and  N4_19 
REMARK    4  A    between atoms: N4_19  and  C10_21 
REMARK    5  A    between atoms: C10_21  and  C12_23 
REMARK       I    between atoms: C12_23  and  N5_25 
REMARK    6  A    between atoms: C15_28  and  C16_29 
REMARK    7  A    between atoms: C16_29  and  N6_30 
REMARK    8  A    between atoms: C19_33  and  C20_34 
REMARK    9  A    between atoms: C20_34  and  O4_35 
ROOT
HETATM    1  N1  UNL     1      12.124  65.201   3.203  1.00  0.00    -0.277 N 
HETATM    2  C3  UNL     1      13.352  64.652   2.986  1.00  0.00     0.183 A 
HETATM    3  N2  UNL     1      13.248  63.791   1.968  1.00  0.00    -0.339 N 
ATOM      4  H2  UNL     1      14.017  63.238   1.591  1.00  0.00     0.167 HD
HETATM    5  C5  UNL     1      11.961  63.761   1.504  1.00  0.00     0.038 A 
HETATM    6  C6  UNL     1      11.271  64.634   2.272  1.00  0.00     0.065 A 
HETATM    7  C7  UNL     1       9.828  64.830   2.016  1.00  0.00     0.137 C 
HETATM    8  C8  UNL     1       9.517  66.163   1.379  1.00  0.00     0.039 C 
HETATM    9  N3  UNL     1       9.276  63.751   1.249  1.00  0.00    -0.324 N 
HETATM   10  C9  UNL     1       8.091  63.120   1.597  1.00  0.00     0.319 C 
HETATM   11  O2  UNL     1       7.688  62.168   0.863  1.00  0.00    -0.247 OA
HETATM   12  N4  UNL     1       7.319  63.480   2.709  1.00  0.00    -0.330 N 
ATOM     13  H4  UNL     1       7.637  64.240   3.310  1.00  0.00     0.165 HD
HETATM   14  C25 UNL     1      10.005  63.351   0.064  1.00  0.00     0.134 C 
HETATM   15  C26 UNL     1      11.403  62.953   0.398  1.00  0.00     0.079 C 
ENDROOT
BRANCH  12  16
HETATM   16  C10 UNL     1       6.054  62.785   3.034  1.00  0.00     0.174 C 
HETATM   17  C11 UNL     1       6.186  62.228   4.453  1.00  0.00     0.042 C 
BRANCH  16  18
HETATM   18  C12 UNL     1       4.951  63.742   2.980  1.00  0.00     0.242 C 
HETATM   19  O3  UNL     1       3.869  63.397   2.390  1.00  0.00    -0.271 OA
HETATM   20  N5  UNL     1       5.034  65.010   3.543  1.00  0.00    -0.350 N 
HETATM   21  C13 UNL     1       3.889  65.928   3.385  1.00  0.00     0.126 C 
HETATM   22  C24 UNL     1       6.152  65.519   4.308  1.00  0.00     0.126 C 
HETATM   23  C14 UNL     1       4.441  67.326   3.402  1.00  0.00     0.026 C 
HETATM   24  C15 UNL     1       5.754  67.351   2.665  1.00  0.00     0.017 C 
HETATM   25  C23 UNL     1       6.813  66.682   3.556  1.00  0.00     0.026 C 
BRANCH  24  26
HETATM   26  C16 UNL     1       6.192  68.770   2.342  1.00  0.00     0.277 C 
BRANCH  26  27
HETATM   27  N6  UNL     1       5.899  69.594   3.500  1.00  0.00     0.088 N 
HETATM   28  C17 UNL     1       5.054  70.716   3.162  1.00  0.00     0.273 C 
HETATM   29  C18 UNL     1       5.240  71.774   4.223  1.00  0.00     0.037 C 
HETATM   30  C19 UNL     1       6.618  72.384   4.027  1.00  0.00     0.012 C 
HETATM   31  C21 UNL     1       7.642  71.320   3.702  1.00  0.00     0.037 C 
HETATM   32  C22 UNL     1       7.117  70.001   4.180  1.00  0.00     0.273 C 
BRANCH  30  33
HETATM   33  C20 UNL     1       6.562  73.341   2.856  1.00  0.00     0.168 C 
BRANCH  33  34
HETATM   34  O4  UNL     1       7.828  73.904   2.724  1.00  0.00    -0.400 OA
ATOM     35  H4  UNL     1       7.712  74.846   2.668  1.00  0.00     0.209 HD
ENDBRANCH  33  34
ENDBRANCH  30  33
ENDBRANCH  26  27
ENDBRANCH  24  26
ENDBRANCH  16  18
ENDBRANCH  12  16
BRANCH   1  36
HETATM   36  C2  UNL     1      11.797  66.144   4.170  1.00  0.00     0.119 C 
HETATM   37  C1  UNL     1      11.345  67.539   4.081  1.00  0.00     0.098 C 
BRANCH  36  38
HETATM   38  O1  UNL     1      11.901  65.751   5.417  1.00  0.00    -0.349 OA
ATOM     39  H1  UNL     1      11.293  65.048   5.612  1.00  0.00     0.219 HD
ENDBRANCH  36  38
ENDBRANCH   1  36
BRANCH   2  40
HETATM   40  C4  UNL     1      14.590  64.958   3.746  1.00  0.00     0.311 C 
HETATM   41  F1  UNL     1      15.738  64.974   2.989  1.00  0.00    -0.169 F 
HETATM   42  F2  UNL     1      14.697  64.377   4.964  1.00  0.00    -0.169 F 
ENDBRANCH   2  40
TORSDOF 9
ENDMDL
MODEL 5
REMARK VINA RESULT: -7.647615159      2.868      6.634
REMARK  9 active torsions:
REMARK  status: ('A' for Active; 'I' for Inactive)
REMARK    1  A    between atoms: C2_2  and  O1_3 
REMARK    2  A    between atoms: C2_2  and  N1_5 
REMARK    3  A    between atoms: C3_6  and  C4_7 
REMARK       I    between atoms: N3_16  and  C9_17 
REMARK       I    between atoms: C9_17  and  N4_19 
REMARK    4  A    between atoms: N4_19  and  C10_21 
REMARK    5  A    between atoms: C10_21  and  C12_23 
REMARK       I    between atoms: C12_23  and  N5_25 
REMARK    6  A    between atoms: C15_28  and  C16_29 
REMARK    7  A    between atoms: C16_29  and  N6_30 
REMARK    8  A    between atoms: C19_33  and  C20_34 
REMARK    9  A    between atoms: C20_34  and  O4_35 
ROOT
HETATM    1  N1  UNL     1      10.678  65.569   3.236  1.00  0.00    -0.277 N 
HETATM    2  C3  UNL     1      11.726  66.183   3.857  1.00  0.00     0.183 A 
HETATM    3  N2  UNL     1      11.329  67.405   4.228  1.00  0.00    -0.339 N 
ATOM      4  H2  UNL     1      11.914  68.084   4.715  1.00  0.00     0.167 HD
HETATM    5  C5  UNL     1      10.029  67.613   3.859  1.00  0.00     0.038 A 
HETATM    6  C6  UNL     1       9.632  66.475   3.246  1.00  0.00     0.065 A 
HETATM    7  C7  UNL     1       8.251  66.385   2.725  1.00  0.00     0.137 C 
HETATM    8  C8  UNL     1       7.370  65.471   3.542  1.00  0.00     0.039 C 
HETATM    9  N3  UNL     1       7.655  67.681   2.581  1.00  0.00    -0.324 N 
HETATM   10  C9  UNL     1       6.979  68.066   1.432  1.00  0.00     0.319 C 
HETATM   11  O2  UNL     1       6.495  69.238   1.392  1.00  0.00    -0.247 OA
HETATM   12  N4  UNL     1       6.802  67.232   0.321  1.00  0.00    -0.330 N 
ATOM     13  H4  UNL     1       7.192  66.290   0.339  1.00  0.00     0.165 HD
HETATM   14  C25 UNL     1       7.770  68.584   3.706  1.00  0.00     0.134 C 
HETATM   15  C26 UNL     1       9.198  68.819   4.068  1.00  0.00     0.079 C 
ENDROOT
BRANCH  12  16
HETATM   16  C10 UNL     1       6.062  67.683  -0.878  1.00  0.00     0.174 C 
HETATM   17  C11 UNL     1       7.094  68.039  -1.950  1.00  0.00     0.042 C 
BRANCH  16  18
HETATM   18  C12 UNL     1       5.210  66.596  -1.356  1.00  0.00     0.242 C 
HETATM   19  O3  UNL     1       3.947  66.791  -1.424  1.00  0.00    -0.271 OA
HETATM   20  N5  UNL     1       5.720  65.360  -1.737  1.00  0.00    -0.350 N 
HETATM   21  C13 UNL     1       4.774  64.304  -2.149  1.00  0.00     0.126 C 
HETATM   22  C24 UNL     1       7.122  65.009  -1.793  1.00  0.00     0.126 C 
HETATM   23  C14 UNL     1       5.414  62.986  -1.815  1.00  0.00     0.026 C 
HETATM   24  C15 UNL     1       6.151  63.108  -0.507  1.00  0.00     0.017 C 
HETATM   25  C23 UNL     1       7.431  63.921  -0.755  1.00  0.00     0.026 C 
BRANCH  24  26
HETATM   26  C16 UNL     1       6.522  61.747   0.059  1.00  0.00     0.277 C 
BRANCH  26  27
HETATM   27  N6  UNL     1       6.652  61.890   1.497  1.00  0.00     0.088 N 
HETATM   28  C17 UNL     1       7.852  61.258   1.994  1.00  0.00     0.273 C 
HETATM   29  C18 UNL     1       7.653  60.972   3.463  1.00  0.00     0.037 C 
HETATM   30  C19 UNL     1       6.659  59.828   3.577  1.00  0.00     0.012 C 
HETATM   31  C21 UNL     1       5.530  59.988   2.584  1.00  0.00     0.037 C 
HETATM   32  C22 UNL     1       5.457  61.429   2.184  1.00  0.00     0.273 C 
BRANCH  30  33
HETATM   33  C20 UNL     1       7.372  58.533   3.258  1.00  0.00     0.168 C 
BRANCH  33  34
HETATM   34  O4  UNL     1       7.123  57.655   4.310  1.00  0.00    -0.400 OA
ATOM     35  H4  UNL     1       7.966  57.368   4.642  1.00  0.00     0.209 HD
ENDBRANCH  33  34
ENDBRANCH  30  33
ENDBRANCH  26  27
ENDBRANCH  24  26
ENDBRANCH  16  18
ENDBRANCH  12  16
BRANCH   1  36
HETATM   36  C2  UNL     1      10.668  64.288   2.700  1.00  0.00     0.119 C 
HETATM   37  C1  UNL     1      11.197  63.734   1.446  1.00  0.00     0.098 C 
BRANCH  36  38
HETATM   38  O1  UNL     1      10.081  63.364   3.423  1.00  0.00    -0.349 OA
ATOM     39  H1  UNL     1       9.206  63.629   3.680  1.00  0.00     0.219 HD
ENDBRANCH  36  38
ENDBRANCH   1  36
BRANCH   2  40
HETATM   40  C4  UNL     1      13.069  65.594   4.084  1.00  0.00     0.311 C 
HETATM   41  F1  UNL     1      13.652  65.941   5.280  1.00  0.00    -0.169 F 
HETATM   42  F2  UNL     1      13.895  65.572   3.012  1.00  0.00    -0.169 F 
ENDBRANCH   2  40
TORSDOF 9
ENDMDL
