MODEL 1
REMARK VINA RESULT: -7.321539202      0.000      0.000
REMARK  5 active torsions:
REMARK  status: ('A' for Active; 'I' for Inactive)
REMARK    1  A    between atoms: S1_2  and  N1_5 
REMARK    2  A    between atoms: N1_5  and  C2_7 
REMARK    3  A    between atoms: C5_10  and  S2_11 
REMARK    4  A    between atoms: S2_11  and  C6_12 
REMARK    5  A    between atoms: C9_17  and  N3_18 
ROOT
HETATM    1  C2  UNL     1       2.676  14.449  23.150  1.00  0.00     0.042 A 
HETATM    2  C3  UNL     1       2.235  13.772  24.258  1.00  0.00     0.031 A 
HETATM    3  C4  UNL     1       2.050  14.398  25.485  1.00  0.00     0.021 A 
HETATM    4  C5  UNL     1       2.316  15.742  25.602  1.00  0.00     0.007 A 
HETATM    5  C10 UNL     1       2.758  16.439  24.508  1.00  0.00     0.021 A 
HETATM    6  C11 UNL     1       2.934  15.796  23.299  1.00  0.00     0.031 A 
ENDROOT
BRANCH   4   7
HETATM    7  S2  UNL     1       2.109  16.632  27.136  1.00  0.00    -0.072 SA
BRANCH   7   8
HETATM    8  C6  UNL     1       1.216  18.159  26.878  1.00  0.00     0.092 A 
HETATM    9  C7  UNL     1       1.696  19.074  25.962  1.00  0.00     0.055 A 
HETATM   10  C8  UNL     1       0.973  20.250  25.791  1.00  0.00     0.109 A 
HETATM   11  N2  UNL     1      -0.148  20.475  26.494  1.00  0.00    -0.202 N 
HETATM   12  C9  UNL     1      -0.613  19.581  27.385  1.00  0.00     0.676 A 
ATOM     13  H2  UNL     1      -0.660  21.345  26.350  1.00  0.00     0.183 HD
HETATM   14  N4  UNL     1       0.088  18.432  27.559  1.00  0.00    -0.186 N 
ATOM     15  H4  UNL     1      -0.254  17.747  28.233  1.00  0.00     0.185 HD
BRANCH  12  16
HETATM   16  N3  UNL     1      -1.677  19.842  28.025  1.00  0.00    -0.234 N 
ATOM     17  H32 UNL     1      -1.919  20.782  28.337  1.00  0.00     0.174 HD
ATOM     18  H31 UNL     1      -2.326  19.084  28.240  1.00  0.00     0.174 HD
ENDBRANCH  12  16
ENDBRANCH   7   8
ENDBRANCH   4   7
BRANCH   1  19
HETATM   19  N1  UNL     1       2.851  13.793  21.929  1.00  0.00    -0.285 N 
ATOM     20  H1  UNL     1       3.530  14.194  21.282  1.00  0.00     0.178 HD
BRANCH  19  21
HETATM   21  S1  UNL     1       2.038  12.387  21.417  1.00  0.00     0.227 S 
HETATM   22  C1  UNL     1       2.335  11.002  22.478  1.00  0.00     0.186 C 
HETATM   23  O1  UNL     1       0.559  12.656  21.386  1.00  0.00    -0.206 OA
HETATM   24  O2  UNL     1       2.470  12.003  20.026  1.00  0.00    -0.206 OA
ENDBRANCH  19  21
ENDBRANCH   1  19
TORSDOF 5
ENDMDL
MODEL 2
REMARK VINA RESULT: -7.260104870      0.674      1.254
REMARK  5 active torsions:
REMARK  status: ('A' for Active; 'I' for Inactive)
REMARK    1  A    between atoms: S1_2  and  N1_5 
REMARK    2  A    between atoms: N1_5  and  C2_7 
REMARK    3  A    between atoms: C5_10  and  S2_11 
REMARK    4  A    between atoms: S2_11  and  C6_12 
REMARK    5  A    between atoms: C9_17  and  N3_18 
ROOT
HETATM    1  C2  UNL     1       2.032  14.147  22.976  1.00  0.00     0.042 A 
HETATM    2  C3  UNL     1       2.115  15.515  22.912  1.00  0.00     0.031 A 
HETATM    3  C4  UNL     1       2.181  16.308  24.051  1.00  0.00     0.021 A 
HETATM    4  C5  UNL     1       2.163  15.711  25.290  1.00  0.00     0.007 A 
HETATM    5  C10 UNL     1       2.081  14.345  25.378  1.00  0.00     0.021 A 
HETATM    6  C11 UNL     1       2.017  13.578  24.233  1.00  0.00     0.031 A 
ENDROOT
BRANCH   4   7
HETATM    7  S2  UNL     1       2.244  16.646  26.809  1.00  0.00    -0.072 SA
BRANCH   7   8
HETATM    8  C6  UNL     1       1.305  18.162  26.682  1.00  0.00     0.092 A 
HETATM    9  C7  UNL     1       1.733  19.149  25.817  1.00  0.00     0.055 A 
HETATM   10  C8  UNL     1       0.975  20.313  25.747  1.00  0.00     0.109 A 
HETATM   11  N2  UNL     1      -0.128  20.460  26.498  1.00  0.00    -0.202 N 
HETATM   12  C9  UNL     1      -0.541  19.496  27.340  1.00  0.00     0.676 A 
ATOM     13  H2  UNL     1      -0.666  21.324  26.428  1.00  0.00     0.183 HD
HETATM   14  N4  UNL     1       0.194  18.358  27.414  1.00  0.00    -0.186 N 
ATOM     15  H4  UNL     1      -0.109  17.620  28.050  1.00  0.00     0.185 HD
BRANCH  12  16
HETATM   16  N3  UNL     1      -1.591  19.684  28.027  1.00  0.00    -0.234 N 
ATOM     17  H32 UNL     1      -1.690  20.456  28.686  1.00  0.00     0.174 HD
ATOM     18  H31 UNL     1      -2.376  19.041  27.923  1.00  0.00     0.174 HD
ENDBRANCH  12  16
ENDBRANCH   7   8
ENDBRANCH   4   7
BRANCH   1  19
HETATM   19  N1  UNL     1       1.969  13.376  21.813  1.00  0.00    -0.285 N 
ATOM     20  H1  UNL     1       2.237  13.833  20.941  1.00  0.00     0.178 HD
BRANCH  19  21
HETATM   21  S1  UNL     1       1.488  11.746  21.711  1.00  0.00     0.227 S 
HETATM   22  C1  UNL     1       2.647  10.644  22.469  1.00  0.00     0.186 C 
HETATM   23  O1  UNL     1       0.158  11.580  22.391  1.00  0.00    -0.206 OA
HETATM   24  O2  UNL     1       1.330  11.330  20.272  1.00  0.00    -0.206 OA
ENDBRANCH  19  21
ENDBRANCH   1  19
TORSDOF 5
ENDMDL
MODEL 3
REMARK VINA RESULT: -7.197772608      1.143      1.570
REMARK  5 active torsions:
REMARK  status: ('A' for Active; 'I' for Inactive)
REMARK    1  A    between atoms: S1_2  and  N1_5 
REMARK    2  A    between atoms: N1_5  and  C2_7 
REMARK    3  A    between atoms: C5_10  and  S2_11 
REMARK    4  A    between atoms: S2_11  and  C6_12 
REMARK    5  A    between atoms: C9_17  and  N3_18 
ROOT
HETATM    1  C2  UNL     1       2.412  13.434  23.162  1.00  0.00     0.042 A 
HETATM    2  C3  UNL     1       2.197  14.785  23.054  1.00  0.00     0.031 A 
HETATM    3  C4  UNL     1       2.073  15.607  24.167  1.00  0.00     0.021 A 
HETATM    4  C5  UNL     1       2.166  15.058  25.425  1.00  0.00     0.007 A 
HETATM    5  C10 UNL     1       2.380  13.710  25.556  1.00  0.00     0.021 A 
HETATM    6  C11 UNL     1       2.501  12.913  24.436  1.00  0.00     0.031 A 
ENDROOT
BRANCH   4   7
HETATM    7  S2  UNL     1       2.020  16.033  26.913  1.00  0.00    -0.072 SA
BRANCH   7   8
HETATM    8  C6  UNL     1       1.330  17.644  26.561  1.00  0.00     0.092 A 
HETATM    9  C7  UNL     1       1.823  18.369  25.494  1.00  0.00     0.055 A 
HETATM   10  C8  UNL     1       1.259  19.618  25.253  1.00  0.00     0.109 A 
HETATM   11  N2  UNL     1       0.276  20.090  26.035  1.00  0.00    -0.202 N 
HETATM   12  C9  UNL     1      -0.201  19.380  27.074  1.00  0.00     0.676 A 
ATOM     13  H2  UNL     1      -0.120  21.009  25.838  1.00  0.00     0.183 HD
HETATM   14  N4  UNL     1       0.344  18.162  27.315  1.00  0.00    -0.186 N 
ATOM     15  H4  UNL     1      -0.008  17.615  28.101  1.00  0.00     0.185 HD
BRANCH  12  16
HETATM   16  N3  UNL     1      -1.132  19.872  27.783  1.00  0.00    -0.234 N 
ATOM     17  H32 UNL     1      -1.975  19.352  28.027  1.00  0.00     0.174 HD
ATOM     18  H31 UNL     1      -1.041  20.827  28.130  1.00  0.00     0.174 HD
ENDBRANCH  12  16
ENDBRANCH   7   8
ENDBRANCH   4   7
BRANCH   1  19
HETATM   19  N1  UNL     1       2.535  12.633  22.024  1.00  0.00    -0.285 N 
ATOM     20  H1  UNL     1       3.077  13.014  21.248  1.00  0.00     0.178 HD
BRANCH  19  21
HETATM   21  S1  UNL     1       1.866  11.082  21.808  1.00  0.00     0.227 S 
HETATM   22  C1  UNL     1       0.728  10.645  23.091  1.00  0.00     0.186 C 
HETATM   23  O1  UNL     1       1.143  11.036  20.491  1.00  0.00    -0.206 OA
HETATM   24  O2  UNL     1       2.952  10.038  21.779  1.00  0.00    -0.206 OA
ENDBRANCH  19  21
ENDBRANCH   1  19
TORSDOF 5
ENDMDL
MODEL 4
REMARK VINA RESULT: -7.148764839      3.652      7.553
REMARK  5 active torsions:
REMARK  status: ('A' for Active; 'I' for Inactive)
REMARK    1  A    between atoms: S1_2  and  N1_5 
REMARK    2  A    between atoms: N1_5  and  C2_7 
REMARK    3  A    between atoms: C5_10  and  S2_11 
REMARK    4  A    between atoms: S2_11  and  C6_12 
REMARK    5  A    between atoms: C9_17  and  N3_18 
ROOT
HETATM    1  C2  UNL     1       1.198  17.290  25.885  1.00  0.00     0.042 A 
HETATM    2  C3  UNL     1       1.720  16.058  26.186  1.00  0.00     0.031 A 
HETATM    3  C4  UNL     1       2.256  15.222  25.214  1.00  0.00     0.021 A 
HETATM    4  C5  UNL     1       2.268  15.635  23.902  1.00  0.00     0.007 A 
HETATM    5  C10 UNL     1       1.751  16.862  23.578  1.00  0.00     0.021 A 
HETATM    6  C11 UNL     1       1.225  17.676  24.560  1.00  0.00     0.031 A 
ENDROOT
BRANCH   4   7
HETATM    7  S2  UNL     1       2.935  14.630  22.585  1.00  0.00    -0.072 SA
BRANCH   7   8
HETATM    8  C6  UNL     1       2.212  12.996  22.592  1.00  0.00     0.092 A 
HETATM    9  C7  UNL     1       2.345  12.195  21.475  1.00  0.00     0.055 A 
HETATM   10  C8  UNL     1       1.769  10.930  21.520  1.00  0.00     0.109 A 
HETATM   11  N2  UNL     1       1.110  10.515  22.614  1.00  0.00    -0.202 N 
HETATM   12  C9  UNL     1       0.982  11.298  23.700  1.00  0.00     0.676 A 
ATOM     13  H2  UNL     1       0.696   9.583  22.621  1.00  0.00     0.183 HD
HETATM   14  N4  UNL     1       1.542  12.533  23.663  1.00  0.00    -0.186 N 
ATOM     15  H4  UNL     1       1.450  13.137  24.480  1.00  0.00     0.185 HD
BRANCH  12  16
HETATM   16  N3  UNL     1       0.350  10.858  24.708  1.00  0.00    -0.234 N 
ATOM     17  H32 UNL     1       0.437   9.897  25.040  1.00  0.00     0.174 HD
ATOM     18  H31 UNL     1      -0.274  11.485  25.216  1.00  0.00     0.174 HD
ENDBRANCH  12  16
ENDBRANCH   7   8
ENDBRANCH   4   7
BRANCH   1  19
HETATM   19  N1  UNL     1       0.668  18.110  26.884  1.00  0.00    -0.285 N 
ATOM     20  H1  UNL     1       0.751  17.778  27.845  1.00  0.00     0.178 HD
BRANCH  19  21
HETATM   21  S1  UNL     1      -0.103  19.610  26.652  1.00  0.00     0.227 S 
HETATM   22  C1  UNL     1       0.985  20.842  25.997  1.00  0.00     0.186 C 
HETATM   23  O1  UNL     1      -1.252  19.432  25.699  1.00  0.00    -0.206 OA
HETATM   24  O2  UNL     1      -0.655  20.128  27.955  1.00  0.00    -0.206 OA
ENDBRANCH  19  21
ENDBRANCH   1  19
TORSDOF 5
ENDMDL
MODEL 5
REMARK VINA RESULT: -7.144097973      0.841      1.518
REMARK  5 active torsions:
REMARK  status: ('A' for Active; 'I' for Inactive)
REMARK    1  A    between atoms: S1_2  and  N1_5 
REMARK    2  A    between atoms: N1_5  and  C2_7 
REMARK    3  A    between atoms: C5_10  and  S2_11 
REMARK    4  A    between atoms: S2_11  and  C6_12 
REMARK    5  A    between atoms: C9_17  and  N3_18 
ROOT
HETATM    1  C2  UNL     1       2.666  14.515  23.223  1.00  0.00     0.042 A 
HETATM    2  C3  UNL     1       2.326  13.814  24.352  1.00  0.00     0.031 A 
HETATM    3  C4  UNL     1       2.098  14.438  25.572  1.00  0.00     0.021 A 
HETATM    4  C5  UNL     1       2.217  15.805  25.662  1.00  0.00     0.007 A 
HETATM    5  C10 UNL     1       2.555  16.526  24.546  1.00  0.00     0.021 A 
HETATM    6  C11 UNL     1       2.776  15.885  23.345  1.00  0.00     0.031 A 
ENDROOT
BRANCH   4   7
HETATM    7  S2  UNL     1       1.944  16.695  27.186  1.00  0.00    -0.072 SA
BRANCH   7   8
HETATM    8  C6  UNL     1       1.140  18.262  26.881  1.00  0.00     0.092 A 
HETATM    9  C7  UNL     1      -0.130  18.476  27.378  1.00  0.00     0.055 A 
HETATM   10  C8  UNL     1      -0.721  19.708  27.120  1.00  0.00     0.109 A 
HETATM   11  N2  UNL     1      -0.071  20.646  26.412  1.00  0.00    -0.202 N 
HETATM   12  C9  UNL     1       1.166  20.434  25.930  1.00  0.00     0.676 A 
ATOM     13  H2  UNL     1      -0.527  21.541  26.236  1.00  0.00     0.183 HD
HETATM   14  N4  UNL     1       1.749  19.234  26.177  1.00  0.00    -0.186 N 
ATOM     15  H4  UNL     1       2.687  19.061  25.815  1.00  0.00     0.185 HD
BRANCH  12  16
HETATM   16  N3  UNL     1       1.738  21.353  25.267  1.00  0.00    -0.234 N 
ATOM     17  H32 UNL     1       1.331  21.764  24.427  1.00  0.00     0.174 HD
ATOM     18  H31 UNL     1       2.643  21.703  25.581  1.00  0.00     0.174 HD
ENDBRANCH  12  16
ENDBRANCH   7   8
ENDBRANCH   4   7
BRANCH   1  19
HETATM   19  N1  UNL     1       2.886  13.859  22.009  1.00  0.00    -0.285 N 
ATOM     20  H1  UNL     1       3.589  14.262  21.388  1.00  0.00     0.178 HD
BRANCH  19  21
HETATM   21  S1  UNL     1       2.095  12.453  21.467  1.00  0.00     0.227 S 
HETATM   22  C1  UNL     1       2.407  11.052  22.502  1.00  0.00     0.186 C 
HETATM   23  O1  UNL     1       0.613  12.702  21.434  1.00  0.00    -0.206 OA
HETATM   24  O2  UNL     1       2.538  12.102  20.070  1.00  0.00    -0.206 OA
ENDBRANCH  19  21
ENDBRANCH   1  19
TORSDOF 5
ENDMDL
