MODEL 1
REMARK VINA RESULT: -6.471333148      0.000      0.000
REMARK  10 active torsions:
REMARK  status: ('A' for Active; 'I' for Inactive)
REMARK    1  A    between atoms: C2_2  and  N1_3 
REMARK    2  A    between atoms: N1_3  and  C3_5 
REMARK    3  A    between atoms: C3_5  and  N2_7 
REMARK    4  A    between atoms: N2_7  and  C4_8 
REMARK    5  A    between atoms: N2_7  and  C13_19 
REMARK    6  A    between atoms: C4_8  and  C5_9 
REMARK    7  A    between atoms: C5_9  and  C6_10 
REMARK    8  A    between atoms: C13_19  and  C14_20 
REMARK    9  A    between atoms: N4_23  and  C17_24 
REMARK   10  A    between atoms: C17_24  and  C18_25 
ROOT
HETATM    1  N2  UNL     1      -4.209   3.546  21.187  1.00  0.00    -0.358 N 
ENDROOT
BRANCH   1   2
HETATM    2  C3  UNL     1      -3.947   4.357  20.008  1.00  0.00     0.169 C 
HETATM    3  S1  UNL     1      -3.286   5.861  20.238  1.00  0.00    -0.041 SA
BRANCH   2   4
HETATM    4  N1  UNL     1      -4.171   3.972  18.691  1.00  0.00    -0.367 N 
ATOM      5  H1  UNL     1      -3.451   3.459  18.183  1.00  0.00     0.161 HD
BRANCH   4   6
HETATM    6  C2  UNL     1      -5.423   4.296  18.035  1.00  0.00     0.117 C 
HETATM    7  C1  UNL     1      -5.263   4.292  16.513  1.00  0.00     0.026 C 
ENDBRANCH   4   6
ENDBRANCH   2   4
ENDBRANCH   1   2
BRANCH   1   8
HETATM    8  C4  UNL     1      -5.529   3.572  21.712  1.00  0.00     0.130 C 
BRANCH   8   9
HETATM    9  C5  UNL     1      -5.762   3.839  23.145  1.00  0.00     0.060 C 
BRANCH   9  10
HETATM   10  C6  UNL     1      -5.373   5.293  23.371  1.00  0.00    -0.033 A 
HETATM   11  C7  UNL     1      -6.077   6.417  23.017  1.00  0.00     0.096 A 
HETATM   12  N3  UNL     1      -5.364   7.497  23.404  1.00  0.00    -0.368 N 
HETATM   13  C8  UNL     1      -4.222   7.105  23.995  1.00  0.00     0.015 A 
ATOM     14  H3  UNL     1      -5.649   8.467  23.267  1.00  0.00     0.165 HD
HETATM   15  C9  UNL     1      -4.220   5.733  23.978  1.00  0.00    -0.028 A 
HETATM   16  C12 UNL     1      -2.958   7.594  24.657  1.00  0.00     0.058 C 
HETATM   17  C10 UNL     1      -2.963   5.252  24.636  1.00  0.00     0.041 C 
HETATM   18  C11 UNL     1      -2.025   6.412  24.400  1.00  0.00     0.011 C 
ENDBRANCH   9  10
ENDBRANCH   8   9
ENDBRANCH   1   8
BRANCH   1  19
HETATM   19  C13 UNL     1      -3.162   2.759  21.761  1.00  0.00     0.130 C 
BRANCH  19  20
HETATM   20  C14 UNL     1      -2.009   2.327  20.931  1.00  0.00     0.010 C 
HETATM   21  C15 UNL     1      -0.690   2.770  21.574  1.00  0.00     0.051 C 
HETATM   22  C16 UNL     1       0.199   1.637  21.992  1.00  0.00     0.063 C 
HETATM   23  N4  UNL     1       0.400   0.708  20.980  1.00  0.00    -0.373 N 
HETATM   24  C24 UNL     1      -0.684   0.391  20.111  1.00  0.00     0.127 C 
HETATM   25  C25 UNL     1      -2.018   0.847  20.715  1.00  0.00     0.027 C 
BRANCH  23  26
HETATM   26  C17 UNL     1       1.630   0.169  20.634  1.00  0.00     0.067 C 
BRANCH  26  27
HETATM   27  C18 UNL     1       2.640   1.027  19.915  1.00  0.00     0.024 C 
HETATM   28  C19 UNL     1       3.999   0.602  20.455  1.00  0.00     0.010 C 
HETATM   29  C20 UNL     1       5.148   1.081  19.628  1.00  0.00     0.001 C 
HETATM   30  C21 UNL     1       4.951   0.590  18.198  1.00  0.00     0.000 C 
HETATM   31  C22 UNL     1       3.732   1.369  17.687  1.00  0.00     0.001 C 
HETATM   32  C23 UNL     1       2.551   0.776  18.437  1.00  0.00     0.010 C 
ENDBRANCH  26  27
ENDBRANCH  23  26
ENDBRANCH  19  20
ENDBRANCH   1  19
TORSDOF 10
ENDMDL
MODEL 2
REMARK VINA RESULT: -6.367450125      2.778      9.278
REMARK  10 active torsions:
REMARK  status: ('A' for Active; 'I' for Inactive)
REMARK    1  A    between atoms: C2_2  and  N1_3 
REMARK    2  A    between atoms: N1_3  and  C3_5 
REMARK    3  A    between atoms: C3_5  and  N2_7 
REMARK    4  A    between atoms: N2_7  and  C4_8 
REMARK    5  A    between atoms: N2_7  and  C13_19 
REMARK    6  A    between atoms: C4_8  and  C5_9 
REMARK    7  A    between atoms: C5_9  and  C6_10 
REMARK    8  A    between atoms: C13_19  and  C14_20 
REMARK    9  A    between atoms: N4_23  and  C17_24 
REMARK   10  A    between atoms: C17_24  and  C18_25 
ROOT
HETATM    1  N2  UNL     1      -0.713   3.597  21.147  1.00  0.00    -0.358 N 
ENDROOT
BRANCH   1   2
HETATM    2  C3  UNL     1      -1.174   2.316  21.661  1.00  0.00     0.169 C 
HETATM    3  S1  UNL     1      -2.681   1.799  21.200  1.00  0.00    -0.041 SA
BRANCH   2   4
HETATM    4  N1  UNL     1      -0.449   1.462  22.485  1.00  0.00    -0.367 N 
ATOM      5  H1  UNL     1      -0.011   1.826  23.331  1.00  0.00     0.161 HD
BRANCH   4   6
HETATM    6  C2  UNL     1      -0.312   0.059  22.148  1.00  0.00     0.117 C 
HETATM    7  C1  UNL     1       1.161  -0.350  22.084  1.00  0.00     0.026 C 
ENDBRANCH   4   6
ENDBRANCH   2   4
ENDBRANCH   1   2
BRANCH   1   8
HETATM    8  C4  UNL     1       0.418   3.582  20.287  1.00  0.00     0.130 C 
BRANCH   8   9
HETATM    9  C5  UNL     1       0.291   3.127  18.889  1.00  0.00     0.060 C 
BRANCH   9  10
HETATM   10  C6  UNL     1       1.210   1.921  18.753  1.00  0.00    -0.033 A 
HETATM   11  C7  UNL     1       0.855   0.600  18.639  1.00  0.00     0.096 A 
HETATM   12  N3  UNL     1       1.987  -0.131  18.547  1.00  0.00    -0.368 N 
HETATM   13  C8  UNL     1       3.061   0.676  18.598  1.00  0.00     0.015 A 
ATOM     14  H3  UNL     1       2.022  -1.146  18.453  1.00  0.00     0.165 HD
HETATM   15  C9  UNL     1       2.585   1.956  18.727  1.00  0.00    -0.028 A 
HETATM   16  C12 UNL     1       4.569   0.707  18.571  1.00  0.00     0.058 C 
HETATM   17  C10 UNL     1       3.753   2.893  18.781  1.00  0.00     0.041 C 
HETATM   18  C11 UNL     1       4.840   2.002  19.334  1.00  0.00     0.011 C 
ENDBRANCH   9  10
ENDBRANCH   8   9
ENDBRANCH   1   8
BRANCH   1  19
HETATM   19  C13 UNL     1      -1.400   4.799  21.503  1.00  0.00     0.130 C 
BRANCH  19  20
HETATM   20  C14 UNL     1      -1.243   5.377  22.862  1.00  0.00     0.010 C 
HETATM   21  C15 UNL     1      -1.016   6.890  22.779  1.00  0.00     0.051 C 
HETATM   22  C16 UNL     1      -2.099   7.709  23.415  1.00  0.00     0.063 C 
HETATM   23  N4  UNL     1      -2.397   7.298  24.707  1.00  0.00    -0.373 N 
HETATM   24  C24 UNL     1      -2.379   5.905  25.009  1.00  0.00     0.127 C 
HETATM   25  C25 UNL     1      -2.427   5.069  23.724  1.00  0.00     0.027 C 
BRANCH  23  26
HETATM   26  C17 UNL     1      -2.557   8.149  25.791  1.00  0.00     0.067 C 
BRANCH  26  27
HETATM   27  C18 UNL     1      -1.831   7.855  27.078  1.00  0.00     0.024 C 
HETATM   28  C19 UNL     1      -0.889   9.032  27.297  1.00  0.00     0.010 C 
HETATM   29  C20 UNL     1      -0.335   9.106  28.683  1.00  0.00     0.001 C 
HETATM   30  C21 UNL     1      -1.499   9.150  29.666  1.00  0.00     0.000 C 
HETATM   31  C22 UNL     1      -2.145   7.761  29.561  1.00  0.00     0.001 C 
HETATM   32  C23 UNL     1      -2.822   7.750  28.201  1.00  0.00     0.010 C 
ENDBRANCH  26  27
ENDBRANCH  23  26
ENDBRANCH  19  20
ENDBRANCH   1  19
TORSDOF 10
ENDMDL
MODEL 3
REMARK VINA RESULT: -6.328561059      4.391     10.273
REMARK  10 active torsions:
REMARK  status: ('A' for Active; 'I' for Inactive)
REMARK    1  A    between atoms: C2_2  and  N1_3 
REMARK    2  A    between atoms: N1_3  and  C3_5 
REMARK    3  A    between atoms: C3_5  and  N2_7 
REMARK    4  A    between atoms: N2_7  and  C4_8 
REMARK    5  A    between atoms: N2_7  and  C13_19 
REMARK    6  A    between atoms: C4_8  and  C5_9 
REMARK    7  A    between atoms: C5_9  and  C6_10 
REMARK    8  A    between atoms: C13_19  and  C14_20 
REMARK    9  A    between atoms: N4_23  and  C17_24 
REMARK   10  A    between atoms: C17_24  and  C18_25 
ROOT
HETATM    1  N2  UNL     1       2.018   1.738  16.747  1.00  0.00    -0.358 N 
ENDROOT
BRANCH   1   2
HETATM    2  C3  UNL     1       3.403   1.692  17.189  1.00  0.00     0.169 C 
HETATM    3  S1  UNL     1       4.207   3.133  17.356  1.00  0.00    -0.041 SA
BRANCH   2   4
HETATM    4  N1  UNL     1       4.113   0.542  17.519  1.00  0.00    -0.367 N 
ATOM      5  H1  UNL     1       3.950  -0.320  16.999  1.00  0.00     0.161 HD
BRANCH   4   6
HETATM    6  C2  UNL     1       5.083   0.563  18.596  1.00  0.00     0.117 C 
HETATM    7  C1  UNL     1       4.388   0.554  19.960  1.00  0.00     0.026 C 
ENDBRANCH   4   6
ENDBRANCH   2   4
ENDBRANCH   1   2
BRANCH   1   8
HETATM    8  C4  UNL     1       1.746   2.429  15.536  1.00  0.00     0.130 C 
BRANCH   8   9
HETATM    9  C5  UNL     1       1.008   1.765  14.443  1.00  0.00     0.060 C 
BRANCH   9  10
HETATM   10  C6  UNL     1       1.950   1.748  13.248  1.00  0.00    -0.033 A 
HETATM   11  C7  UNL     1       3.139   2.419  13.103  1.00  0.00     0.096 A 
HETATM   12  N3  UNL     1       3.643   2.121  11.886  1.00  0.00    -0.368 N 
HETATM   13  C8  UNL     1       2.816   1.279  11.241  1.00  0.00     0.015 A 
ATOM     14  H3  UNL     1       4.520   2.481  11.511  1.00  0.00     0.165 HD
HETATM   15  C9  UNL     1       1.759   1.043  12.083  1.00  0.00    -0.028 A 
HETATM   16  C12 UNL     1       2.611   0.510   9.959  1.00  0.00     0.058 C 
HETATM   17  C10 UNL     1       0.814   0.100  11.403  1.00  0.00     0.041 C 
HETATM   18  C11 UNL     1       1.090   0.380   9.945  1.00  0.00     0.011 C 
ENDBRANCH   9  10
ENDBRANCH   8   9
ENDBRANCH   1   8
BRANCH   1  19
HETATM   19  C13 UNL     1       0.999   1.094  17.518  1.00  0.00     0.130 C 
BRANCH  19  20
HETATM   20  C14 UNL     1       0.972   1.242  18.995  1.00  0.00     0.010 C 
HETATM   21  C15 UNL     1       0.977   2.724  19.386  1.00  0.00     0.051 C 
HETATM   22  C16 UNL     1      -0.259   3.171  20.109  1.00  0.00     0.063 C 
HETATM   23  N4  UNL     1      -0.582   2.351  21.181  1.00  0.00    -0.373 N 
HETATM   24  C24 UNL     1      -0.379   0.946  21.060  1.00  0.00     0.127 C 
HETATM   25  C25 UNL     1      -0.211   0.544  19.589  1.00  0.00     0.027 C 
BRANCH  23  26
HETATM   26  C17 UNL     1      -0.944   2.803  22.442  1.00  0.00     0.067 C 
BRANCH  26  27
HETATM   27  C18 UNL     1      -1.636   4.134  22.582  1.00  0.00     0.024 C 
HETATM   28  C19 UNL     1      -3.123   3.842  22.434  1.00  0.00     0.010 C 
HETATM   29  C20 UNL     1      -4.001   4.964  22.884  1.00  0.00     0.001 C 
HETATM   30  C21 UNL     1      -3.653   5.299  24.330  1.00  0.00     0.000 C 
HETATM   31  C22 UNL     1      -2.240   5.894  24.258  1.00  0.00     0.001 C 
HETATM   32  C23 UNL     1      -1.339   4.714  23.935  1.00  0.00     0.010 C 
ENDBRANCH  26  27
ENDBRANCH  23  26
ENDBRANCH  19  20
ENDBRANCH   1  19
TORSDOF 10
ENDMDL
MODEL 4
REMARK VINA RESULT: -6.325954400      1.820      2.532
REMARK  10 active torsions:
REMARK  status: ('A' for Active; 'I' for Inactive)
REMARK    1  A    between atoms: C2_2  and  N1_3 
REMARK    2  A    between atoms: N1_3  and  C3_5 
REMARK    3  A    between atoms: C3_5  and  N2_7 
REMARK    4  A    between atoms: N2_7  and  C4_8 
REMARK    5  A    between atoms: N2_7  and  C13_19 
REMARK    6  A    between atoms: C4_8  and  C5_9 
REMARK    7  A    between atoms: C5_9  and  C6_10 
REMARK    8  A    between atoms: C13_19  and  C14_20 
REMARK    9  A    between atoms: N4_23  and  C17_24 
REMARK   10  A    between atoms: C17_24  and  C18_25 
ROOT
HETATM    1  N2  UNL     1      -4.607   3.421  21.307  1.00  0.00    -0.358 N 
ENDROOT
BRANCH   1   2
HETATM    2  C3  UNL     1      -5.394   4.281  20.438  1.00  0.00     0.169 C 
HETATM    3  S1  UNL     1      -7.029   4.010  20.359  1.00  0.00    -0.041 SA
BRANCH   2   4
HETATM    4  N1  UNL     1      -4.904   5.341  19.683  1.00  0.00    -0.367 N 
ATOM      5  H1  UNL     1      -4.969   6.293  20.044  1.00  0.00     0.161 HD
BRANCH   4   6
HETATM    6  C2  UNL     1      -4.300   5.101  18.387  1.00  0.00     0.117 C 
HETATM    7  C1  UNL     1      -2.786   5.315  18.439  1.00  0.00     0.026 C 
ENDBRANCH   4   6
ENDBRANCH   2   4
ENDBRANCH   1   2
BRANCH   1   8
HETATM    8  C4  UNL     1      -4.714   3.640  22.707  1.00  0.00     0.130 C 
BRANCH   8   9
HETATM    9  C5  UNL     1      -4.657   5.008  23.258  1.00  0.00     0.060 C 
BRANCH   9  10
HETATM   10  C6  UNL     1      -3.180   5.345  23.396  1.00  0.00    -0.033 A 
HETATM   11  C7  UNL     1      -2.267   4.795  24.261  1.00  0.00     0.096 A 
HETATM   12  N3  UNL     1      -1.074   5.391  24.047  1.00  0.00    -0.368 N 
HETATM   13  C8  UNL     1      -1.188   6.308  23.071  1.00  0.00     0.015 A 
ATOM     14  H3  UNL     1      -0.214   5.176  24.551  1.00  0.00     0.165 HD
HETATM   15  C9  UNL     1      -2.497   6.286  22.661  1.00  0.00    -0.028 A 
HETATM   16  C12 UNL     1      -0.434   7.341  22.270  1.00  0.00     0.058 C 
HETATM   17  C10 UNL     1      -2.667   7.293  21.565  1.00  0.00     0.041 C 
HETATM   18  C11 UNL     1      -1.570   8.283  21.879  1.00  0.00     0.011 C 
ENDBRANCH   9  10
ENDBRANCH   8   9
ENDBRANCH   1   8
BRANCH   1  19
HETATM   19  C13 UNL     1      -3.780   2.399  20.744  1.00  0.00     0.130 C 
BRANCH  19  20
HETATM   20  C14 UNL     1      -2.492   2.039  21.387  1.00  0.00     0.010 C 
HETATM   21  C15 UNL     1      -2.027   0.655  20.922  1.00  0.00     0.051 C 
HETATM   22  C16 UNL     1      -0.737   0.666  20.158  1.00  0.00     0.063 C 
HETATM   23  N4  UNL     1       0.271   1.359  20.813  1.00  0.00    -0.373 N 
HETATM   24  C24 UNL     1      -0.062   2.543  21.533  1.00  0.00     0.127 C 
HETATM   25  C25 UNL     1      -1.440   3.068  21.111  1.00  0.00     0.027 C 
BRANCH  23  26
HETATM   26  C17 UNL     1       1.573   0.906  20.964  1.00  0.00     0.067 C 
BRANCH  26  27
HETATM   27  C18 UNL     1       2.511   0.937  19.785  1.00  0.00     0.024 C 
HETATM   28  C19 UNL     1       2.517   2.381  19.301  1.00  0.00     0.010 C 
HETATM   29  C20 UNL     1       3.640   2.694  18.366  1.00  0.00     0.001 C 
HETATM   30  C21 UNL     1       4.954   2.345  19.056  1.00  0.00     0.000 C 
HETATM   31  C22 UNL     1       4.935   0.814  19.168  1.00  0.00     0.001 C 
HETATM   32  C23 UNL     1       3.884   0.515  20.224  1.00  0.00     0.010 C 
ENDBRANCH  26  27
ENDBRANCH  23  26
ENDBRANCH  19  20
ENDBRANCH   1  19
TORSDOF 10
ENDMDL
MODEL 5
REMARK VINA RESULT: -6.266976839      1.973      4.774
REMARK  10 active torsions:
REMARK  status: ('A' for Active; 'I' for Inactive)
REMARK    1  A    between atoms: C2_2  and  N1_3 
REMARK    2  A    between atoms: N1_3  and  C3_5 
REMARK    3  A    between atoms: C3_5  and  N2_7 
REMARK    4  A    between atoms: N2_7  and  C4_8 
REMARK    5  A    between atoms: N2_7  and  C13_19 
REMARK    6  A    between atoms: C4_8  and  C5_9 
REMARK    7  A    between atoms: C5_9  and  C6_10 
REMARK    8  A    between atoms: C13_19  and  C14_20 
REMARK    9  A    between atoms: N4_23  and  C17_24 
REMARK   10  A    between atoms: C17_24  and  C18_25 
ROOT
HETATM    1  N2  UNL     1      -3.004   5.722  23.874  1.00  0.00    -0.358 N 
ENDROOT
BRANCH   1   2
HETATM    2  C3  UNL     1      -2.841   6.819  24.816  1.00  0.00     0.169 C 
HETATM    3  S1  UNL     1      -3.082   8.360  24.252  1.00  0.00    -0.041 SA
BRANCH   2   4
HETATM    4  N1  UNL     1      -2.530   6.692  26.165  1.00  0.00    -0.367 N 
ATOM      5  H1  UNL     1      -2.566   5.775  26.609  1.00  0.00     0.161 HD
BRANCH   4   6
HETATM    6  C2  UNL     1      -2.155   7.856  26.944  1.00  0.00     0.117 C 
HETATM    7  C1  UNL     1      -2.620   7.719  28.395  1.00  0.00     0.026 C 
ENDBRANCH   4   6
ENDBRANCH   2   4
ENDBRANCH   1   2
BRANCH   1   8
HETATM    8  C4  UNL     1      -4.043   4.789  24.138  1.00  0.00     0.130 C 
BRANCH   8   9
HETATM    9  C5  UNL     1      -5.351   4.913  23.466  1.00  0.00     0.060 C 
BRANCH   9  10
HETATM   10  C6  UNL     1      -5.250   4.086  22.192  1.00  0.00    -0.033 A 
HETATM   11  C7  UNL     1      -5.118   2.724  22.080  1.00  0.00     0.096 A 
HETATM   12  N3  UNL     1      -5.061   2.416  20.767  1.00  0.00    -0.368 N 
HETATM   13  C8  UNL     1      -5.152   3.535  20.027  1.00  0.00     0.015 A 
ATOM     14  H3  UNL     1      -4.963   1.472  20.391  1.00  0.00     0.165 HD
HETATM   15  C9  UNL     1      -5.269   4.580  20.908  1.00  0.00    -0.028 A 
HETATM   16  C12 UNL     1      -5.170   4.070  18.617  1.00  0.00     0.058 C 
HETATM   17  C10 UNL     1      -5.381   5.851  20.123  1.00  0.00     0.041 C 
HETATM   18  C11 UNL     1      -4.661   5.491  18.845  1.00  0.00     0.011 C 
ENDBRANCH   9  10
ENDBRANCH   8   9
ENDBRANCH   1   8
BRANCH   1  19
HETATM   19  C13 UNL     1      -2.144   5.623  22.735  1.00  0.00     0.130 C 
BRANCH  19  20
HETATM   20  C14 UNL     1      -1.806   4.295  22.166  1.00  0.00     0.010 C 
HETATM   21  C15 UNL     1      -1.539   4.408  20.661  1.00  0.00     0.051 C 
HETATM   22  C16 UNL     1      -0.137   4.060  20.258  1.00  0.00     0.063 C 
HETATM   23  N4  UNL     1       0.283   2.839  20.770  1.00  0.00    -0.373 N 
HETATM   24  C24 UNL     1      -0.122   2.467  22.085  1.00  0.00     0.127 C 
HETATM   25  C25 UNL     1      -0.630   3.687  22.864  1.00  0.00     0.027 C 
BRANCH  23  26
HETATM   26  C17 UNL     1       0.943   1.861  20.041  1.00  0.00     0.067 C 
BRANCH  26  27
HETATM   27  C18 UNL     1       2.398   2.049  19.696  1.00  0.00     0.024 C 
HETATM   28  C19 UNL     1       3.087   0.752  20.100  1.00  0.00     0.010 C 
HETATM   29  C20 UNL     1       4.459   0.600  19.527  1.00  0.00     0.001 C 
HETATM   30  C21 UNL     1       4.363   0.716  18.010  1.00  0.00     0.000 C 
HETATM   31  C22 UNL     1       3.980   2.181  17.760  1.00  0.00     0.001 C 
HETATM   32  C23 UNL     1       2.536   2.288  18.220  1.00  0.00     0.010 C 
ENDBRANCH  26  27
ENDBRANCH  23  26
ENDBRANCH  19  20
ENDBRANCH   1  19
TORSDOF 10
ENDMDL
