MODEL 1
REMARK VINA RESULT: -6.347949068      0.000      0.000
REMARK  7 active torsions:
REMARK  status: ('A' for Active; 'I' for Inactive)
REMARK    1  A    between atoms: C2_2  and  C3_3 
REMARK    2  A    between atoms: C2_2  and  C6_19 
REMARK       I    between atoms: N1_4  and  C4_6 
REMARK       I    between atoms: C4_6  and  N2_7 
REMARK    3  A    between atoms: N2_7  and  N3_9 
REMARK    4  A    between atoms: N3_9  and  N4_10 
REMARK    5  A    between atoms: N5_13  and  N6_15 
REMARK    6  A    between atoms: C6_19  and  C7_20 
REMARK    7  A    between atoms: C7_20  and  C8_21 
ROOT
HETATM    1  N6  UNL     1      65.947  38.083  19.086  1.00  0.00    -0.222 N 
ATOM      2  H6  UNL     1      66.300  37.336  18.488  1.00  0.00     0.200 HD
HETATM    3  C5  UNL     1      65.466  39.259  18.525  1.00  0.00     0.198 C 
HETATM    4  N7  UNL     1      65.056  40.241  18.036  1.00  0.00    -0.170 NA
ENDROOT
BRANCH   1   5
HETATM    5  N5  UNL     1      65.944  37.931  20.459  1.00  0.00    -0.121 N 
HETATM    6  C4  UNL     1      66.965  38.043  21.213  1.00  0.00     0.723 C 
HETATM    7  N1  UNL     1      66.913  37.878  22.613  1.00  0.00    -0.198 N 
HETATM    8  N2  UNL     1      68.220  38.347  20.627  1.00  0.00    -0.044 N 
HETATM    9  C3  UNL     1      65.999  37.175  23.205  1.00  0.00     0.112 C 
ATOM     10  H1  UNL     1      67.625  38.332  23.184  1.00  0.00     0.183 HD
ATOM     11  H2  UNL     1      68.613  37.769  19.885  1.00  0.00     0.223 HD
ATOM     12  H5  UNL     1      65.053  37.711  20.904  1.00  0.00     0.206 HD
BRANCH   9  13
HETATM   13  C2  UNL     1      65.973  37.024  24.661  1.00  0.00    -0.051 C 
HETATM   14  C1  UNL     1      65.304  37.927  25.356  1.00  0.00     0.020 C 
BRANCH  13  15
HETATM   15  C6  UNL     1      66.672  35.897  25.337  1.00  0.00     0.039 C 
BRANCH  15  16
HETATM   16  C7  UNL     1      65.779  35.319  26.406  1.00  0.00     0.009 C 
BRANCH  16  17
HETATM   17  C8  UNL     1      64.835  34.287  25.891  1.00  0.00    -0.014 A 
HETATM   18  C9  UNL     1      63.374  34.568  25.783  1.00  0.00     0.005 A 
HETATM   19  C10 UNL     1      63.840  33.745  26.918  1.00  0.00     0.005 A 
ENDBRANCH  16  17
ENDBRANCH  15  16
ENDBRANCH  13  15
ENDBRANCH   9  13
BRANCH   8  20
HETATM   20  N3  UNL     1      68.823  39.344  21.054  1.00  0.00    -0.229 NA
BRANCH  20  21
HETATM   21  N4  UNL     1      69.349  40.227  21.747  1.00  0.00    -0.260 N 
ATOM     22  H42 UNL     1      70.277  40.021  21.379  1.00  0.00     0.193 HD
ATOM     23  H41 UNL     1      69.550  40.990  22.395  1.00  0.00     0.193 HD
ENDBRANCH  20  21
ENDBRANCH   8  20
ENDBRANCH   1   5
TORSDOF 7
ENDMDL
MODEL 2
REMARK VINA RESULT: -6.344287577      2.013      2.778
REMARK  7 active torsions:
REMARK  status: ('A' for Active; 'I' for Inactive)
REMARK    1  A    between atoms: C2_2  and  C3_3 
REMARK    2  A    between atoms: C2_2  and  C6_19 
REMARK       I    between atoms: N1_4  and  C4_6 
REMARK       I    between atoms: C4_6  and  N2_7 
REMARK    3  A    between atoms: N2_7  and  N3_9 
REMARK    4  A    between atoms: N3_9  and  N4_10 
REMARK    5  A    between atoms: N5_13  and  N6_15 
REMARK    6  A    between atoms: C6_19  and  C7_20 
REMARK    7  A    between atoms: C7_20  and  C8_21 
ROOT
HETATM    1  N6  UNL     1      65.983  37.786  20.627  1.00  0.00    -0.222 N 
ATOM      2  H6  UNL     1      66.256  37.216  19.826  1.00  0.00     0.200 HD
HETATM    3  C5  UNL     1      65.967  39.171  20.526  1.00  0.00     0.198 C 
HETATM    4  N7  UNL     1      65.950  40.337  20.422  1.00  0.00    -0.170 NA
ENDROOT
BRANCH   1   5
HETATM    5  N5  UNL     1      65.626  37.184  21.817  1.00  0.00    -0.121 N 
HETATM    6  C4  UNL     1      66.332  37.177  22.878  1.00  0.00     0.723 C 
HETATM    7  N1  UNL     1      65.925  36.548  24.073  1.00  0.00    -0.198 N 
HETATM    8  N2  UNL     1      67.591  37.831  22.869  1.00  0.00    -0.044 N 
HETATM    9  C3  UNL     1      65.077  35.568  24.098  1.00  0.00     0.112 C 
ATOM     10  H1  UNL     1      66.315  36.878  24.955  1.00  0.00     0.183 HD
ATOM     11  H2  UNL     1      68.305  37.595  22.180  1.00  0.00     0.223 HD
ATOM     12  H5  UNL     1      64.726  36.706  21.850  1.00  0.00     0.206 HD
BRANCH   9  13
HETATM   13  C2  UNL     1      64.675  34.935  25.356  1.00  0.00    -0.051 C 
HETATM   14  C1  UNL     1      63.387  34.701  25.536  1.00  0.00     0.020 C 
BRANCH  13  15
HETATM   15  C6  UNL     1      65.676  34.569  26.395  1.00  0.00     0.039 C 
BRANCH  15  16
HETATM   16  C7  UNL     1      65.331  33.217  26.971  1.00  0.00     0.009 C 
BRANCH  16  17
HETATM   17  C8  UNL     1      66.529  32.391  27.290  1.00  0.00    -0.014 A 
HETATM   18  C9  UNL     1      67.683  32.313  26.347  1.00  0.00     0.005 A 
HETATM   19  C10 UNL     1      66.739  31.175  26.386  1.00  0.00     0.005 A 
ENDBRANCH  16  17
ENDBRANCH  15  16
ENDBRANCH  13  15
ENDBRANCH   9  13
BRANCH   8  20
HETATM   20  N3  UNL     1      67.789  38.701  23.730  1.00  0.00    -0.229 NA
BRANCH  20  21
HETATM   21  N4  UNL     1      68.164  39.360  24.711  1.00  0.00    -0.260 N 
ATOM     22  H42 UNL     1      69.053  38.862  24.758  1.00  0.00     0.193 HD
ATOM     23  H41 UNL     1      68.253  40.011  25.492  1.00  0.00     0.193 HD
ENDBRANCH  20  21
ENDBRANCH   8  20
ENDBRANCH   1   5
TORSDOF 7
ENDMDL
MODEL 3
REMARK VINA RESULT: -6.315562271      3.185      4.811
REMARK  7 active torsions:
REMARK  status: ('A' for Active; 'I' for Inactive)
REMARK    1  A    between atoms: C2_2  and  C3_3 
REMARK    2  A    between atoms: C2_2  and  C6_19 
REMARK       I    between atoms: N1_4  and  C4_6 
REMARK       I    between atoms: C4_6  and  N2_7 
REMARK    3  A    between atoms: N2_7  and  N3_9 
REMARK    4  A    between atoms: N3_9  and  N4_10 
REMARK    5  A    between atoms: N5_13  and  N6_15 
REMARK    6  A    between atoms: C6_19  and  C7_20 
REMARK    7  A    between atoms: C7_20  and  C8_21 
ROOT
HETATM    1  N6  UNL     1      64.887  38.170  24.546  1.00  0.00    -0.222 N 
ATOM      2  H6  UNL     1      64.128  38.668  25.011  1.00  0.00     0.200 HD
HETATM    3  C5  UNL     1      65.323  38.575  23.291  1.00  0.00     0.198 C 
HETATM    4  N7  UNL     1      65.684  38.934  22.237  1.00  0.00    -0.170 NA
ENDROOT
BRANCH   1   5
HETATM    5  N5  UNL     1      65.489  37.090  25.162  1.00  0.00    -0.121 N 
HETATM    6  C4  UNL     1      66.356  37.163  26.092  1.00  0.00     0.723 C 
HETATM    7  N1  UNL     1      66.943  36.029  26.692  1.00  0.00    -0.198 N 
HETATM    8  N2  UNL     1      66.759  38.442  26.555  1.00  0.00    -0.044 N 
HETATM    9  C3  UNL     1      67.030  34.883  26.094  1.00  0.00     0.112 C 
ATOM     10  H1  UNL     1      67.317  36.116  27.637  1.00  0.00     0.183 HD
ATOM     11  H2  UNL     1      67.128  39.145  25.915  1.00  0.00     0.223 HD
ATOM     12  H5  UNL     1      65.216  36.159  24.847  1.00  0.00     0.206 HD
BRANCH   9  13
HETATM   13  C2  UNL     1      67.645  33.725  26.744  1.00  0.00    -0.051 C 
HETATM   14  C1  UNL     1      68.819  33.904  27.325  1.00  0.00     0.020 C 
BRANCH  13  15
HETATM   15  C6  UNL     1      66.979  32.394  26.752  1.00  0.00     0.039 C 
BRANCH  15  16
HETATM   16  C7  UNL     1      65.990  32.332  27.890  1.00  0.00     0.009 C 
BRANCH  16  17
HETATM   17  C8  UNL     1      64.572  32.288  27.437  1.00  0.00    -0.014 A 
HETATM   18  C9  UNL     1      63.760  33.535  27.329  1.00  0.00     0.005 A 
HETATM   19  C10 UNL     1      63.537  32.661  28.500  1.00  0.00     0.005 A 
ENDBRANCH  16  17
ENDBRANCH  15  16
ENDBRANCH  13  15
ENDBRANCH   9  13
BRANCH   8  20
HETATM   20  N3  UNL     1      66.647  38.672  27.769  1.00  0.00    -0.229 NA
BRANCH  20  21
HETATM   21  N4  UNL     1      66.749  39.104  28.926  1.00  0.00    -0.260 N 
ATOM     22  H42 UNL     1      66.329  39.999  28.673  1.00  0.00     0.193 HD
ATOM     23  H41 UNL     1      66.932  39.239  29.921  1.00  0.00     0.193 HD
ENDBRANCH  20  21
ENDBRANCH   8  20
ENDBRANCH   1   5
TORSDOF 7
ENDMDL
MODEL 4
REMARK VINA RESULT: -6.304349566      3.845      5.603
REMARK  7 active torsions:
REMARK  status: ('A' for Active; 'I' for Inactive)
REMARK    1  A    between atoms: C2_2  and  C3_3 
REMARK    2  A    between atoms: C2_2  and  C6_19 
REMARK       I    between atoms: N1_4  and  C4_6 
REMARK       I    between atoms: C4_6  and  N2_7 
REMARK    3  A    between atoms: N2_7  and  N3_9 
REMARK    4  A    between atoms: N3_9  and  N4_10 
REMARK    5  A    between atoms: N5_13  and  N6_15 
REMARK    6  A    between atoms: C6_19  and  C7_20 
REMARK    7  A    between atoms: C7_20  and  C8_21 
ROOT
HETATM    1  N6  UNL     1      67.847  37.384  24.417  1.00  0.00    -0.222 N 
ATOM      2  H6  UNL     1      67.889  37.519  23.407  1.00  0.00     0.200 HD
HETATM    3  C5  UNL     1      68.102  38.446  25.275  1.00  0.00     0.198 C 
HETATM    4  N7  UNL     1      68.311  39.354  25.985  1.00  0.00    -0.170 NA
ENDROOT
BRANCH   1   5
HETATM    5  N5  UNL     1      67.537  36.144  24.940  1.00  0.00    -0.121 N 
HETATM    6  C4  UNL     1      66.369  35.636  24.983  1.00  0.00     0.723 C 
HETATM    7  N1  UNL     1      66.101  34.362  25.528  1.00  0.00    -0.198 N 
HETATM    8  N2  UNL     1      65.278  36.378  24.463  1.00  0.00    -0.044 N 
HETATM    9  C3  UNL     1      66.862  33.802  26.414  1.00  0.00     0.112 C 
ATOM     10  H1  UNL     1      65.271  33.861  25.210  1.00  0.00     0.183 HD
ATOM     11  H2  UNL     1      65.073  37.320  24.793  1.00  0.00     0.223 HD
ATOM     12  H5  UNL     1      68.304  35.591  25.321  1.00  0.00     0.206 HD
BRANCH   9  13
HETATM   13  C2  UNL     1      66.555  32.478  26.960  1.00  0.00    -0.051 C 
HETATM   14  C1  UNL     1      67.092  31.431  26.358  1.00  0.00     0.020 C 
BRANCH  13  15
HETATM   15  C6  UNL     1      65.672  32.314  28.147  1.00  0.00     0.039 C 
BRANCH  15  16
HETATM   16  C7  UNL     1      64.230  32.455  27.725  1.00  0.00     0.009 C 
BRANCH  16  17
HETATM   17  C8  UNL     1      63.274  32.392  28.866  1.00  0.00    -0.014 A 
HETATM   18  C9  UNL     1      63.277  31.234  29.807  1.00  0.00     0.005 A 
HETATM   19  C10 UNL     1      62.222  31.285  28.772  1.00  0.00     0.005 A 
ENDBRANCH  16  17
ENDBRANCH  15  16
ENDBRANCH  13  15
ENDBRANCH   9  13
BRANCH   8  20
HETATM   20  N3  UNL     1      64.584  35.836  23.589  1.00  0.00    -0.229 NA
BRANCH  20  21
HETATM   21  N4  UNL     1      63.799  35.123  22.946  1.00  0.00    -0.260 N 
ATOM     22  H42 UNL     1      63.177  35.013  23.747  1.00  0.00     0.193 HD
ATOM     23  H41 UNL     1      63.315  34.574  22.235  1.00  0.00     0.193 HD
ENDBRANCH  20  21
ENDBRANCH   8  20
ENDBRANCH   1   5
TORSDOF 7
ENDMDL
MODEL 5
REMARK VINA RESULT: -6.281764557      6.068      8.971
REMARK  7 active torsions:
REMARK  status: ('A' for Active; 'I' for Inactive)
REMARK    1  A    between atoms: C2_2  and  C3_3 
REMARK    2  A    between atoms: C2_2  and  C6_19 
REMARK       I    between atoms: N1_4  and  C4_6 
REMARK       I    between atoms: C4_6  and  N2_7 
REMARK    3  A    between atoms: N2_7  and  N3_9 
REMARK    4  A    between atoms: N3_9  and  N4_10 
REMARK    5  A    between atoms: N5_13  and  N6_15 
REMARK    6  A    between atoms: C6_19  and  C7_20 
REMARK    7  A    between atoms: C7_20  and  C8_21 
ROOT
HETATM    1  N6  UNL     1      68.724  37.810  28.711  1.00  0.00    -0.222 N 
ATOM      2  H6  UNL     1      67.751  37.536  28.576  1.00  0.00     0.200 HD
HETATM    3  C5  UNL     1      69.537  37.097  29.582  1.00  0.00     0.198 C 
HETATM    4  N7  UNL     1      70.212  36.480  30.313  1.00  0.00    -0.170 NA
ENDROOT
BRANCH   1   5
HETATM    5  N5  UNL     1      69.241  38.893  28.027  1.00  0.00    -0.121 N 
HETATM    6  C4  UNL     1      69.375  38.968  26.762  1.00  0.00     0.723 C 
HETATM    7  N1  UNL     1      69.909  40.098  26.107  1.00  0.00    -0.198 N 
HETATM    8  N2  UNL     1      68.972  37.868  25.963  1.00  0.00    -0.044 N 
HETATM    9  C3  UNL     1      70.710  40.934  26.689  1.00  0.00     0.112 C 
ATOM     10  H1  UNL     1      69.654  40.263  25.134  1.00  0.00     0.183 HD
ATOM     11  H2  UNL     1      69.343  36.931  26.125  1.00  0.00     0.223 HD
ATOM     12  H5  UNL     1      69.539  39.697  28.579  1.00  0.00     0.206 HD
BRANCH   9  13
HETATM   13  C2  UNL     1      71.248  42.098  25.981  1.00  0.00    -0.051 C 
HETATM   14  C1  UNL     1      72.505  42.039  25.577  1.00  0.00     0.020 C 
BRANCH  13  15
HETATM   15  C6  UNL     1      70.414  43.304  25.725  1.00  0.00     0.039 C 
BRANCH  15  16
HETATM   16  C7  UNL     1      70.765  43.881  24.376  1.00  0.00     0.009 C 
BRANCH  16  17
HETATM   17  C8  UNL     1      69.827  43.466  23.296  1.00  0.00    -0.014 A 
HETATM   18  C9  UNL     1      70.108  42.269  22.451  1.00  0.00     0.005 A 
HETATM   19  C10 UNL     1      70.372  43.604  21.873  1.00  0.00     0.005 A 
ENDBRANCH  16  17
ENDBRANCH  15  16
ENDBRANCH  13  15
ENDBRANCH   9  13
BRANCH   8  20
HETATM   20  N3  UNL     1      68.151  38.088  25.060  1.00  0.00    -0.229 NA
BRANCH  20  21
HETATM   21  N4  UNL     1      67.575  38.306  23.984  1.00  0.00    -0.260 N 
ATOM     22  H42 UNL     1      68.440  38.602  23.533  1.00  0.00     0.193 HD
ATOM     23  H41 UNL     1      66.902  38.410  23.224  1.00  0.00     0.193 HD
ENDBRANCH  20  21
ENDBRANCH   8  20
ENDBRANCH   1   5
TORSDOF 7
ENDMDL
