MODEL 1
REMARK VINA RESULT: -4.942261761      0.000      0.000
REMARK  2 active torsions:
REMARK  status: ('A' for Active; 'I' for Inactive)
REMARK    1  A    between atoms: S1_2  and  C2_3 
REMARK    2  A    between atoms: C2_3  and  C3_4 
ROOT
HETATM    1  C3  UNL     1       7.309  -2.718   9.226  1.00  0.00     0.043 C 
HETATM    2 CL1  UNL     1       7.632  -2.735  10.938  1.00  0.00    -0.086 Cl
HETATM    3  C4  UNL     1       7.962  -3.517   8.441  1.00  0.00     0.094 C 
HETATM    4  S2  UNL     1       7.719  -3.596   6.642  1.00  0.00    -0.054 SA
HETATM    5  C5  UNL     1       9.245  -4.452   6.313  1.00  0.00     0.146 C 
HETATM    6  S3  UNL     1       9.947  -4.545   4.871  1.00  0.00    -0.052 SA
HETATM    7  N1  UNL     1       9.654  -4.989   7.550  1.00  0.00    -0.307 N 
ATOM      8  H1  UNL     1      10.392  -5.690   7.617  1.00  0.00     0.170 HD
HETATM    9  C6  UNL     1       8.988  -4.506   8.678  1.00  0.00     0.265 C 
HETATM   10  O1  UNL     1       9.278  -4.927   9.860  1.00  0.00    -0.267 OA
ENDROOT
BRANCH   1  11
HETATM   11  C2  UNL     1       6.295  -1.794   8.673  1.00  0.00     0.126 C 
BRANCH  11  12
HETATM   12  S1  UNL     1       6.611  -0.065   9.010  1.00  0.00    -0.168 SA
HETATM   13  C1  UNL     1       5.800   1.003   7.811  1.00  0.00     0.090 C 
ENDBRANCH  11  12
ENDBRANCH   1  11
TORSDOF 2
ENDMDL
MODEL 2
REMARK VINA RESULT: -4.708288711      3.763      5.093
REMARK  2 active torsions:
REMARK  status: ('A' for Active; 'I' for Inactive)
REMARK    1  A    between atoms: S1_2  and  C2_3 
REMARK    2  A    between atoms: C2_3  and  C3_4 
ROOT
HETATM    1  C3  UNL     1       7.098  -3.500   8.465  1.00  0.00     0.043 C 
HETATM    2 CL1  UNL     1       6.822  -4.760   7.294  1.00  0.00    -0.086 Cl
HETATM    3  C4  UNL     1       6.494  -2.360   8.337  1.00  0.00     0.094 C 
HETATM    4  S2  UNL     1       6.697  -0.968   9.487  1.00  0.00    -0.054 SA
HETATM    5  C5  UNL     1       6.029   0.254   8.378  1.00  0.00     0.146 C 
HETATM    6  S3  UNL     1       6.231   1.839   8.538  1.00  0.00    -0.052 SA
HETATM    7  N1  UNL     1       5.326  -0.470   7.393  1.00  0.00    -0.307 N 
ATOM      8  H1  UNL     1       4.684  -0.016   6.744  1.00  0.00     0.170 HD
HETATM    9  C6  UNL     1       5.562  -1.846   7.360  1.00  0.00     0.265 C 
HETATM   10  O1  UNL     1       4.974  -2.606   6.502  1.00  0.00    -0.267 OA
ENDROOT
BRANCH   1  11
HETATM   11  C2  UNL     1       8.020  -3.732   9.598  1.00  0.00     0.126 C 
BRANCH  11  12
HETATM   12  S1  UNL     1       7.280  -4.585  10.987  1.00  0.00    -0.168 SA
HETATM   13  C1  UNL     1       6.749  -3.434  12.264  1.00  0.00     0.090 C 
ENDBRANCH  11  12
ENDBRANCH   1  11
TORSDOF 2
ENDMDL
MODEL 3
REMARK VINA RESULT: -4.694233716      3.438      4.719
REMARK  2 active torsions:
REMARK  status: ('A' for Active; 'I' for Inactive)
REMARK    1  A    between atoms: S1_2  and  C2_3 
REMARK    2  A    between atoms: C2_3  and  C3_4 
ROOT
HETATM    1  C3  UNL     1       7.014  -2.022   9.331  1.00  0.00     0.043 C 
HETATM    2 CL1  UNL     1       7.447  -3.017   7.968  1.00  0.00    -0.086 Cl
HETATM    3  C4  UNL     1       6.984  -2.538  10.520  1.00  0.00     0.094 C 
HETATM    4  S2  UNL     1       6.547  -1.609  12.019  1.00  0.00    -0.054 SA
HETATM    5  C5  UNL     1       6.238  -3.051  13.016  1.00  0.00     0.146 C 
HETATM    6  S3  UNL     1       5.417  -3.048  14.396  1.00  0.00    -0.052 SA
HETATM    7  N1  UNL     1       6.852  -4.122  12.336  1.00  0.00    -0.307 N 
ATOM      8  H1  UNL     1       6.999  -5.030  12.778  1.00  0.00     0.170 HD
HETATM    9  C6  UNL     1       7.249  -3.867  11.022  1.00  0.00     0.265 C 
HETATM   10  O1  UNL     1       7.821  -4.772  10.305  1.00  0.00    -0.267 OA
ENDROOT
BRANCH   1  11
HETATM   11  C2  UNL     1       6.681  -0.595   9.129  1.00  0.00     0.126 C 
BRANCH  11  12
HETATM   12  S1  UNL     1       5.635  -0.276   7.711  1.00  0.00    -0.168 SA
HETATM   13  C1  UNL     1       5.632   1.468   7.270  1.00  0.00     0.090 C 
ENDBRANCH  11  12
ENDBRANCH   1  11
TORSDOF 2
ENDMDL
MODEL 4
REMARK VINA RESULT: -4.683037036      3.007      3.741
REMARK  2 active torsions:
REMARK  status: ('A' for Active; 'I' for Inactive)
REMARK    1  A    between atoms: S1_2  and  C2_3 
REMARK    2  A    between atoms: C2_3  and  C3_4 
ROOT
HETATM    1  C3  UNL     1       8.010  -3.731   8.742  1.00  0.00     0.043 C 
HETATM    2 CL1  UNL     1       9.473  -4.661   8.915  1.00  0.00    -0.086 Cl
HETATM    3  C4  UNL     1       7.460  -3.609   7.574  1.00  0.00     0.094 C 
HETATM    4  S2  UNL     1       5.938  -2.668   7.262  1.00  0.00    -0.054 SA
HETATM    5  C5  UNL     1       6.176  -2.561   5.501  1.00  0.00     0.146 C 
HETATM    6  S3  UNL     1       5.421  -1.519   4.539  1.00  0.00    -0.052 SA
HETATM    7  N1  UNL     1       7.128  -3.551   5.184  1.00  0.00    -0.307 N 
ATOM      8  H1  UNL     1       7.306  -3.842   4.223  1.00  0.00     0.170 HD
HETATM    9  C6  UNL     1       7.811  -4.111   6.266  1.00  0.00     0.265 C 
HETATM   10  O1  UNL     1       8.703  -5.025   6.095  1.00  0.00    -0.267 OA
ENDROOT
BRANCH   1  11
HETATM   11  C2  UNL     1       7.402  -3.082   9.924  1.00  0.00     0.126 C 
BRANCH  11  12
HETATM   12  S1  UNL     1       7.073  -4.193  11.287  1.00  0.00    -0.168 SA
HETATM   13  C1  UNL     1       6.489  -3.306  12.739  1.00  0.00     0.090 C 
ENDBRANCH  11  12
ENDBRANCH   1  11
TORSDOF 2
ENDMDL
MODEL 5
REMARK VINA RESULT: -4.670670707      3.013      3.710
REMARK  2 active torsions:
REMARK  status: ('A' for Active; 'I' for Inactive)
REMARK    1  A    between atoms: S1_2  and  C2_3 
REMARK    2  A    between atoms: C2_3  and  C3_4 
ROOT
HETATM    1  C3  UNL     1       5.866   0.375   8.003  1.00  0.00     0.043 C 
HETATM    2 CL1  UNL     1       6.569   1.404   9.221  1.00  0.00    -0.086 Cl
HETATM    3  C4  UNL     1       5.964  -0.913   8.114  1.00  0.00     0.094 C 
HETATM    4  S2  UNL     1       5.276  -2.091   6.915  1.00  0.00    -0.054 SA
HETATM    5  C5  UNL     1       6.248  -3.474   7.475  1.00  0.00     0.146 C 
HETATM    6  S3  UNL     1       6.489  -4.820   6.633  1.00  0.00    -0.052 SA
HETATM    7  N1  UNL     1       6.721  -3.114   8.753  1.00  0.00    -0.307 N 
ATOM      8  H1  UNL     1       7.141  -3.795   9.385  1.00  0.00     0.170 HD
HETATM    9  C6  UNL     1       6.578  -1.770   9.102  1.00  0.00     0.265 C 
HETATM   10  O1  UNL     1       6.974  -1.328  10.246  1.00  0.00    -0.267 OA
ENDROOT
BRANCH   1  11
HETATM   11  C2  UNL     1       5.161   0.972   6.848  1.00  0.00     0.126 C 
BRANCH  11  12
HETATM   12  S1  UNL     1       3.450   1.388   7.162  1.00  0.00    -0.168 SA
HETATM   13  C1  UNL     1       3.185   3.168   7.136  1.00  0.00     0.090 C 
ENDBRANCH  11  12
ENDBRANCH   1  11
TORSDOF 2
ENDMDL
