MODEL 1
REMARK VINA RESULT: -5.880368893      0.000      0.000
REMARK  2 active torsions:
REMARK  status: ('A' for Active; 'I' for Inactive)
REMARK       I    between atoms: C1_2  and  N2_4 
REMARK    1  A    between atoms: N2_4  and  N3_6 
REMARK    2  A    between atoms: N3_6  and  C2_8 
ROOT
HETATM    1  C2  UNL     1      32.741   4.002  42.379  1.00  0.00     0.712 A 
HETATM    2  N4  UNL     1      33.377   3.972  41.199  1.00  0.00    -0.184 N 
ATOM      3  H4  UNL     1      33.548   3.141  40.634  1.00  0.00     0.185 HD
HETATM    4  C3  UNL     1      33.749   5.214  40.892  1.00  0.00     0.215 A 
HETATM    5  N5  UNL     1      33.344   6.040  41.883  1.00  0.00    -0.281 N 
ATOM      6  H5  UNL     1      33.484   7.049  41.928  1.00  0.00     0.188 HD
HETATM    7  N6  UNL     1      32.737   5.297  42.775  1.00  0.00    -0.130 N 
ATOM      8  H6  UNL     1      32.323   5.643  43.640  1.00  0.00     0.205 HD
ENDROOT
BRANCH   1   9
HETATM    9  N3  UNL     1      32.244   2.983  42.986  1.00  0.00    -0.127 N 
ATOM     10  H3  UNL     1      32.784   2.507  43.708  1.00  0.00     0.206 HD
BRANCH   9  11
HETATM   11  N2  UNL     1      30.972   2.531  42.661  1.00  0.00    -0.240 N 
HETATM   12  C1  UNL     1      29.784   3.186  43.057  1.00  0.00     0.347 C 
HETATM   13  N1  UNL     1      28.508   2.696  42.708  1.00  0.00    -0.038 NA
HETATM   14  O1  UNL     1      29.878   4.230  43.736  1.00  0.00    -0.249 OA
ATOM     15  H2  UNL     1      30.891   1.679  42.106  1.00  0.00     0.192 HD
ENDBRANCH   9  11
ENDBRANCH   1   9
TORSDOF 2
ENDMDL
MODEL 2
REMARK VINA RESULT: -5.626322024      0.512      1.158
REMARK  2 active torsions:
REMARK  status: ('A' for Active; 'I' for Inactive)
REMARK       I    between atoms: C1_2  and  N2_4 
REMARK    1  A    between atoms: N2_4  and  N3_6 
REMARK    2  A    between atoms: N3_6  and  C2_8 
ROOT
HETATM    1  C2  UNL     1      32.851   3.896  42.272  1.00  0.00     0.712 A 
HETATM    2  N4  UNL     1      32.777   5.218  42.481  1.00  0.00    -0.184 N 
ATOM      3  H4  UNL     1      32.265   5.676  43.234  1.00  0.00     0.185 HD
HETATM    4  C3  UNL     1      33.489   5.831  41.535  1.00  0.00     0.215 A 
HETATM    5  N5  UNL     1      34.019   4.891  40.721  1.00  0.00    -0.281 N 
ATOM      6  H5  UNL     1      34.611   5.056  39.908  1.00  0.00     0.188 HD
HETATM    7  N6  UNL     1      33.627   3.727  41.175  1.00  0.00    -0.130 N 
ATOM      8  H6  UNL     1      33.870   2.826  40.764  1.00  0.00     0.205 HD
ENDROOT
BRANCH   1   9
HETATM    9  N3  UNL     1      32.285   2.992  42.992  1.00  0.00    -0.127 N 
ATOM     10  H3  UNL     1      32.777   2.595  43.792  1.00  0.00     0.206 HD
BRANCH   9  11
HETATM   11  N2  UNL     1      31.003   2.557  42.681  1.00  0.00    -0.240 N 
HETATM   12  C1  UNL     1      29.828   3.233  43.081  1.00  0.00     0.347 C 
HETATM   13  N1  UNL     1      28.543   2.759  42.746  1.00  0.00    -0.038 NA
HETATM   14  O1  UNL     1      29.944   4.280  43.751  1.00  0.00    -0.249 OA
ATOM     15  H2  UNL     1      30.905   1.702  42.133  1.00  0.00     0.192 HD
ENDBRANCH   9  11
ENDBRANCH   1   9
TORSDOF 2
ENDMDL
MODEL 3
REMARK VINA RESULT: -5.457542742      2.138      4.550
REMARK  2 active torsions:
REMARK  status: ('A' for Active; 'I' for Inactive)
REMARK       I    between atoms: C1_2  and  N2_4 
REMARK    1  A    between atoms: N2_4  and  N3_6 
REMARK    2  A    between atoms: N3_6  and  C2_8 
ROOT
HETATM    1  C2  UNL     1      31.915   4.173  42.975  1.00  0.00     0.712 A 
HETATM    2  N4  UNL     1      30.650   4.344  43.382  1.00  0.00    -0.184 N 
ATOM      3  H4  UNL     1      30.258   5.202  43.769  1.00  0.00     0.185 HD
HETATM    4  C3  UNL     1      29.991   3.200  43.194  1.00  0.00     0.215 A 
HETATM    5  N5  UNL     1      30.846   2.297  42.663  1.00  0.00    -0.281 N 
ATOM      6  H5  UNL     1      30.630   1.333  42.409  1.00  0.00     0.188 HD
HETATM    7  N6  UNL     1      32.004   2.895  42.535  1.00  0.00    -0.130 N 
ATOM      8  H6  UNL     1      32.848   2.463  42.160  1.00  0.00     0.205 HD
ENDROOT
BRANCH   1   9
HETATM    9  N3  UNL     1      32.839   5.067  43.009  1.00  0.00    -0.127 N 
ATOM     10  H3  UNL     1      33.417   5.171  43.842  1.00  0.00     0.206 HD
BRANCH   9  11
HETATM   11  N2  UNL     1      33.050   5.893  41.912  1.00  0.00    -0.240 N 
HETATM   12  C1  UNL     1      34.217   5.854  41.116  1.00  0.00     0.347 C 
HETATM   13  N1  UNL     1      34.396   6.709  40.010  1.00  0.00    -0.038 NA
HETATM   14  O1  UNL     1      35.110   5.032  41.411  1.00  0.00    -0.249 OA
ATOM     15  H2  UNL     1      32.322   6.565  41.668  1.00  0.00     0.192 HD
ENDBRANCH   9  11
ENDBRANCH   1   9
TORSDOF 2
ENDMDL
MODEL 4
REMARK VINA RESULT: -5.451753403      1.832      2.083
REMARK  2 active torsions:
REMARK  status: ('A' for Active; 'I' for Inactive)
REMARK       I    between atoms: C1_2  and  N2_4 
REMARK    1  A    between atoms: N2_4  and  N3_6 
REMARK    2  A    between atoms: N3_6  and  C2_8 
ROOT
HETATM    1  C2  UNL     1      33.373   5.082  41.213  1.00  0.00     0.712 A 
HETATM    2  N4  UNL     1      34.088   5.284  40.098  1.00  0.00    -0.184 N 
ATOM      3  H4  UNL     1      34.347   4.571  39.417  1.00  0.00     0.185 HD
HETATM    4  C3  UNL     1      34.402   6.578  40.030  1.00  0.00     0.215 A 
HETATM    5  N5  UNL     1      33.881   7.201  41.111  1.00  0.00    -0.281 N 
ATOM      6  H5  UNL     1      33.956   8.193  41.333  1.00  0.00     0.188 HD
HETATM    7  N6  UNL     1      33.263   6.288  41.818  1.00  0.00    -0.130 N 
ATOM      8  H6  UNL     1      32.771   6.461  42.695  1.00  0.00     0.205 HD
ENDROOT
BRANCH   1   9
HETATM    9  N3  UNL     1      32.900   3.951  41.603  1.00  0.00    -0.127 N 
ATOM     10  H3  UNL     1      33.368   3.084  41.339  1.00  0.00     0.206 HD
BRANCH   9  11
HETATM   11  N2  UNL     1      31.753   3.908  42.384  1.00  0.00    -0.240 N 
HETATM   12  C1  UNL     1      31.762   4.006  43.794  1.00  0.00     0.347 C 
HETATM   13  N1  UNL     1      30.575   3.957  44.554  1.00  0.00    -0.038 NA
HETATM   14  O1  UNL     1      32.860   4.138  44.374  1.00  0.00    -0.249 OA
ATOM     15  H2  UNL     1      30.854   3.801  41.914  1.00  0.00     0.192 HD
ENDBRANCH   9  11
ENDBRANCH   1   9
TORSDOF 2
ENDMDL
MODEL 5
REMARK VINA RESULT: -5.422130141      2.036      4.255
REMARK  2 active torsions:
REMARK  status: ('A' for Active; 'I' for Inactive)
REMARK       I    between atoms: C1_2  and  N2_4 
REMARK    1  A    between atoms: N2_4  and  N3_6 
REMARK    2  A    between atoms: N3_6  and  C2_8 
ROOT
HETATM    1  C2  UNL     1      32.367   3.465  42.232  1.00  0.00     0.712 A 
HETATM    2  N4  UNL     1      31.426   4.303  42.687  1.00  0.00    -0.184 N 
ATOM      3  H4  UNL     1      31.485   5.322  42.694  1.00  0.00     0.185 HD
HETATM    4  C3  UNL     1      30.397   3.579  43.128  1.00  0.00     0.215 A 
HETATM    5  N5  UNL     1      30.689   2.271  42.951  1.00  0.00    -0.281 N 
ATOM      6  H5  UNL     1      30.094   1.479  43.192  1.00  0.00     0.188 HD
HETATM    7  N6  UNL     1      31.880   2.215  42.410  1.00  0.00    -0.130 N 
ATOM      8  H6  UNL     1      32.369   1.355  42.160  1.00  0.00     0.205 HD
ENDROOT
BRANCH   1   9
HETATM    9  N3  UNL     1      33.500   3.813  41.732  1.00  0.00    -0.127 N 
ATOM     10  H3  UNL     1      34.335   3.822  42.318  1.00  0.00     0.206 HD
BRANCH   9  11
HETATM   11  N2  UNL     1      33.588   4.178  40.395  1.00  0.00    -0.240 N 
HETATM   12  C1  UNL     1      33.401   5.500  39.931  1.00  0.00     0.347 C 
HETATM   13  N1  UNL     1      33.497   5.833  38.565  1.00  0.00    -0.038 NA
HETATM   14  O1  UNL     1      33.144   6.393  40.766  1.00  0.00    -0.249 OA
ATOM     15  H2  UNL     1      33.798   3.452  39.710  1.00  0.00     0.192 HD
ENDBRANCH   9  11
ENDBRANCH   1   9
TORSDOF 2
ENDMDL
