MODEL 1
REMARK VINA RESULT: -5.640136247      0.000      0.000
REMARK  0 active torsions:
REMARK  status: ('A' for Active; 'I' for Inactive)
REMARK       I    between atoms: C1_4  and  N3_6 
ROOT
HETATM    1  N1  UNL     1      32.746   5.646  43.049  1.00  0.00    -0.373 N 
ATOM      2  H11 UNL     1      33.337   5.261  42.312  1.00  0.00     0.158 HD
ATOM      3  H12 UNL     1      32.899   6.601  43.373  1.00  0.00     0.158 HD
HETATM    4  C1  UNL     1      31.820   4.929  43.558  1.00  0.00     0.200 C 
HETATM    5  N2  UNL     1      31.003   5.461  44.576  1.00  0.00    -0.063 NA
HETATM    6  N3  UNL     1      31.609   3.610  43.110  1.00  0.00    -0.185 N 
HETATM    7  C2  UNL     1      32.524   2.720  42.650  1.00  0.00     0.351 A 
HETATM    8  O1  UNL     1      33.762   2.907  42.533  1.00  0.00    -0.244 OA
HETATM    9  N4  UNL     1      31.853   1.591  42.340  1.00  0.00    -0.247 N 
ATOM     10  H4  UNL     1      32.280   0.743  41.968  1.00  0.00     0.192 HD
HETATM   11  N5  UNL     1      30.566   1.745  42.587  1.00  0.00    -0.247 N 
ATOM     12  H5  UNL     1      29.835   1.048  42.443  1.00  0.00     0.192 HD
HETATM   13  C3  UNL     1      30.398   2.990  43.064  1.00  0.00     0.351 A 
HETATM   14  O2  UNL     1      29.273   3.445  43.397  1.00  0.00    -0.244 OA
ENDROOT
TORSDOF 0
ENDMDL
MODEL 2
REMARK VINA RESULT: -5.509193542      0.950      2.667
REMARK  0 active torsions:
REMARK  status: ('A' for Active; 'I' for Inactive)
REMARK       I    between atoms: C1_4  and  N3_6 
ROOT
HETATM    1  N1  UNL     1      32.684   5.569  43.994  1.00  0.00    -0.373 N 
ATOM      2  H11 UNL     1      31.934   5.367  44.655  1.00  0.00     0.158 HD
ATOM      3  H12 UNL     1      33.248   6.411  44.110  1.00  0.00     0.158 HD
HETATM    4  C1  UNL     1      32.910   4.766  43.027  1.00  0.00     0.200 C 
HETATM    5  N2  UNL     1      33.948   5.044  42.114  1.00  0.00    -0.063 NA
HETATM    6  N3  UNL     1      32.132   3.603  42.868  1.00  0.00    -0.185 N 
HETATM    7  C2  UNL     1      30.824   3.416  43.174  1.00  0.00     0.351 A 
HETATM    8  O1  UNL     1      30.039   4.264  43.672  1.00  0.00    -0.244 OA
HETATM    9  N4  UNL     1      30.520   2.144  42.844  1.00  0.00    -0.247 N 
ATOM     10  H4  UNL     1      29.602   1.714  42.962  1.00  0.00     0.192 HD
HETATM   11  N5  UNL     1      31.581   1.537  42.348  1.00  0.00    -0.247 N 
ATOM     12  H5  UNL     1      31.628   0.572  42.020  1.00  0.00     0.192 HD
HETATM   13  C3  UNL     1      32.588   2.426  42.356  1.00  0.00     0.351 A 
HETATM   14  O2  UNL     1      33.744   2.150  41.941  1.00  0.00    -0.244 OA
ENDROOT
TORSDOF 0
ENDMDL
MODEL 3
REMARK VINA RESULT: -5.275232288      1.342      2.875
REMARK  0 active torsions:
REMARK  status: ('A' for Active; 'I' for Inactive)
REMARK       I    between atoms: C1_4  and  N3_6 
ROOT
HETATM    1  N1  UNL     1      30.306   1.619  42.840  1.00  0.00    -0.373 N 
ATOM      2  H11 UNL     1      31.206   1.140  42.838  1.00  0.00     0.158 HD
ATOM      3  H12 UNL     1      29.447   1.084  42.716  1.00  0.00     0.158 HD
HETATM    4  C1  UNL     1      30.263   2.886  42.998  1.00  0.00     0.200 C 
HETATM    5  N2  UNL     1      29.019   3.549  43.001  1.00  0.00    -0.063 NA
HETATM    6  N3  UNL     1      31.449   3.625  43.170  1.00  0.00    -0.185 N 
HETATM    7  C2  UNL     1      32.676   3.383  42.645  1.00  0.00     0.351 A 
HETATM    8  O1  UNL     1      32.996   2.431  41.889  1.00  0.00    -0.244 OA
HETATM    9  N4  UNL     1      33.494   4.360  43.089  1.00  0.00    -0.247 N 
ATOM     10  H4  UNL     1      34.485   4.442  42.858  1.00  0.00     0.192 HD
HETATM   11  N5  UNL     1      32.828   5.194  43.864  1.00  0.00    -0.247 N 
ATOM     12  H5  UNL     1      33.204   6.019  44.330  1.00  0.00     0.192 HD
HETATM   13  C3  UNL     1      31.559   4.753  43.925  1.00  0.00     0.351 A 
HETATM   14  O2  UNL     1      30.667   5.338  44.592  1.00  0.00    -0.244 OA
ENDROOT
TORSDOF 0
ENDMDL
MODEL 4
REMARK VINA RESULT: -5.162304174      1.960      3.371
REMARK  0 active torsions:
REMARK  status: ('A' for Active; 'I' for Inactive)
REMARK       I    between atoms: C1_4  and  N3_6 
ROOT
HETATM    1  N1  UNL     1      33.269   6.214  41.985  1.00  0.00    -0.373 N 
ATOM      2  H11 UNL     1      32.671   6.156  42.809  1.00  0.00     0.158 HD
ATOM      3  H12 UNL     1      33.613   7.121  41.672  1.00  0.00     0.158 HD
HETATM    4  C1  UNL     1      33.582   5.148  41.354  1.00  0.00     0.200 C 
HETATM    5  N2  UNL     1      34.409   5.228  40.215  1.00  0.00    -0.063 NA
HETATM    6  N3  UNL     1      33.107   3.895  41.788  1.00  0.00    -0.185 N 
HETATM    7  C2  UNL     1      31.930   3.605  42.395  1.00  0.00     0.351 A 
HETATM    8  O1  UNL     1      31.017   4.417  42.695  1.00  0.00    -0.244 OA
HETATM    9  N4  UNL     1      31.920   2.274  42.620  1.00  0.00    -0.247 N 
ATOM     10  H4  UNL     1      31.158   1.763  43.066  1.00  0.00     0.192 HD
HETATM   11  N5  UNL     1      33.038   1.731  42.178  1.00  0.00    -0.247 N 
ATOM     12  H5  UNL     1      33.289   0.743  42.222  1.00  0.00     0.192 HD
HETATM   13  C3  UNL     1      33.785   2.721  41.660  1.00  0.00     0.351 A 
HETATM   14  O2  UNL     1      34.920   2.524  41.153  1.00  0.00    -0.244 OA
ENDROOT
TORSDOF 0
ENDMDL
MODEL 5
REMARK VINA RESULT: -4.998126635      2.182      4.175
REMARK  0 active torsions:
REMARK  status: ('A' for Active; 'I' for Inactive)
REMARK       I    between atoms: C1_4  and  N3_6 
ROOT
HETATM    1  N1  UNL     1      33.026   1.499  42.278  1.00  0.00    -0.373 N 
ATOM      2  H11 UNL     1      32.302   1.688  42.970  1.00  0.00     0.158 HD
ATOM      3  H12 UNL     1      33.225   0.537  42.003  1.00  0.00     0.158 HD
HETATM    4  C1  UNL     1      33.677   2.468  41.760  1.00  0.00     0.200 C 
HETATM    5  N2  UNL     1      34.678   2.207  40.802  1.00  0.00    -0.063 NA
HETATM    6  N3  UNL     1      33.401   3.797  42.139  1.00  0.00    -0.185 N 
HETATM    7  C2  UNL     1      32.989   4.261  43.345  1.00  0.00     0.351 A 
HETATM    8  O1  UNL     1      32.769   3.578  44.378  1.00  0.00    -0.244 OA
HETATM    9  N4  UNL     1      32.859   5.598  43.229  1.00  0.00    -0.247 N 
ATOM     10  H4  UNL     1      32.562   6.223  43.978  1.00  0.00     0.192 HD
HETATM   11  N5  UNL     1      33.172   5.981  42.005  1.00  0.00    -0.247 N 
ATOM     12  H5  UNL     1      33.160   6.936  41.648  1.00  0.00     0.192 HD
HETATM   13  C3  UNL     1      33.510   4.877  41.317  1.00  0.00     0.351 A 
HETATM   14  O2  UNL     1      33.862   4.909  40.109  1.00  0.00    -0.244 OA
ENDROOT
TORSDOF 0
ENDMDL
