MODEL 1
REMARK VINA RESULT: -8.577958481      0.000      0.000
REMARK  11 active torsions:
REMARK  status: ('A' for Active; 'I' for Inactive)
REMARK    1  A    between atoms: N1_2  and  C3_4 
REMARK    2  A    between atoms: C3_4  and  C4_5 
REMARK    3  A    between atoms: C4_5  and  N2_6 
REMARK    4  A    between atoms: C6_8  and  C7_9 
REMARK    5  A    between atoms: C9_14  and  C10_15 
REMARK    6  A    between atoms: C10_15  and  O1_16 
REMARK    7  A    between atoms: O1_16  and  C11_17 
REMARK    8  A    between atoms: C11_17  and  C12_19 
REMARK    9  A    between atoms: C12_19  and  N5_20 
REMARK   10  A    between atoms: C13_21  and  O3_22 
REMARK   11  A    between atoms: C16_26  and  O4_27 
ROOT
HETATM    1  C7  UNL     1      26.079  30.001  27.809  1.00  0.00     0.182 C 
HETATM    2  C8  UNL     1      25.132  30.856  28.525  1.00  0.00     0.065 C 
HETATM    3  N3  UNL     1      24.384  31.531  29.111  1.00  0.00    -0.197 NA
ENDROOT
BRANCH   1   4
HETATM    4  C6  UNL     1      25.313  28.796  27.357  1.00  0.00     0.039 A 
HETATM    5  C5  UNL     1      24.092  28.333  27.863  1.00  0.00     0.118 A 
HETATM    6  N2  UNL     1      23.753  27.235  27.185  1.00  0.00    -0.341 N 
HETATM    7  C9  UNL     1      24.706  26.977  26.268  1.00  0.00     0.108 A 
HETATM    8  N4  UNL     1      25.635  27.924  26.385  1.00  0.00    -0.345 N 
ATOM      9  H4  UNL     1      26.478  27.980  25.814  1.00  0.00     0.167 HD
BRANCH   6  10
HETATM   10  C4  UNL     1      22.586  26.411  27.350  1.00  0.00     0.160 C 
BRANCH  10  11
HETATM   11  C3  UNL     1      21.507  27.100  28.153  1.00  0.00     0.291 C 
BRANCH  11  12
HETATM   12  N1  UNL     1      21.429  26.457  29.468  1.00  0.00     0.081 N 
HETATM   13  C1  UNL     1      21.661  27.442  30.519  1.00  0.00     0.309 C 
HETATM   14  C2  UNL     1      20.062  25.964  29.653  1.00  0.00     0.309 C 
ENDBRANCH  11  12
ENDBRANCH  10  11
ENDBRANCH   6  10
BRANCH   7  15
HETATM   15  C10 UNL     1      24.740  25.853  25.297  1.00  0.00     0.255 C 
BRANCH  15  16
HETATM   16  O1  UNL     1      26.058  25.315  25.353  1.00  0.00    -0.313 OA
BRANCH  16  17
HETATM   17  C11 UNL     1      26.852  25.222  24.245  1.00  0.00     0.277 C 
HETATM   18  O2  UNL     1      27.578  24.201  24.122  1.00  0.00    -0.263 OA
BRANCH  17  19
HETATM   19  C12 UNL     1      26.903  26.262  23.176  1.00  0.00     0.244 C 
BRANCH  19  20
HETATM   20  N5  UNL     1      27.576  27.457  23.657  1.00  0.00    -0.298 N 
HETATM   21  C13 UNL     1      27.002  28.658  23.813  1.00  0.00     0.151 A 
HETATM   22  C14 UNL     1      27.955  29.533  24.287  1.00  0.00     0.004 A 
HETATM   23  C15 UNL     1      29.110  28.830  24.411  1.00  0.00     0.008 A 
HETATM   24  C22 UNL     1      27.800  30.962  24.611  1.00  0.00     0.049 C 
HETATM   25  C16 UNL     1      28.849  27.537  24.012  1.00  0.00     0.152 A 
HETATM   26  C17 UNL     1      30.327  29.497  24.903  1.00  0.00     0.033 A 
HETATM   27  C18 UNL     1      30.446  30.120  26.221  1.00  0.00    -0.000 A 
HETATM   28  C23 UNL     1      30.300  30.950  24.918  1.00  0.00     0.004 A 
HETATM   29  C19 UNL     1      29.284  30.499  27.078  1.00  0.00     0.006 C 
HETATM   30  C20 UNL     1      28.917  31.882  26.565  1.00  0.00     0.006 C 
HETATM   31  C21 UNL     1      29.022  31.644  25.058  1.00  0.00    -0.005 C 
BRANCH  21  32
HETATM   32  O3  UNL     1      25.654  28.912  23.522  1.00  0.00    -0.345 OA
ATOM     33  H3  UNL     1      25.217  28.588  22.743  1.00  0.00     0.219 HD
ENDBRANCH  21  32
BRANCH  25  34
HETATM   34  O4  UNL     1      29.760  26.489  23.985  1.00  0.00    -0.345 OA
ATOM     35  H4  UNL     1      30.634  26.527  23.613  1.00  0.00     0.219 HD
ENDBRANCH  25  34
ENDBRANCH  19  20
ENDBRANCH  17  19
ENDBRANCH  16  17
ENDBRANCH  15  16
ENDBRANCH   7  15
ENDBRANCH   1   4
TORSDOF 11
ENDMDL
MODEL 2
REMARK VINA RESULT: -8.547620905      4.102      6.954
REMARK  11 active torsions:
REMARK  status: ('A' for Active; 'I' for Inactive)
REMARK    1  A    between atoms: N1_2  and  C3_4 
REMARK    2  A    between atoms: C3_4  and  C4_5 
REMARK    3  A    between atoms: C4_5  and  N2_6 
REMARK    4  A    between atoms: C6_8  and  C7_9 
REMARK    5  A    between atoms: C9_14  and  C10_15 
REMARK    6  A    between atoms: C10_15  and  O1_16 
REMARK    7  A    between atoms: O1_16  and  C11_17 
REMARK    8  A    between atoms: C11_17  and  C12_19 
REMARK    9  A    between atoms: C12_19  and  N5_20 
REMARK   10  A    between atoms: C13_21  and  O3_22 
REMARK   11  A    between atoms: C16_26  and  O4_27 
ROOT
HETATM    1  C7  UNL     1      29.518  19.506  20.463  1.00  0.00     0.182 C 
HETATM    2  C8  UNL     1      30.601  20.301  19.880  1.00  0.00     0.065 C 
HETATM    3  N3  UNL     1      31.471  20.934  19.433  1.00  0.00    -0.197 NA
ENDROOT
BRANCH   1   4
HETATM    4  C6  UNL     1      28.448  20.472  20.871  1.00  0.00     0.039 A 
HETATM    5  C5  UNL     1      27.240  20.172  21.511  1.00  0.00     0.118 A 
HETATM    6  N2  UNL     1      26.575  21.314  21.697  1.00  0.00    -0.341 N 
HETATM    7  C9  UNL     1      27.309  22.330  21.201  1.00  0.00     0.108 A 
HETATM    8  N4  UNL     1      28.430  21.807  20.709  1.00  0.00    -0.345 N 
ATOM      9  H4  UNL     1      29.175  22.346  20.268  1.00  0.00     0.167 HD
BRANCH   6  10
HETATM   10  C4  UNL     1      25.289  21.508  22.310  1.00  0.00     0.160 C 
BRANCH  10  11
HETATM   11  C3  UNL     1      25.059  20.562  23.466  1.00  0.00     0.291 C 
BRANCH  11  12
HETATM   12  N1  UNL     1      25.685  21.135  24.661  1.00  0.00     0.081 N 
HETATM   13  C1  UNL     1      24.683  21.830  25.464  1.00  0.00     0.309 C 
HETATM   14  C2  UNL     1      26.186  20.032  25.485  1.00  0.00     0.309 C 
ENDBRANCH  11  12
ENDBRANCH  10  11
ENDBRANCH   6  10
BRANCH   7  15
HETATM   15  C10 UNL     1      26.956  23.774  21.190  1.00  0.00     0.255 C 
BRANCH  15  16
HETATM   16  O1  UNL     1      27.664  24.367  22.274  1.00  0.00    -0.313 OA
BRANCH  16  17
HETATM   17  C11 UNL     1      27.060  24.653  23.467  1.00  0.00     0.277 C 
HETATM   18  O2  UNL     1      25.802  24.649  23.509  1.00  0.00    -0.263 OA
BRANCH  17  19
HETATM   19  C12 UNL     1      27.811  24.967  24.717  1.00  0.00     0.244 C 
BRANCH  19  20
HETATM   20  N5  UNL     1      27.911  26.405  24.906  1.00  0.00    -0.298 N 
HETATM   21  C13 UNL     1      27.240  27.113  25.825  1.00  0.00     0.151 A 
HETATM   22  C14 UNL     1      27.600  28.436  25.696  1.00  0.00     0.004 A 
HETATM   23  C15 UNL     1      28.499  28.505  24.681  1.00  0.00     0.008 A 
HETATM   24  C22 UNL     1      27.128  29.590  26.482  1.00  0.00     0.049 C 
HETATM   25  C16 UNL     1      28.678  27.224  24.204  1.00  0.00     0.152 A 
HETATM   26  C17 UNL     1      29.079  29.804  24.298  1.00  0.00     0.033 A 
HETATM   27  C18 UNL     1      29.872  30.645  25.194  1.00  0.00    -0.000 A 
HETATM   28  C23 UNL     1      28.406  30.983  24.816  1.00  0.00     0.004 A 
HETATM   29  C19 UNL     1      29.889  30.506  26.679  1.00  0.00     0.006 C 
HETATM   30  C20 UNL     1      28.695  31.339  27.116  1.00  0.00     0.006 C 
HETATM   31  C21 UNL     1      27.667  30.894  26.074  1.00  0.00    -0.005 C 
BRANCH  21  32
HETATM   32  O3  UNL     1      26.338  26.540  26.733  1.00  0.00    -0.345 OA
ATOM     33  H3  UNL     1      25.402  26.489  26.578  1.00  0.00     0.219 HD
ENDBRANCH  21  32
BRANCH  25  34
HETATM   34  O4  UNL     1      29.518  26.849  23.164  1.00  0.00    -0.345 OA
ATOM     35  H4  UNL     1      30.431  26.601  23.253  1.00  0.00     0.219 HD
ENDBRANCH  25  34
ENDBRANCH  19  20
ENDBRANCH  17  19
ENDBRANCH  16  17
ENDBRANCH  15  16
ENDBRANCH   7  15
ENDBRANCH   1   4
TORSDOF 11
ENDMDL
MODEL 3
REMARK VINA RESULT: -8.509695859      3.280      6.660
REMARK  11 active torsions:
REMARK  status: ('A' for Active; 'I' for Inactive)
REMARK    1  A    between atoms: N1_2  and  C3_4 
REMARK    2  A    between atoms: C3_4  and  C4_5 
REMARK    3  A    between atoms: C4_5  and  N2_6 
REMARK    4  A    between atoms: C6_8  and  C7_9 
REMARK    5  A    between atoms: C9_14  and  C10_15 
REMARK    6  A    between atoms: C10_15  and  O1_16 
REMARK    7  A    between atoms: O1_16  and  C11_17 
REMARK    8  A    between atoms: C11_17  and  C12_19 
REMARK    9  A    between atoms: C12_19  and  N5_20 
REMARK   10  A    between atoms: C13_21  and  O3_22 
REMARK   11  A    between atoms: C16_26  and  O4_27 
ROOT
HETATM    1  C7  UNL     1      28.188  31.851  26.605  1.00  0.00     0.182 C 
HETATM    2  C8  UNL     1      28.979  31.824  25.373  1.00  0.00     0.065 C 
HETATM    3  N3  UNL     1      29.596  31.814  24.385  1.00  0.00    -0.197 NA
ENDROOT
BRANCH   1   4
HETATM    4  C6  UNL     1      27.302  30.643  26.573  1.00  0.00     0.039 A 
HETATM    5  C5  UNL     1      26.267  30.333  27.462  1.00  0.00     0.118 A 
HETATM    6  N2  UNL     1      25.729  29.172  27.081  1.00  0.00    -0.341 N 
HETATM    7  C9  UNL     1      26.379  28.729  25.987  1.00  0.00     0.108 A 
HETATM    8  N4  UNL     1      27.320  29.624  25.695  1.00  0.00    -0.345 N 
ATOM      9  H4  UNL     1      27.969  29.548  24.912  1.00  0.00     0.167 HD
BRANCH   6  10
HETATM   10  C4  UNL     1      24.641  28.452  27.687  1.00  0.00     0.160 C 
BRANCH  10  11
HETATM   11  C3  UNL     1      23.699  29.364  28.437  1.00  0.00     0.291 C 
BRANCH  11  12
HETATM   12  N1  UNL     1      22.408  28.682  28.572  1.00  0.00     0.081 N 
HETATM   13  C1  UNL     1      22.334  27.566  27.633  1.00  0.00     0.309 C 
HETATM   14  C2  UNL     1      22.339  28.101  29.915  1.00  0.00     0.309 C 
ENDBRANCH  11  12
ENDBRANCH  10  11
ENDBRANCH   6  10
BRANCH   7  15
HETATM   15  C10 UNL     1      26.116  27.478  25.228  1.00  0.00     0.255 C 
BRANCH  15  16
HETATM   16  O1  UNL     1      27.145  26.564  25.595  1.00  0.00    -0.313 OA
BRANCH  16  17
HETATM   17  C11 UNL     1      27.691  25.688  24.701  1.00  0.00     0.277 C 
HETATM   18  O2  UNL     1      28.824  25.206  24.962  1.00  0.00    -0.263 OA
BRANCH  17  19
HETATM   19  C12 UNL     1      27.018  25.272  23.436  1.00  0.00     0.244 C 
BRANCH  19  20
HETATM   20  N5  UNL     1      26.260  24.048  23.638  1.00  0.00    -0.298 N 
HETATM   21  C13 UNL     1      24.946  23.986  23.894  1.00  0.00     0.151 A 
HETATM   22  C14 UNL     1      24.595  22.659  24.019  1.00  0.00     0.004 A 
HETATM   23  C15 UNL     1      25.726  21.931  23.834  1.00  0.00     0.008 A 
HETATM   24  C22 UNL     1      23.265  22.091  24.301  1.00  0.00     0.049 C 
HETATM   25  C16 UNL     1      26.752  22.820  23.597  1.00  0.00     0.152 A 
HETATM   26  C17 UNL     1      25.675  20.461  23.907  1.00  0.00     0.033 A 
HETATM   27  C18 UNL     1      24.868  19.622  23.021  1.00  0.00    -0.000 A 
HETATM   28  C23 UNL     1      24.476  19.890  24.497  1.00  0.00     0.004 A 
HETATM   29  C19 UNL     1      23.729  20.125  22.199  1.00  0.00     0.006 C 
HETATM   30  C20 UNL     1      22.556  20.062  23.163  1.00  0.00     0.006 C 
HETATM   31  C21 UNL     1      23.216  20.628  24.422  1.00  0.00    -0.005 C 
BRANCH  21  32
HETATM   32  O3  UNL     1      24.126  25.117  24.003  1.00  0.00    -0.345 OA
ATOM     33  H3  UNL     1      24.012  25.604  24.811  1.00  0.00     0.219 HD
ENDBRANCH  21  32
BRANCH  25  34
HETATM   34  O4  UNL     1      28.080  22.491  23.355  1.00  0.00    -0.345 OA
ATOM     35  H4  UNL     1      28.380  21.777  22.805  1.00  0.00     0.219 HD
ENDBRANCH  25  34
ENDBRANCH  19  20
ENDBRANCH  17  19
ENDBRANCH  16  17
ENDBRANCH  15  16
ENDBRANCH   7  15
ENDBRANCH   1   4
TORSDOF 11
ENDMDL
MODEL 4
REMARK VINA RESULT: -8.480234411      3.720      6.119
REMARK  11 active torsions:
REMARK  status: ('A' for Active; 'I' for Inactive)
REMARK    1  A    between atoms: N1_2  and  C3_4 
REMARK    2  A    between atoms: C3_4  and  C4_5 
REMARK    3  A    between atoms: C4_5  and  N2_6 
REMARK    4  A    between atoms: C6_8  and  C7_9 
REMARK    5  A    between atoms: C9_14  and  C10_15 
REMARK    6  A    between atoms: C10_15  and  O1_16 
REMARK    7  A    between atoms: O1_16  and  C11_17 
REMARK    8  A    between atoms: C11_17  and  C12_19 
REMARK    9  A    between atoms: C12_19  and  N5_20 
REMARK   10  A    between atoms: C13_21  and  O3_22 
REMARK   11  A    between atoms: C16_26  and  O4_27 
ROOT
HETATM    1  C7  UNL     1      28.258  22.507  21.205  1.00  0.00     0.182 C 
HETATM    2  C8  UNL     1      28.229  23.929  20.861  1.00  0.00     0.065 C 
HETATM    3  N3  UNL     1      28.221  25.064  20.597  1.00  0.00    -0.197 NA
ENDROOT
BRANCH   1   4
HETATM    4  C6  UNL     1      27.327  22.327  22.366  1.00  0.00     0.039 A 
HETATM    5  C5  UNL     1      27.235  21.213  23.209  1.00  0.00     0.118 A 
HETATM    6  N2  UNL     1      26.284  21.457  24.114  1.00  0.00    -0.341 N 
HETATM    7  C9  UNL     1      25.767  22.679  23.883  1.00  0.00     0.108 A 
HETATM    8  N4  UNL     1      26.404  23.187  22.830  1.00  0.00    -0.345 N 
ATOM      9  H4  UNL     1      26.217  24.106  22.429  1.00  0.00     0.167 HD
BRANCH   6  10
HETATM   10  C4  UNL     1      25.832  20.607  25.182  1.00  0.00     0.160 C 
BRANCH  10  11
HETATM   11  C3  UNL     1      26.295  19.178  25.012  1.00  0.00     0.291 C 
BRANCH  11  12
HETATM   12  N1  UNL     1      26.567  18.622  26.340  1.00  0.00     0.081 N 
HETATM   13  C1  UNL     1      26.058  19.522  27.371  1.00  0.00     0.309 C 
HETATM   14  C2  UNL     1      25.815  17.371  26.472  1.00  0.00     0.309 C 
ENDBRANCH  11  12
ENDBRANCH  10  11
ENDBRANCH   6  10
BRANCH   7  15
HETATM   15  C10 UNL     1      24.685  23.357  24.643  1.00  0.00     0.255 C 
BRANCH  15  16
HETATM   16  O1  UNL     1      24.686  24.716  24.217  1.00  0.00    -0.313 OA
BRANCH  16  17
HETATM   17  C11 UNL     1      25.376  25.686  24.887  1.00  0.00     0.277 C 
HETATM   18  O2  UNL     1      26.535  25.413  25.295  1.00  0.00    -0.263 OA
BRANCH  17  19
HETATM   19  C12 UNL     1      24.832  27.048  25.157  1.00  0.00     0.244 C 
BRANCH  19  20
HETATM   20  N5  UNL     1      25.912  28.003  25.345  1.00  0.00    -0.298 N 
HETATM   21  C13 UNL     1      26.835  28.318  24.426  1.00  0.00     0.151 A 
HETATM   22  C14 UNL     1      27.683  29.256  24.971  1.00  0.00     0.004 A 
HETATM   23  C15 UNL     1      27.249  29.496  26.235  1.00  0.00     0.008 A 
HETATM   24  C22 UNL     1      28.850  29.904  24.346  1.00  0.00     0.049 C 
HETATM   25  C16 UNL     1      26.141  28.702  26.446  1.00  0.00     0.152 A 
HETATM   26  C17 UNL     1      27.958  30.466  27.086  1.00  0.00     0.033 A 
HETATM   27  C18 UNL     1      28.111  31.884  26.762  1.00  0.00    -0.000 A 
HETATM   28  C23 UNL     1      29.278  30.870  26.633  1.00  0.00     0.004 A 
HETATM   29  C19 UNL     1      27.917  32.458  25.398  1.00  0.00     0.006 C 
HETATM   30  C20 UNL     1      29.277  32.264  24.747  1.00  0.00     0.006 C 
HETATM   31  C21 UNL     1      29.589  30.838  25.205  1.00  0.00    -0.005 C 
BRANCH  21  32
HETATM   32  O3  UNL     1      26.873  27.749  23.145  1.00  0.00    -0.345 OA
ATOM     33  H3  UNL     1      27.066  26.833  22.986  1.00  0.00     0.219 HD
ENDBRANCH  21  32
BRANCH  25  34
HETATM   34  O4  UNL     1      25.389  28.641  27.611  1.00  0.00    -0.345 OA
ATOM     35  H4  UNL     1      24.636  29.185  27.812  1.00  0.00     0.219 HD
ENDBRANCH  25  34
ENDBRANCH  19  20
ENDBRANCH  17  19
ENDBRANCH  16  17
ENDBRANCH  15  16
ENDBRANCH   7  15
ENDBRANCH   1   4
TORSDOF 11
ENDMDL
MODEL 5
REMARK VINA RESULT: -8.472780334      3.178      6.095
REMARK  11 active torsions:
REMARK  status: ('A' for Active; 'I' for Inactive)
REMARK    1  A    between atoms: N1_2  and  C3_4 
REMARK    2  A    between atoms: C3_4  and  C4_5 
REMARK    3  A    between atoms: C4_5  and  N2_6 
REMARK    4  A    between atoms: C6_8  and  C7_9 
REMARK    5  A    between atoms: C9_14  and  C10_15 
REMARK    6  A    between atoms: C10_15  and  O1_16 
REMARK    7  A    between atoms: O1_16  and  C11_17 
REMARK    8  A    between atoms: C11_17  and  C12_19 
REMARK    9  A    between atoms: C12_19  and  N5_20 
REMARK   10  A    between atoms: C13_21  and  O3_22 
REMARK   11  A    between atoms: C16_26  and  O4_27 
ROOT
HETATM    1  C7  UNL     1      28.454  24.860  21.234  1.00  0.00     0.182 C 
HETATM    2  C8  UNL     1      29.152  23.753  20.577  1.00  0.00     0.065 C 
HETATM    3  N3  UNL     1      29.695  22.874  20.039  1.00  0.00    -0.197 NA
ENDROOT
BRANCH   1   4
HETATM    4  C6  UNL     1      27.513  24.246  22.225  1.00  0.00     0.039 A 
HETATM    5  C5  UNL     1      27.510  22.920  22.676  1.00  0.00     0.118 A 
HETATM    6  N2  UNL     1      26.513  22.785  23.553  1.00  0.00    -0.341 N 
HETATM    7  C9  UNL     1      25.881  23.968  23.681  1.00  0.00     0.108 A 
HETATM    8  N4  UNL     1      26.494  24.834  22.876  1.00  0.00    -0.345 N 
ATOM      9  H4  UNL     1      26.227  25.812  22.768  1.00  0.00     0.167 HD
BRANCH   6  10
HETATM   10  C4  UNL     1      26.117  21.608  24.278  1.00  0.00     0.160 C 
BRANCH  10  11
HETATM   11  C3  UNL     1      25.699  20.483  23.358  1.00  0.00     0.291 C 
BRANCH  11  12
HETATM   12  N1  UNL     1      24.463  20.880  22.678  1.00  0.00     0.081 N 
HETATM   13  C1  UNL     1      24.124  19.901  21.650  1.00  0.00     0.309 C 
HETATM   14  C2  UNL     1      23.374  20.847  23.659  1.00  0.00     0.309 C 
ENDBRANCH  11  12
ENDBRANCH  10  11
ENDBRANCH   6  10
BRANCH   7  15
HETATM   15  C10 UNL     1      24.714  24.277  24.548  1.00  0.00     0.255 C 
BRANCH  15  16
HETATM   16  O1  UNL     1      25.147  25.280  25.461  1.00  0.00    -0.313 OA
BRANCH  16  17
HETATM   17  C11 UNL     1      24.355  26.337  25.809  1.00  0.00     0.277 C 
HETATM   18  O2  UNL     1      23.580  26.197  26.791  1.00  0.00    -0.263 OA
BRANCH  17  19
HETATM   19  C12 UNL     1      24.360  27.645  25.090  1.00  0.00     0.244 C 
BRANCH  19  20
HETATM   20  N5  UNL     1      25.627  28.331  25.286  1.00  0.00    -0.298 N 
HETATM   21  C13 UNL     1      26.655  28.315  24.428  1.00  0.00     0.151 A 
HETATM   22  C14 UNL     1      27.671  29.080  24.959  1.00  0.00     0.004 A 
HETATM   23  C15 UNL     1      27.228  29.552  26.152  1.00  0.00     0.008 A 
HETATM   24  C22 UNL     1      28.999  29.360  24.383  1.00  0.00     0.049 C 
HETATM   25  C16 UNL     1      25.949  29.072  26.335  1.00  0.00     0.152 A 
HETATM   26  C17 UNL     1      28.097  30.413  26.972  1.00  0.00     0.033 A 
HETATM   27  C18 UNL     1      28.614  31.711  26.535  1.00  0.00    -0.000 A 
HETATM   28  C23 UNL     1      29.503  30.441  26.602  1.00  0.00     0.004 A 
HETATM   29  C19 UNL     1      28.654  32.162  25.113  1.00  0.00     0.006 C 
HETATM   30  C20 UNL     1      29.964  31.580  24.606  1.00  0.00     0.006 C 
HETATM   31  C21 UNL     1      29.887  30.180  25.216  1.00  0.00    -0.005 C 
BRANCH  21  32
HETATM   32  O3  UNL     1      26.636  27.617  23.212  1.00  0.00    -0.345 OA
ATOM     33  H3  UNL     1      27.351  27.068  22.913  1.00  0.00     0.219 HD
ENDBRANCH  21  32
BRANCH  25  34
HETATM   34  O4  UNL     1      25.131  29.318  27.430  1.00  0.00    -0.345 OA
ATOM     35  H4  UNL     1      24.931  28.697  28.120  1.00  0.00     0.219 HD
ENDBRANCH  25  34
ENDBRANCH  19  20
ENDBRANCH  17  19
ENDBRANCH  16  17
ENDBRANCH  15  16
ENDBRANCH   7  15
ENDBRANCH   1   4
TORSDOF 11
ENDMDL
