MODEL 1
REMARK VINA RESULT: -6.895478376      0.000      0.000
REMARK  8 active torsions:
REMARK  status: ('A' for Active; 'I' for Inactive)
REMARK    1  A    between atoms: C2_2  and  O2_4 
REMARK    2  A    between atoms: O2_4  and  C3_5 
REMARK    3  A    between atoms: C3_5  and  C4_6 
REMARK    4  A    between atoms: C13_16  and  O4_18 
REMARK    5  A    between atoms: C15_20  and  C16_21 
REMARK    6  A    between atoms: C16_21  and  O5_22 
REMARK    7  A    between atoms: C18_25  and  O6_26 
REMARK    8  A    between atoms: O6_26  and  C19_27 
ROOT
HETATM    1  C4  UNL     1      27.532  28.740  25.343  1.00  0.00     0.080 C 
HETATM    2  C5  UNL     1      27.528  29.513  24.043  1.00  0.00     0.141 C 
HETATM    3  O3  UNL     1      28.305  30.407  23.749  1.00  0.00    -0.297 OA
HETATM    4  C6  UNL     1      26.454  29.033  23.178  1.00  0.00     0.080 C 
HETATM    5  C7  UNL     1      25.551  28.382  24.204  1.00  0.00     0.022 C 
HETATM    6  C8  UNL     1      26.481  27.753  25.257  1.00  0.00     0.014 C 
HETATM    7  C9  UNL     1      25.579  27.552  26.438  1.00  0.00     0.005 C 
HETATM    8  C10 UNL     1      24.246  26.997  25.909  1.00  0.00     0.006 C 
HETATM    9  C11 UNL     1      24.489  25.643  25.314  1.00  0.00     0.003 C 
HETATM   10  C12 UNL     1      25.627  25.563  24.374  1.00  0.00     0.038 C 
HETATM   11  C13 UNL     1      26.859  26.365  24.809  1.00  0.00     0.063 C 
HETATM   12  C14 UNL     1      27.516  25.528  25.860  1.00  0.00     0.046 C 
HETATM   13  C15 UNL     1      25.361  28.790  27.255  1.00  0.00     0.016 C 
HETATM   14  C17 UNL     1      26.751  29.249  27.656  1.00  0.00     0.041 C 
HETATM   15  C18 UNL     1      27.305  29.843  26.370  1.00  0.00     0.151 C 
ENDROOT
BRANCH   1  16
HETATM   16  C3  UNL     1      28.955  28.320  25.514  1.00  0.00     0.199 C 
BRANCH  16  17
HETATM   17  O2  UNL     1      29.818  29.060  24.624  1.00  0.00    -0.320 OA
BRANCH  17  18
HETATM   18  C2  UNL     1      30.710  29.983  25.073  1.00  0.00     0.254 C 
HETATM   19  C1  UNL     1      30.848  30.265  26.533  1.00  0.00     0.126 C 
HETATM   20  O1  UNL     1      31.416  30.595  24.234  1.00  0.00    -0.266 OA
ENDBRANCH  17  18
ENDBRANCH  16  17
ENDBRANCH   1  16
BRANCH  15  21
HETATM   21  O6  UNL     1      26.367  30.807  25.947  1.00  0.00    -0.315 OA
BRANCH  21  22
HETATM   22  C19 UNL     1      26.443  32.116  26.396  1.00  0.00     0.255 C 
HETATM   23  C20 UNL     1      25.343  32.758  27.172  1.00  0.00     0.126 C 
HETATM   24  O7  UNL     1      27.489  32.764  26.126  1.00  0.00    -0.266 OA
ENDBRANCH  21  22
ENDBRANCH  15  21
BRANCH  11  25
HETATM   25  O4  UNL     1      27.630  26.409  23.620  1.00  0.00    -0.389 OA
ATOM     26  H4  UNL     1      27.264  25.836  22.958  1.00  0.00     0.210 HD
ENDBRANCH  11  25
BRANCH  13  27
HETATM   27  C16 UNL     1      24.584  28.603  28.492  1.00  0.00     0.169 C 
BRANCH  27  28
HETATM   28  O5  UNL     1      23.825  29.693  28.878  1.00  0.00    -0.400 OA
ATOM     29  H5  UNL     1      23.438  29.629  29.743  1.00  0.00     0.209 HD
ENDBRANCH  27  28
ENDBRANCH  13  27
TORSDOF 8
ENDMDL
MODEL 2
REMARK VINA RESULT: -6.878822908      6.991     10.673
REMARK  8 active torsions:
REMARK  status: ('A' for Active; 'I' for Inactive)
REMARK    1  A    between atoms: C2_2  and  O2_4 
REMARK    2  A    between atoms: O2_4  and  C3_5 
REMARK    3  A    between atoms: C3_5  and  C4_6 
REMARK    4  A    between atoms: C13_16  and  O4_18 
REMARK    5  A    between atoms: C15_20  and  C16_21 
REMARK    6  A    between atoms: C16_21  and  O5_22 
REMARK    7  A    between atoms: C18_25  and  O6_26 
REMARK    8  A    between atoms: O6_26  and  C19_27 
ROOT
HETATM    1  C4  UNL     1      19.854  24.803  30.617  1.00  0.00     0.080 C 
HETATM    2  C5  UNL     1      20.912  25.375  31.534  1.00  0.00     0.141 C 
HETATM    3  O3  UNL     1      21.025  26.552  31.838  1.00  0.00    -0.297 OA
HETATM    4  C6  UNL     1      21.789  24.310  32.012  1.00  0.00     0.080 C 
HETATM    5  C7  UNL     1      21.544  23.260  30.950  1.00  0.00     0.022 C 
HETATM    6  C8  UNL     1      20.058  23.375  30.566  1.00  0.00     0.014 C 
HETATM    7  C9  UNL     1      19.988  22.680  29.239  1.00  0.00     0.005 C 
HETATM    8  C10 UNL     1      20.838  21.403  29.345  1.00  0.00     0.006 C 
HETATM    9  C11 UNL     1      20.206  20.484  30.347  1.00  0.00     0.003 C 
HETATM   10  C12 UNL     1      19.843  21.112  31.635  1.00  0.00     0.038 C 
HETATM   11  C13 UNL     1      19.245  22.517  31.502  1.00  0.00     0.063 C 
HETATM   12  C14 UNL     1      17.829  22.298  31.075  1.00  0.00     0.046 C 
HETATM   13  C15 UNL     1      20.432  23.528  28.085  1.00  0.00     0.016 C 
HETATM   14  C17 UNL     1      19.553  24.765  28.142  1.00  0.00     0.041 C 
HETATM   15  C18 UNL     1      20.127  25.545  29.314  1.00  0.00     0.151 C 
ENDROOT
BRANCH   1  16
HETATM   16  C3  UNL     1      18.574  25.369  31.139  1.00  0.00     0.199 C 
BRANCH  16  17
HETATM   17  O2  UNL     1      18.687  25.680  32.544  1.00  0.00    -0.320 OA
BRANCH  17  18
HETATM   18  C2  UNL     1      17.599  25.832  33.347  1.00  0.00     0.254 C 
HETATM   19  C1  UNL     1      17.183  27.186  33.819  1.00  0.00     0.126 C 
HETATM   20  O1  UNL     1      16.952  24.810  33.684  1.00  0.00    -0.266 OA
ENDBRANCH  17  18
ENDBRANCH  16  17
ENDBRANCH   1  16
BRANCH  15  21
HETATM   21  O6  UNL     1      21.502  25.702  29.045  1.00  0.00    -0.315 OA
BRANCH  21  22
HETATM   22  C19 UNL     1      21.974  26.829  28.392  1.00  0.00     0.255 C 
HETATM   23  C20 UNL     1      22.385  28.061  29.125  1.00  0.00     0.126 C 
HETATM   24  O7  UNL     1      22.049  26.785  27.136  1.00  0.00    -0.266 OA
ENDBRANCH  21  22
ENDBRANCH  15  21
BRANCH  11  25
HETATM   25  O4  UNL     1      19.319  23.007  32.830  1.00  0.00    -0.389 OA
ATOM     26  H4  UNL     1      18.475  23.333  33.119  1.00  0.00     0.210 HD
ENDBRANCH  11  25
BRANCH  13  27
HETATM   27  C16 UNL     1      20.260  22.925  26.753  1.00  0.00     0.169 C 
BRANCH  27  28
HETATM   28  O5  UNL     1      21.420  22.802  26.010  1.00  0.00    -0.400 OA
ATOM     29  H5  UNL     1      21.383  22.164  25.307  1.00  0.00     0.209 HD
ENDBRANCH  27  28
ENDBRANCH  13  27
TORSDOF 8
ENDMDL
MODEL 3
REMARK VINA RESULT: -6.729573958      6.557     10.336
REMARK  8 active torsions:
REMARK  status: ('A' for Active; 'I' for Inactive)
REMARK    1  A    between atoms: C2_2  and  O2_4 
REMARK    2  A    between atoms: O2_4  and  C3_5 
REMARK    3  A    between atoms: C3_5  and  C4_6 
REMARK    4  A    between atoms: C13_16  and  O4_18 
REMARK    5  A    between atoms: C15_20  and  C16_21 
REMARK    6  A    between atoms: C16_21  and  O5_22 
REMARK    7  A    between atoms: C18_25  and  O6_26 
REMARK    8  A    between atoms: O6_26  and  C19_27 
ROOT
HETATM    1  C4  UNL     1      20.248  24.947  30.610  1.00  0.00     0.080 C 
HETATM    2  C5  UNL     1      20.962  25.610  31.767  1.00  0.00     0.141 C 
HETATM    3  O3  UNL     1      20.815  26.769  32.118  1.00  0.00    -0.297 OA
HETATM    4  C6  UNL     1      21.860  24.657  32.413  1.00  0.00     0.080 C 
HETATM    5  C7  UNL     1      22.037  23.651  31.296  1.00  0.00     0.022 C 
HETATM    6  C8  UNL     1      20.680  23.570  30.573  1.00  0.00     0.014 C 
HETATM    7  C9  UNL     1      21.030  22.956  29.250  1.00  0.00     0.005 C 
HETATM    8  C10 UNL     1      22.022  21.813  29.522  1.00  0.00     0.006 C 
HETATM    9  C11 UNL     1      21.328  20.751  30.321  1.00  0.00     0.003 C 
HETATM   10  C12 UNL     1      20.582  21.238  31.501  1.00  0.00     0.038 C 
HETATM   11  C13 UNL     1      19.818  22.546  31.266  1.00  0.00     0.063 C 
HETATM   12  C14 UNL     1      18.592  22.148  30.508  1.00  0.00     0.046 C 
HETATM   13  C15 UNL     1      21.590  23.930  28.257  1.00  0.00     0.016 C 
HETATM   14  C17 UNL     1      20.539  25.018  28.134  1.00  0.00     0.041 C 
HETATM   15  C18 UNL     1      20.695  25.800  29.428  1.00  0.00     0.151 C 
ENDROOT
BRANCH   1  16
HETATM   16  C3  UNL     1      18.810  25.285  30.825  1.00  0.00     0.199 C 
BRANCH  16  17
HETATM   17  O2  UNL     1      18.562  25.609  32.211  1.00  0.00    -0.320 OA
BRANCH  17  18
HETATM   18  C2  UNL     1      17.338  25.461  32.787  1.00  0.00     0.254 C 
HETATM   19  C1  UNL     1      16.686  26.602  33.496  1.00  0.00     0.126 C 
HETATM   20  O1  UNL     1      16.768  24.345  32.710  1.00  0.00    -0.266 OA
ENDBRANCH  17  18
ENDBRANCH  16  17
ENDBRANCH   1  16
BRANCH  15  21
HETATM   21  O6  UNL     1      22.054  26.173  29.500  1.00  0.00    -0.315 OA
BRANCH  21  22
HETATM   22  C19 UNL     1      22.519  27.290  28.825  1.00  0.00     0.255 C 
HETATM   23  C20 UNL     1      23.676  27.228  27.884  1.00  0.00     0.126 C 
HETATM   24  O7  UNL     1      21.927  28.383  29.029  1.00  0.00    -0.266 OA
ENDBRANCH  21  22
ENDBRANCH  15  21
BRANCH  11  25
HETATM   25  O4  UNL     1      19.504  22.958  32.585  1.00  0.00    -0.389 OA
ATOM     26  H4  UNL     1      19.511  23.905  32.655  1.00  0.00     0.210 HD
ENDBRANCH  11  25
BRANCH  13  27
HETATM   27  C16 UNL     1      21.828  23.391  26.907  1.00  0.00     0.169 C 
BRANCH  27  28
HETATM   28  O5  UNL     1      22.948  23.889  26.266  1.00  0.00    -0.400 OA
ATOM     29  H5  UNL     1      23.729  23.356  26.347  1.00  0.00     0.209 HD
ENDBRANCH  27  28
ENDBRANCH  13  27
TORSDOF 8
ENDMDL
MODEL 4
REMARK VINA RESULT: -6.696800783      6.471     10.240
REMARK  8 active torsions:
REMARK  status: ('A' for Active; 'I' for Inactive)
REMARK    1  A    between atoms: C2_2  and  O2_4 
REMARK    2  A    between atoms: O2_4  and  C3_5 
REMARK    3  A    between atoms: C3_5  and  C4_6 
REMARK    4  A    between atoms: C13_16  and  O4_18 
REMARK    5  A    between atoms: C15_20  and  C16_21 
REMARK    6  A    between atoms: C16_21  and  O5_22 
REMARK    7  A    between atoms: C18_25  and  O6_26 
REMARK    8  A    between atoms: O6_26  and  C19_27 
ROOT
HETATM    1  C4  UNL     1      20.166  24.765  30.915  1.00  0.00     0.080 C 
HETATM    2  C5  UNL     1      20.489  23.569  31.783  1.00  0.00     0.141 C 
HETATM    3  O3  UNL     1      19.971  23.314  32.858  1.00  0.00    -0.297 OA
HETATM    4  C6  UNL     1      21.518  22.752  31.146  1.00  0.00     0.080 C 
HETATM    5  C7  UNL     1      22.130  23.770  30.209  1.00  0.00     0.022 C 
HETATM    6  C8  UNL     1      20.971  24.658  29.722  1.00  0.00     0.014 C 
HETATM    7  C9  UNL     1      21.666  25.882  29.205  1.00  0.00     0.005 C 
HETATM    8  C10 UNL     1      22.891  25.410  28.404  1.00  0.00     0.006 C 
HETATM    9  C11 UNL     1      22.419  24.644  27.206  1.00  0.00     0.003 C 
HETATM   10  C12 UNL     1      21.405  23.605  27.483  1.00  0.00     0.038 C 
HETATM   11  C13 UNL     1      20.344  24.021  28.509  1.00  0.00     0.063 C 
HETATM   12  C14 UNL     1      19.402  24.906  27.756  1.00  0.00     0.046 C 
HETATM   13  C15 UNL     1      22.064  26.853  30.276  1.00  0.00     0.016 C 
HETATM   14  C17 UNL     1      20.777  27.181  31.011  1.00  0.00     0.041 C 
HETATM   15  C18 UNL     1      20.518  25.929  31.834  1.00  0.00     0.151 C 
ENDROOT
BRANCH   1  16
HETATM   16  C3  UNL     1      18.675  24.762  30.828  1.00  0.00     0.199 C 
BRANCH  16  17
HETATM   17  O2  UNL     1      18.109  25.756  31.709  1.00  0.00    -0.320 OA
BRANCH  17  18
HETATM   18  C2  UNL     1      17.213  25.442  32.684  1.00  0.00     0.254 C 
HETATM   19  C1  UNL     1      16.796  26.459  33.694  1.00  0.00     0.126 C 
HETATM   20  O1  UNL     1      16.745  24.277  32.717  1.00  0.00    -0.266 OA
ENDBRANCH  17  18
ENDBRANCH  16  17
ENDBRANCH   1  16
BRANCH  15  21
HETATM   21  O6  UNL     1      21.691  25.705  32.586  1.00  0.00    -0.315 OA
BRANCH  21  22
HETATM   22  C19 UNL     1      21.853  26.280  33.836  1.00  0.00     0.255 C 
HETATM   23  C20 UNL     1      20.706  26.518  34.758  1.00  0.00     0.126 C 
HETATM   24  O7  UNL     1      23.021  26.602  34.181  1.00  0.00    -0.266 OA
ENDBRANCH  21  22
ENDBRANCH  15  21
BRANCH  11  25
HETATM   25  O4  UNL     1      19.740  22.782  28.843  1.00  0.00    -0.389 OA
ATOM     26  H4  UNL     1      19.296  22.837  29.681  1.00  0.00     0.210 HD
ENDBRANCH  11  25
BRANCH  13  27
HETATM   27  C16 UNL     1      22.636  28.123  29.798  1.00  0.00     0.169 C 
BRANCH  27  28
HETATM   28  O5  UNL     1      21.887  28.780  28.839  1.00  0.00    -0.400 OA
ATOM     29  H5  UNL     1      21.449  29.568  29.139  1.00  0.00     0.209 HD
ENDBRANCH  27  28
ENDBRANCH  13  27
TORSDOF 8
ENDMDL
MODEL 5
REMARK VINA RESULT: -6.590361814      6.760     10.424
REMARK  8 active torsions:
REMARK  status: ('A' for Active; 'I' for Inactive)
REMARK    1  A    between atoms: C2_2  and  O2_4 
REMARK    2  A    between atoms: O2_4  and  C3_5 
REMARK    3  A    between atoms: C3_5  and  C4_6 
REMARK    4  A    between atoms: C13_16  and  O4_18 
REMARK    5  A    between atoms: C15_20  and  C16_21 
REMARK    6  A    between atoms: C16_21  and  O5_22 
REMARK    7  A    between atoms: C18_25  and  O6_26 
REMARK    8  A    between atoms: O6_26  and  C19_27 
ROOT
HETATM    1  C4  UNL     1      20.201  24.402  29.952  1.00  0.00     0.080 C 
HETATM    2  C5  UNL     1      21.248  25.045  30.836  1.00  0.00     0.141 C 
HETATM    3  O3  UNL     1      21.363  26.242  31.040  1.00  0.00    -0.297 OA
HETATM    4  C6  UNL     1      22.109  24.020  31.418  1.00  0.00     0.080 C 
HETATM    5  C7  UNL     1      21.876  22.885  30.444  1.00  0.00     0.022 C 
HETATM    6  C8  UNL     1      20.397  22.974  30.027  1.00  0.00     0.014 C 
HETATM    7  C9  UNL     1      20.345  22.169  28.762  1.00  0.00     0.005 C 
HETATM    8  C10 UNL     1      21.184  20.901  28.991  1.00  0.00     0.006 C 
HETATM    9  C11 UNL     1      20.530  20.074  30.056  1.00  0.00     0.003 C 
HETATM   10  C12 UNL     1      20.149  20.811  31.280  1.00  0.00     0.038 C 
HETATM   11  C13 UNL     1      19.563  22.203  31.018  1.00  0.00     0.063 C 
HETATM   12  C14 UNL     1      18.153  21.956  30.587  1.00  0.00     0.046 C 
HETATM   13  C15 UNL     1      20.813  22.914  27.548  1.00  0.00     0.016 C 
HETATM   14  C17 UNL     1      19.942  24.155  27.485  1.00  0.00     0.041 C 
HETATM   15  C18 UNL     1      20.501  25.029  28.596  1.00  0.00     0.151 C 
ENDROOT
BRANCH   1  16
HETATM   16  C3  UNL     1      18.916  25.016  30.402  1.00  0.00     0.199 C 
BRANCH  16  17
HETATM   17  O2  UNL     1      19.007  25.445  31.778  1.00  0.00    -0.320 OA
BRANCH  17  18
HETATM   18  C2  UNL     1      17.917  25.541  32.586  1.00  0.00     0.254 C 
HETATM   19  C1  UNL     1      17.735  26.718  33.486  1.00  0.00     0.126 C 
HETATM   20  O1  UNL     1      17.066  24.618  32.559  1.00  0.00    -0.266 OA
ENDBRANCH  17  18
ENDBRANCH  16  17
ENDBRANCH   1  16
BRANCH  15  21
HETATM   21  O6  UNL     1      21.882  25.155  28.339  1.00  0.00    -0.315 OA
BRANCH  21  22
HETATM   22  C19 UNL     1      22.366  26.194  27.560  1.00  0.00     0.255 C 
HETATM   23  C20 UNL     1      23.369  25.977  26.477  1.00  0.00     0.126 C 
HETATM   24  O7  UNL     1      21.928  27.351  27.794  1.00  0.00    -0.266 OA
ENDBRANCH  21  22
ENDBRANCH  15  21
BRANCH  11  25
HETATM   25  O4  UNL     1      19.617  22.804  32.301  1.00  0.00    -0.389 OA
ATOM     26  H4  UNL     1      19.384  22.180  32.978  1.00  0.00     0.210 HD
ENDBRANCH  11  25
BRANCH  13  27
HETATM   27  C16 UNL     1      20.660  22.199  26.270  1.00  0.00     0.169 C 
BRANCH  27  28
HETATM   28  O5  UNL     1      19.625  22.647  25.468  1.00  0.00    -0.400 OA
ATOM     29  H5  UNL     1      19.670  22.371  24.560  1.00  0.00     0.209 HD
ENDBRANCH  27  28
ENDBRANCH  13  27
TORSDOF 8
ENDMDL
