MODEL 1
REMARK VINA RESULT: -8.092507146      0.000      0.000
REMARK  4 active torsions:
REMARK  status: ('A' for Active; 'I' for Inactive)
REMARK    1  A    between atoms: C4_9  and  C5_10 
REMARK    2  A    between atoms: C5_10  and  C6_11 
REMARK    3  A    between atoms: C6_11  and  C7_12 
REMARK    4  A    between atoms: C7_12  and  C8_13 
ROOT
HETATM    1  O1  UNL     1      19.531 -31.416  -6.427  1.00  0.00    -0.266 OA
HETATM    2  C1  UNL     1      19.495 -32.655  -6.635  1.00  0.00     0.272 A 
HETATM    3  N1  UNL     1      19.605 -33.186  -7.865  1.00  0.00    -0.265 N 
ATOM      4  H1  UNL     1      19.726 -32.670  -8.737  1.00  0.00     0.190 HD
HETATM    5  N2  UNL     1      19.527 -34.499  -7.739  1.00  0.00    -0.297 N 
ATOM      6  H2  UNL     1      19.581 -35.161  -8.512  1.00  0.00     0.187 HD
HETATM    7  C2  UNL     1      19.368 -34.839  -6.448  1.00  0.00     0.065 A 
HETATM    8  C3  UNL     1      19.343 -33.673  -5.713  1.00  0.00     0.068 A 
HETATM    9  C4  UNL     1      19.180 -34.292  -4.520  1.00  0.00    -0.038 A 
HETATM   10  C11 UNL     1      19.210 -35.491  -5.303  1.00  0.00     0.040 A 
ENDROOT
BRANCH   9  11
HETATM   11  C5  UNL     1      19.053 -33.762  -3.150  1.00  0.00     0.040 C 
BRANCH  11  12
HETATM   12  C6  UNL     1      18.650 -34.827  -2.203  1.00  0.00     0.011 C 
BRANCH  12  13
HETATM   13  C7  UNL     1      17.414 -34.466  -1.424  1.00  0.00     0.059 C 
BRANCH  13  14
HETATM   14  C8  UNL     1      16.789 -35.780  -1.022  1.00  0.00     0.025 A 
HETATM   15  C9  UNL     1      16.861 -36.934  -1.746  1.00  0.00     0.113 A 
HETATM   16  N3  UNL     1      16.186 -37.867  -1.059  1.00  0.00    -0.360 N 
HETATM   17  C10 UNL     1      15.709 -37.304   0.064  1.00  0.00     0.180 A 
ATOM     18  H3  UNL     1      16.057 -38.839  -1.341  1.00  0.00     0.166 HD
HETATM   19  N4  UNL     1      16.076 -36.028   0.088  1.00  0.00    -0.355 N 
ATOM     20  H4  UNL     1      15.856 -35.355   0.822  1.00  0.00     0.166 HD
ENDBRANCH  13  14
ENDBRANCH  12  13
ENDBRANCH  11  12
ENDBRANCH   9  11
TORSDOF 4
ENDMDL
MODEL 2
REMARK VINA RESULT: -7.920268532      1.675      2.116
REMARK  4 active torsions:
REMARK  status: ('A' for Active; 'I' for Inactive)
REMARK    1  A    between atoms: C4_9  and  C5_10 
REMARK    2  A    between atoms: C5_10  and  C6_11 
REMARK    3  A    between atoms: C6_11  and  C7_12 
REMARK    4  A    between atoms: C7_12  and  C8_13 
ROOT
HETATM    1  O1  UNL     1      19.084 -37.447  -5.388  1.00  0.00    -0.266 OA
HETATM    2  C1  UNL     1      19.236 -36.387  -6.046  1.00  0.00     0.272 A 
HETATM    3  N1  UNL     1      19.337 -36.375  -7.386  1.00  0.00    -0.265 N 
ATOM      4  H1  UNL     1      19.304 -37.187  -8.001  1.00  0.00     0.190 HD
HETATM    5  N2  UNL     1      19.488 -35.116  -7.760  1.00  0.00    -0.297 N 
ATOM      6  H2  UNL     1      19.589 -34.806  -8.726  1.00  0.00     0.187 HD
HETATM    7  C2  UNL     1      19.488 -34.304  -6.690  1.00  0.00     0.065 A 
HETATM    8  C3  UNL     1      19.327 -35.093  -5.572  1.00  0.00     0.068 A 
HETATM    9  C4  UNL     1      19.364 -34.060  -4.695  1.00  0.00    -0.038 A 
HETATM   10  C11 UNL     1      19.529 -33.259  -5.872  1.00  0.00     0.040 A 
ENDROOT
BRANCH   9  11
HETATM   11  C5  UNL     1      19.261 -34.018  -3.225  1.00  0.00     0.040 C 
BRANCH  11  12
HETATM   12  C6  UNL     1      18.299 -35.030  -2.730  1.00  0.00     0.011 C 
BRANCH  12  13
HETATM   13  C7  UNL     1      17.664 -34.629  -1.426  1.00  0.00     0.059 C 
BRANCH  13  14
HETATM   14  C8  UNL     1      16.927 -35.853  -0.939  1.00  0.00     0.025 A 
HETATM   15  C9  UNL     1      16.801 -37.018  -1.638  1.00  0.00     0.113 A 
HETATM   16  N3  UNL     1      16.084 -37.854  -0.873  1.00  0.00    -0.360 N 
HETATM   17  C10 UNL     1      15.774 -37.221   0.271  1.00  0.00     0.180 A 
ATOM     18  H3  UNL     1      15.818 -38.808  -1.119  1.00  0.00     0.166 HD
HETATM   19  N4  UNL     1      16.289 -35.998   0.232  1.00  0.00    -0.355 N 
ATOM     20  H4  UNL     1      16.212 -35.292   0.964  1.00  0.00     0.166 HD
ENDBRANCH  13  14
ENDBRANCH  12  13
ENDBRANCH  11  12
ENDBRANCH   9  11
TORSDOF 4
ENDMDL
MODEL 3
REMARK VINA RESULT: -7.817718280      2.761      3.050
REMARK  4 active torsions:
REMARK  status: ('A' for Active; 'I' for Inactive)
REMARK    1  A    between atoms: C4_9  and  C5_10 
REMARK    2  A    between atoms: C5_10  and  C6_11 
REMARK    3  A    between atoms: C6_11  and  C7_12 
REMARK    4  A    between atoms: C7_12  and  C8_13 
ROOT
HETATM    1  O1  UNL     1      22.514 -36.548  -5.254  1.00  0.00    -0.266 OA
HETATM    2  C1  UNL     1      22.533 -35.303  -5.083  1.00  0.00     0.272 A 
HETATM    3  N1  UNL     1      23.674 -34.593  -5.059  1.00  0.00    -0.265 N 
ATOM      4  H1  UNL     1      24.618 -34.963  -5.172  1.00  0.00     0.190 HD
HETATM    5  N2  UNL     1      23.349 -33.327  -4.862  1.00  0.00    -0.297 N 
ATOM      6  H2  UNL     1      24.016 -32.559  -4.800  1.00  0.00     0.187 HD
HETATM    7  C2  UNL     1      22.016 -33.195  -4.755  1.00  0.00     0.065 A 
HETATM    8  C3  UNL     1      21.463 -34.450  -4.893  1.00  0.00     0.068 A 
HETATM    9  C4  UNL     1      20.184 -34.030  -4.749  1.00  0.00    -0.038 A 
HETATM   10  C11 UNL     1      20.779 -32.734  -4.609  1.00  0.00     0.040 A 
ENDROOT
BRANCH   9  11
HETATM   11  C5  UNL     1      18.904 -34.761  -4.765  1.00  0.00     0.040 C 
BRANCH  11  12
HETATM   12  C6  UNL     1      18.746 -35.583  -3.543  1.00  0.00     0.011 C 
BRANCH  12  13
HETATM   13  C7  UNL     1      18.409 -34.755  -2.332  1.00  0.00     0.059 C 
BRANCH  13  14
HETATM   14  C8  UNL     1      17.604 -35.660  -1.432  1.00  0.00     0.025 A 
HETATM   15  C9  UNL     1      16.920 -36.766  -1.845  1.00  0.00     0.113 A 
HETATM   16  N3  UNL     1      16.340 -37.293  -0.758  1.00  0.00    -0.360 N 
HETATM   17  C10 UNL     1      16.657 -36.532   0.303  1.00  0.00     0.180 A 
ATOM     18  H3  UNL     1      15.757 -38.129  -0.738  1.00  0.00     0.166 HD
HETATM   19  N4  UNL     1      17.430 -35.533  -0.107  1.00  0.00    -0.355 N 
ATOM     20  H4  UNL     1      17.822 -34.798   0.481  1.00  0.00     0.166 HD
ENDBRANCH  13  14
ENDBRANCH  12  13
ENDBRANCH  11  12
ENDBRANCH   9  11
TORSDOF 4
ENDMDL
MODEL 4
REMARK VINA RESULT: -7.737906994      2.527      3.175
REMARK  4 active torsions:
REMARK  status: ('A' for Active; 'I' for Inactive)
REMARK    1  A    between atoms: C4_9  and  C5_10 
REMARK    2  A    between atoms: C5_10  and  C6_11 
REMARK    3  A    between atoms: C6_11  and  C7_12 
REMARK    4  A    between atoms: C7_12  and  C8_13 
ROOT
HETATM    1  O1  UNL     1      19.143 -37.579  -6.042  1.00  0.00    -0.266 OA
HETATM    2  C1  UNL     1      19.268 -36.374  -6.379  1.00  0.00     0.272 A 
HETATM    3  N1  UNL     1      19.313 -35.983  -7.664  1.00  0.00    -0.265 N 
ATOM      4  H1  UNL     1      19.253 -36.590  -8.482  1.00  0.00     0.190 HD
HETATM    5  N2  UNL     1      19.449 -34.669  -7.674  1.00  0.00    -0.297 N 
ATOM      6  H2  UNL     1      19.511 -34.098  -8.516  1.00  0.00     0.187 HD
HETATM    7  C2  UNL     1      19.496 -34.191  -6.419  1.00  0.00     0.065 A 
HETATM    8  C3  UNL     1      19.381 -35.265  -5.563  1.00  0.00     0.068 A 
HETATM    9  C4  UNL     1      19.456 -34.522  -4.433  1.00  0.00    -0.038 A 
HETATM   10  C11 UNL     1      19.572 -33.420  -5.341  1.00  0.00     0.040 A 
ENDROOT
BRANCH   9  11
HETATM   11  C5  UNL     1      19.414 -34.897  -3.008  1.00  0.00     0.040 C 
BRANCH  11  12
HETATM   12  C6  UNL     1      18.036 -35.239  -2.587  1.00  0.00     0.011 C 
BRANCH  12  13
HETATM   13  C7  UNL     1      17.879 -35.257  -1.091  1.00  0.00     0.059 C 
BRANCH  13  14
HETATM   14  C8  UNL     1      17.146 -33.984  -0.744  1.00  0.00     0.025 A 
HETATM   15  C9  UNL     1      16.097 -33.900   0.125  1.00  0.00     0.113 A 
HETATM   16  N3  UNL     1      15.726 -32.611   0.162  1.00  0.00    -0.360 N 
HETATM   17  C10 UNL     1      16.527 -31.916  -0.663  1.00  0.00     0.180 A 
ATOM     18  H3  UNL     1      14.965 -32.225   0.720  1.00  0.00     0.166 HD
HETATM   19  N4  UNL     1      17.395 -32.754  -1.218  1.00  0.00    -0.355 N 
ATOM     20  H4  UNL     1      18.124 -32.506  -1.886  1.00  0.00     0.166 HD
ENDBRANCH  13  14
ENDBRANCH  12  13
ENDBRANCH  11  12
ENDBRANCH   9  11
TORSDOF 4
ENDMDL
MODEL 5
REMARK VINA RESULT: -7.704932173      3.920      5.316
REMARK  4 active torsions:
REMARK  status: ('A' for Active; 'I' for Inactive)
REMARK    1  A    between atoms: C4_9  and  C5_10 
REMARK    2  A    between atoms: C5_10  and  C6_11 
REMARK    3  A    between atoms: C6_11  and  C7_12 
REMARK    4  A    between atoms: C7_12  and  C8_13 
ROOT
HETATM    1  O1  UNL     1      19.570 -31.058  -5.229  1.00  0.00    -0.266 OA
HETATM    2  C1  UNL     1      19.494 -31.929  -6.132  1.00  0.00     0.272 A 
HETATM    3  N1  UNL     1      19.495 -31.619  -7.440  1.00  0.00    -0.265 N 
ATOM      4  H1  UNL     1      19.554 -30.682  -7.838  1.00  0.00     0.190 HD
HETATM    5  N2  UNL     1      19.404 -32.751  -8.116  1.00  0.00    -0.297 N 
ATOM      6  H2  UNL     1      19.384 -32.820  -9.133  1.00  0.00     0.187 HD
HETATM    7  C2  UNL     1      19.343 -33.797  -7.275  1.00  0.00     0.065 A 
HETATM    8  C3  UNL     1      19.399 -33.300  -5.991  1.00  0.00     0.068 A 
HETATM    9  C4  UNL     1      19.323 -34.514  -5.394  1.00  0.00    -0.038 A 
HETATM   10  C11 UNL     1      19.267 -35.008  -6.737  1.00  0.00     0.040 A 
ENDROOT
BRANCH   9  11
HETATM   11  C5  UNL     1      19.316 -34.908  -3.973  1.00  0.00     0.040 C 
BRANCH  11  12
HETATM   12  C6  UNL     1      20.683 -34.874  -3.405  1.00  0.00     0.011 C 
BRANCH  12  13
HETATM   13  C7  UNL     1      21.681 -35.603  -4.264  1.00  0.00     0.059 C 
BRANCH  13  14
HETATM   14  C8  UNL     1      22.856 -34.667  -4.405  1.00  0.00     0.025 A 
HETATM   15  C9  UNL     1      22.952 -33.667  -5.329  1.00  0.00     0.113 A 
HETATM   16  N3  UNL     1      24.136 -33.068  -5.132  1.00  0.00    -0.360 N 
HETATM   17  C10 UNL     1      24.756 -33.682  -4.110  1.00  0.00     0.180 A 
ATOM     18  H3  UNL     1      24.502 -32.281  -5.666  1.00  0.00     0.166 HD
HETATM   19  N4  UNL     1      23.975 -34.660  -3.665  1.00  0.00    -0.355 N 
ATOM     20  H4  UNL     1      24.189 -35.294  -2.895  1.00  0.00     0.166 HD
ENDBRANCH  13  14
ENDBRANCH  12  13
ENDBRANCH  11  12
ENDBRANCH   9  11
TORSDOF 4
ENDMDL
