MODEL 1
REMARK VINA RESULT: -7.488857919      0.000      0.000
REMARK  13 active torsions:
REMARK  status: ('A' for Active; 'I' for Inactive)
REMARK    1  A    between atoms: C2_2  and  O1_3 
REMARK    2  A    between atoms: O1_3  and  C3_4 
REMARK       I    between atoms: C3_4  and  N1_6 
REMARK    3  A    between atoms: C6_9  and  C7_10 
REMARK    4  A    between atoms: C7_10  and  C8_11 
REMARK    5  A    between atoms: C8_11  and  N2_12 
REMARK    6  A    between atoms: C8_11  and  C21_33 
REMARK       I    between atoms: N2_12  and  C9_14 
REMARK    7  A    between atoms: C9_14  and  C10_16 
REMARK       I    between atoms: N3_20  and  C14_21 
REMARK       I    between atoms: C14_21  and  N4_23 
REMARK    8  A    between atoms: N4_23  and  C15_25 
REMARK    9  A    between atoms: C15_25  and  C16_26 
REMARK   10  A    between atoms: C15_25  and  C17_29 
REMARK   11  A    between atoms: C17_29  and  C19_31 
REMARK   12  A    between atoms: C21_33  and  C22_35 
REMARK   13  A    between atoms: C22_35  and  C23_36 
ROOT
HETATM    1  N2  UNL     1      -6.503  27.316  -0.454  1.00  0.00    -0.348 N 
ATOM      2  H2  UNL     1      -5.949  28.089  -0.084  1.00  0.00     0.163 HD
HETATM    3  C9  UNL     1      -7.511  26.718   0.368  1.00  0.00     0.241 C 
HETATM    4  O3  UNL     1      -8.156  25.797  -0.152  1.00  0.00    -0.271 OA
ENDROOT
BRANCH   1   5
HETATM    5  C8  UNL     1      -6.246  26.831  -1.841  1.00  0.00     0.154 C 
BRANCH   5   6
HETATM    6  C7  UNL     1      -6.966  27.809  -2.694  1.00  0.00     0.039 C 
BRANCH   6   7
HETATM    7  C6  UNL     1      -7.198  27.516  -4.119  1.00  0.00     0.007 C 
HETATM    8  C5  UNL     1      -8.492  26.764  -4.379  1.00  0.00     0.026 C 
HETATM    9  C4  UNL     1      -8.609  27.006  -5.895  1.00  0.00     0.128 C 
HETATM   10  N1  UNL     1      -8.199  28.396  -6.019  1.00  0.00    -0.328 N 
HETATM   11  C3  UNL     1      -8.443  29.180  -7.181  1.00  0.00     0.362 C 
HETATM   12  C26 UNL     1      -7.545  28.855  -4.836  1.00  0.00     0.132 C 
HETATM   13  O2  UNL     1      -8.064  30.384  -7.253  1.00  0.00    -0.238 OA
BRANCH  11  14
HETATM   14  O1  UNL     1      -9.104  28.700  -8.306  1.00  0.00    -0.304 OA
BRANCH  14  15
HETATM   15  C2  UNL     1     -10.507  28.962  -8.498  1.00  0.00     0.176 C 
HETATM   16  C1  UNL     1     -10.887  28.331  -9.815  1.00  0.00     0.034 C 
ENDBRANCH  14  15
ENDBRANCH  11  14
ENDBRANCH   6   7
ENDBRANCH   5   6
BRANCH   5  17
HETATM   17  C21 UNL     1      -4.818  26.644  -2.024  1.00  0.00     0.149 C 
HETATM   18  O7  UNL     1      -4.158  27.598  -2.501  1.00  0.00    -0.296 OA
BRANCH  17  19
HETATM   19  C22 UNL     1      -4.035  25.450  -1.707  1.00  0.00     0.084 C 
BRANCH  19  20
HETATM   20  C23 UNL     1      -3.957  25.214  -0.182  1.00  0.00    -0.016 C 
HETATM   21  C24 UNL     1      -4.754  23.986   0.213  1.00  0.00     0.010 C 
HETATM   22  C25 UNL     1      -2.509  24.963   0.202  1.00  0.00     0.010 C 
ENDBRANCH  19  20
ENDBRANCH  17  19
ENDBRANCH   5  17
ENDBRANCH   1   5
BRANCH   3  23
HETATM   23  C10 UNL     1      -7.715  27.212   1.719  1.00  0.00     0.181 C 
HETATM   24  C11 UNL     1      -6.827  26.376   2.648  1.00  0.00     0.037 C 
HETATM   25  C12 UNL     1      -6.961  27.184   3.925  1.00  0.00     0.022 C 
HETATM   26  C13 UNL     1      -7.013  28.595   3.460  1.00  0.00     0.129 C 
HETATM   27  N3  UNL     1      -7.515  28.556   2.048  1.00  0.00    -0.321 N 
HETATM   28  C14 UNL     1      -7.694  29.768   1.374  1.00  0.00     0.319 C 
HETATM   29  O4  UNL     1      -8.147  29.833   0.225  1.00  0.00    -0.247 OA
HETATM   30  N4  UNL     1      -7.354  31.022   1.986  1.00  0.00    -0.328 N 
ATOM     31  H4  UNL     1      -6.985  31.054   2.936  1.00  0.00     0.165 HD
BRANCH  30  32
HETATM   32  C15 UNL     1      -7.551  32.269   1.206  1.00  0.00     0.191 C 
BRANCH  32  33
HETATM   33  C16 UNL     1      -6.263  33.006   1.257  1.00  0.00     0.197 C 
HETATM   34  O5  UNL     1      -6.263  34.284   1.283  1.00  0.00    -0.646 OA
HETATM   35  O6  UNL     1      -5.017  32.423   1.285  1.00  0.00    -0.646 OA
ENDBRANCH  32  33
BRANCH  32  36
HETATM   36  C17 UNL     1      -8.733  33.005   1.744  1.00  0.00     0.014 C 
HETATM   37  C18 UNL     1      -9.962  32.848   0.869  1.00  0.00     0.012 C 
BRANCH  36  38
HETATM   38  C19 UNL     1      -9.087  32.848   3.163  1.00  0.00     0.002 C 
HETATM   39  C20 UNL     1      -8.468  33.808   4.142  1.00  0.00     0.005 C 
ENDBRANCH  36  38
ENDBRANCH  32  36
ENDBRANCH  30  32
ENDBRANCH   3  23
TORSDOF 13
ENDMDL
MODEL 2
REMARK VINA RESULT: -7.310418650      1.407      1.833
REMARK  13 active torsions:
REMARK  status: ('A' for Active; 'I' for Inactive)
REMARK    1  A    between atoms: C2_2  and  O1_3 
REMARK    2  A    between atoms: O1_3  and  C3_4 
REMARK       I    between atoms: C3_4  and  N1_6 
REMARK    3  A    between atoms: C6_9  and  C7_10 
REMARK    4  A    between atoms: C7_10  and  C8_11 
REMARK    5  A    between atoms: C8_11  and  N2_12 
REMARK    6  A    between atoms: C8_11  and  C21_33 
REMARK       I    between atoms: N2_12  and  C9_14 
REMARK    7  A    between atoms: C9_14  and  C10_16 
REMARK       I    between atoms: N3_20  and  C14_21 
REMARK       I    between atoms: C14_21  and  N4_23 
REMARK    8  A    between atoms: N4_23  and  C15_25 
REMARK    9  A    between atoms: C15_25  and  C16_26 
REMARK   10  A    between atoms: C15_25  and  C17_29 
REMARK   11  A    between atoms: C17_29  and  C19_31 
REMARK   12  A    between atoms: C21_33  and  C22_35 
REMARK   13  A    between atoms: C22_35  and  C23_36 
ROOT
HETATM    1  N2  UNL     1      -6.399  27.318  -0.644  1.00  0.00    -0.348 N 
ATOM      2  H2  UNL     1      -5.744  27.950  -0.185  1.00  0.00     0.163 HD
HETATM    3  C9  UNL     1      -7.529  26.824   0.085  1.00  0.00     0.241 C 
HETATM    4  O3  UNL     1      -8.291  26.075  -0.540  1.00  0.00    -0.271 OA
ENDROOT
BRANCH   1   5
HETATM    5  C8  UNL     1      -6.162  26.924  -2.063  1.00  0.00     0.154 C 
BRANCH   5   6
HETATM    6  C7  UNL     1      -6.674  28.080  -2.839  1.00  0.00     0.039 C 
BRANCH   6   7
HETATM    7  C6  UNL     1      -7.821  27.911  -3.749  1.00  0.00     0.007 C 
HETATM    8  C5  UNL     1      -7.708  28.729  -5.023  1.00  0.00     0.026 C 
HETATM    9  C4  UNL     1      -8.782  28.014  -5.863  1.00  0.00     0.128 C 
HETATM   10  N1  UNL     1      -8.556  26.617  -5.529  1.00  0.00    -0.328 N 
HETATM   11  C3  UNL     1      -9.086  25.538  -6.292  1.00  0.00     0.362 C 
HETATM   12  C26 UNL     1      -7.738  26.483  -4.367  1.00  0.00     0.132 C 
HETATM   13  O2  UNL     1      -8.872  24.335  -5.964  1.00  0.00    -0.238 OA
BRANCH  11  14
HETATM   14  O1  UNL     1      -9.862  25.712  -7.432  1.00  0.00    -0.304 OA
BRANCH  14  15
HETATM   15  C2  UNL     1     -10.670  24.633  -7.938  1.00  0.00     0.176 C 
HETATM   16  C1  UNL     1     -10.574  24.691  -9.442  1.00  0.00     0.034 C 
ENDBRANCH  14  15
ENDBRANCH  11  14
ENDBRANCH   6   7
ENDBRANCH   5   6
BRANCH   5  17
HETATM   17  C21 UNL     1      -4.776  26.521  -2.221  1.00  0.00     0.149 C 
HETATM   18  O7  UNL     1      -3.991  27.325  -2.776  1.00  0.00    -0.296 OA
BRANCH  17  19
HETATM   19  C22 UNL     1      -4.169  25.260  -1.795  1.00  0.00     0.084 C 
BRANCH  19  20
HETATM   20  C23 UNL     1      -4.092  25.162  -0.255  1.00  0.00    -0.016 C 
HETATM   21  C24 UNL     1      -4.810  23.923   0.241  1.00  0.00     0.010 C 
HETATM   22  C25 UNL     1      -2.634  25.041   0.156  1.00  0.00     0.010 C 
ENDBRANCH  19  20
ENDBRANCH  17  19
ENDBRANCH   5  17
ENDBRANCH   1   5
BRANCH   3  23
HETATM   23  C10 UNL     1      -7.711  27.222   1.471  1.00  0.00     0.181 C 
HETATM   24  C11 UNL     1      -6.853  26.284   2.329  1.00  0.00     0.037 C 
HETATM   25  C12 UNL     1      -6.953  26.997   3.664  1.00  0.00     0.022 C 
HETATM   26  C13 UNL     1      -6.953  28.440   3.308  1.00  0.00     0.129 C 
HETATM   27  N3  UNL     1      -7.460  28.528   1.900  1.00  0.00    -0.321 N 
HETATM   28  C14 UNL     1      -7.594  29.794   1.322  1.00  0.00     0.319 C 
HETATM   29  O4  UNL     1      -8.047  29.963   0.183  1.00  0.00    -0.247 OA
HETATM   30  N4  UNL     1      -7.205  30.983   2.025  1.00  0.00    -0.328 N 
ATOM     31  H4  UNL     1      -6.833  30.929   2.973  1.00  0.00     0.165 HD
BRANCH  30  32
HETATM   32  C15 UNL     1      -7.357  32.293   1.344  1.00  0.00     0.191 C 
BRANCH  32  33
HETATM   33  C16 UNL     1      -6.038  32.968   1.430  1.00  0.00     0.197 C 
HETATM   34  O5  UNL     1      -4.966  32.273   1.421  1.00  0.00    -0.646 OA
HETATM   35  O6  UNL     1      -5.848  34.329   1.514  1.00  0.00    -0.646 OA
ENDBRANCH  32  33
BRANCH  32  36
HETATM   36  C17 UNL     1      -8.499  33.036   1.953  1.00  0.00     0.014 C 
HETATM   37  C18 UNL     1      -9.767  32.932   1.126  1.00  0.00     0.012 C 
BRANCH  36  38
HETATM   38  C19 UNL     1      -8.797  32.843   3.381  1.00  0.00     0.002 C 
HETATM   39  C20 UNL     1      -8.183  33.811   4.354  1.00  0.00     0.005 C 
ENDBRANCH  36  38
ENDBRANCH  32  36
ENDBRANCH  30  32
ENDBRANCH   3  23
TORSDOF 13
ENDMDL
MODEL 3
REMARK VINA RESULT: -7.301060655      1.407      1.576
REMARK  13 active torsions:
REMARK  status: ('A' for Active; 'I' for Inactive)
REMARK    1  A    between atoms: C2_2  and  O1_3 
REMARK    2  A    between atoms: O1_3  and  C3_4 
REMARK       I    between atoms: C3_4  and  N1_6 
REMARK    3  A    between atoms: C6_9  and  C7_10 
REMARK    4  A    between atoms: C7_10  and  C8_11 
REMARK    5  A    between atoms: C8_11  and  N2_12 
REMARK    6  A    between atoms: C8_11  and  C21_33 
REMARK       I    between atoms: N2_12  and  C9_14 
REMARK    7  A    between atoms: C9_14  and  C10_16 
REMARK       I    between atoms: N3_20  and  C14_21 
REMARK       I    between atoms: C14_21  and  N4_23 
REMARK    8  A    between atoms: N4_23  and  C15_25 
REMARK    9  A    between atoms: C15_25  and  C16_26 
REMARK   10  A    between atoms: C15_25  and  C17_29 
REMARK   11  A    between atoms: C17_29  and  C19_31 
REMARK   12  A    between atoms: C21_33  and  C22_35 
REMARK   13  A    between atoms: C22_35  and  C23_36 
ROOT
HETATM    1  N2  UNL     1      -6.415  27.243  -0.400  1.00  0.00    -0.348 N 
ATOM      2  H2  UNL     1      -5.875  28.028  -0.035  1.00  0.00     0.163 HD
HETATM    3  C9  UNL     1      -7.433  26.651   0.416  1.00  0.00     0.241 C 
HETATM    4  O3  UNL     1      -8.059  25.714  -0.097  1.00  0.00    -0.271 OA
ENDROOT
BRANCH   1   5
HETATM    5  C8  UNL     1      -6.129  26.733  -1.772  1.00  0.00     0.154 C 
BRANCH   5   6
HETATM    6  C7  UNL     1      -6.877  27.663  -2.655  1.00  0.00     0.039 C 
BRANCH   6   7
HETATM    7  C6  UNL     1      -7.426  27.185  -3.936  1.00  0.00     0.007 C 
HETATM    8  C5  UNL     1      -7.506  25.671  -4.033  1.00  0.00     0.026 C 
HETATM    9  C4  UNL     1      -8.464  25.559  -5.233  1.00  0.00     0.128 C 
HETATM   10  N1  UNL     1      -9.428  26.612  -4.959  1.00  0.00    -0.328 N 
HETATM   11  C3  UNL     1     -10.691  26.701  -5.609  1.00  0.00     0.362 C 
HETATM   12  C26 UNL     1      -8.948  27.512  -3.960  1.00  0.00     0.132 C 
HETATM   13  O2  UNL     1     -11.499  27.638  -5.348  1.00  0.00    -0.238 OA
BRANCH  11  14
HETATM   14  O1  UNL     1     -11.130  25.789  -6.562  1.00  0.00    -0.304 OA
BRANCH  14  15
HETATM   15  C2  UNL     1     -11.466  26.226  -7.892  1.00  0.00     0.176 C 
HETATM   16  C1  UNL     1     -10.187  26.724  -8.519  1.00  0.00     0.034 C 
ENDBRANCH  14  15
ENDBRANCH  11  14
ENDBRANCH   6   7
ENDBRANCH   5   6
BRANCH   5  17
HETATM   17  C21 UNL     1      -4.693  26.595  -1.940  1.00  0.00     0.149 C 
HETATM   18  O7  UNL     1      -4.059  27.576  -2.398  1.00  0.00    -0.296 OA
BRANCH  17  19
HETATM   19  C22 UNL     1      -3.877  25.424  -1.626  1.00  0.00     0.084 C 
BRANCH  19  20
HETATM   20  C23 UNL     1      -3.819  25.165  -0.104  1.00  0.00    -0.016 C 
HETATM   21  C24 UNL     1      -4.596  23.915   0.258  1.00  0.00     0.010 C 
HETATM   22  C25 UNL     1      -2.372  24.938   0.300  1.00  0.00     0.010 C 
ENDBRANCH  19  20
ENDBRANCH  17  19
ENDBRANCH   5  17
ENDBRANCH   1   5
BRANCH   3  23
HETATM   23  C10 UNL     1      -7.666  27.169   1.753  1.00  0.00     0.181 C 
HETATM   24  C11 UNL     1      -6.833  26.320   2.721  1.00  0.00     0.037 C 
HETATM   25  C12 UNL     1      -6.984  27.150   3.982  1.00  0.00     0.022 C 
HETATM   26  C13 UNL     1      -6.980  28.555   3.498  1.00  0.00     0.129 C 
HETATM   27  N3  UNL     1      -7.437  28.511   2.071  1.00  0.00    -0.321 N 
HETATM   28  C14 UNL     1      -7.559  29.719   1.377  1.00  0.00     0.319 C 
HETATM   29  O4  UNL     1      -7.973  29.781   0.213  1.00  0.00    -0.247 OA
HETATM   30  N4  UNL     1      -7.202  30.970   1.983  1.00  0.00    -0.328 N 
ATOM     31  H4  UNL     1      -6.863  31.005   2.944  1.00  0.00     0.165 HD
BRANCH  30  32
HETATM   32  C15 UNL     1      -7.337  32.212   1.182  1.00  0.00     0.191 C 
BRANCH  32  33
HETATM   33  C16 UNL     1      -6.054  32.944   1.318  1.00  0.00     0.197 C 
HETATM   34  O5  UNL     1      -4.954  32.296   1.372  1.00  0.00    -0.646 OA
HETATM   35  O6  UNL     1      -5.926  34.313   1.390  1.00  0.00    -0.646 OA
ENDBRANCH  32  33
BRANCH  32  36
HETATM   36  C17 UNL     1      -8.552  32.956   1.628  1.00  0.00     0.014 C 
HETATM   37  C18 UNL     1      -9.726  32.768   0.687  1.00  0.00     0.012 C 
BRANCH  36  38
HETATM   38  C19 UNL     1      -8.988  32.838   3.028  1.00  0.00     0.002 C 
HETATM   39  C20 UNL     1      -8.490  33.872   3.999  1.00  0.00     0.005 C 
ENDBRANCH  36  38
ENDBRANCH  32  36
ENDBRANCH  30  32
ENDBRANCH   3  23
TORSDOF 13
ENDMDL
MODEL 4
REMARK VINA RESULT: -7.279421974      1.448      1.786
REMARK  13 active torsions:
REMARK  status: ('A' for Active; 'I' for Inactive)
REMARK    1  A    between atoms: C2_2  and  O1_3 
REMARK    2  A    between atoms: O1_3  and  C3_4 
REMARK       I    between atoms: C3_4  and  N1_6 
REMARK    3  A    between atoms: C6_9  and  C7_10 
REMARK    4  A    between atoms: C7_10  and  C8_11 
REMARK    5  A    between atoms: C8_11  and  N2_12 
REMARK    6  A    between atoms: C8_11  and  C21_33 
REMARK       I    between atoms: N2_12  and  C9_14 
REMARK    7  A    between atoms: C9_14  and  C10_16 
REMARK       I    between atoms: N3_20  and  C14_21 
REMARK       I    between atoms: C14_21  and  N4_23 
REMARK    8  A    between atoms: N4_23  and  C15_25 
REMARK    9  A    between atoms: C15_25  and  C16_26 
REMARK   10  A    between atoms: C15_25  and  C17_29 
REMARK   11  A    between atoms: C17_29  and  C19_31 
REMARK   12  A    between atoms: C21_33  and  C22_35 
REMARK   13  A    between atoms: C22_35  and  C23_36 
ROOT
HETATM    1  N2  UNL     1      -7.076  26.763  -0.517  1.00  0.00    -0.348 N 
ATOM      2  H2  UNL     1      -6.149  26.882  -0.108  1.00  0.00     0.163 HD
HETATM    3  C9  UNL     1      -8.235  26.978   0.296  1.00  0.00     0.241 C 
HETATM    4  O3  UNL     1      -9.327  26.833  -0.270  1.00  0.00    -0.271 OA
ENDROOT
BRANCH   1   5
HETATM    5  C8  UNL     1      -7.198  26.369  -1.950  1.00  0.00     0.154 C 
BRANCH   5   6
HETATM    6  C7  UNL     1      -7.186  27.665  -2.673  1.00  0.00     0.039 C 
BRANCH   6   7
HETATM    7  C6  UNL     1      -8.080  27.877  -3.825  1.00  0.00     0.007 C 
HETATM    8  C5  UNL     1      -9.282  28.749  -3.505  1.00  0.00     0.026 C 
HETATM    9  C4  UNL     1      -9.718  29.091  -4.941  1.00  0.00     0.128 C 
HETATM   10  N1  UNL     1      -8.444  29.321  -5.604  1.00  0.00    -0.328 N 
HETATM   11  C3  UNL     1      -8.328  29.977  -6.862  1.00  0.00     0.362 C 
HETATM   12  C26 UNL     1      -7.355  28.821  -4.830  1.00  0.00     0.132 C 
HETATM   13  O2  UNL     1      -7.201  30.151  -7.410  1.00  0.00    -0.238 OA
BRANCH  11  14
HETATM   14  O1  UNL     1      -9.415  30.469  -7.575  1.00  0.00    -0.304 OA
BRANCH  14  15
HETATM   15  C2  UNL     1     -10.426  29.575  -8.077  1.00  0.00     0.176 C 
HETATM   16  C1  UNL     1      -9.700  28.398  -8.679  1.00  0.00     0.034 C 
ENDBRANCH  14  15
ENDBRANCH  11  14
ENDBRANCH   6   7
ENDBRANCH   5   6
BRANCH   5  17
HETATM   17  C21 UNL     1      -6.186  25.374  -2.259  1.00  0.00     0.149 C 
HETATM   18  O7  UNL     1      -6.078  24.389  -1.490  1.00  0.00    -0.296 OA
BRANCH  17  19
HETATM   19  C22 UNL     1      -5.259  25.380  -3.390  1.00  0.00     0.084 C 
BRANCH  19  20
HETATM   20  C23 UNL     1      -4.011  26.241  -3.093  1.00  0.00    -0.016 C 
HETATM   21  C24 UNL     1      -2.747  25.413  -3.212  1.00  0.00     0.010 C 
HETATM   22  C25 UNL     1      -3.927  27.355  -4.123  1.00  0.00     0.010 C 
ENDBRANCH  19  20
ENDBRANCH  17  19
ENDBRANCH   5  17
ENDBRANCH   1   5
BRANCH   3  23
HETATM   23  C10 UNL     1      -8.069  27.345   1.693  1.00  0.00     0.181 C 
HETATM   24  C11 UNL     1      -7.122  26.316   2.322  1.00  0.00     0.037 C 
HETATM   25  C12 UNL     1      -6.860  26.993   3.655  1.00  0.00     0.022 C 
HETATM   26  C13 UNL     1      -6.820  28.443   3.327  1.00  0.00     0.129 C 
HETATM   27  N3  UNL     1      -7.620  28.613   2.070  1.00  0.00    -0.321 N 
HETATM   28  C14 UNL     1      -7.775  29.903   1.554  1.00  0.00     0.319 C 
HETATM   29  O4  UNL     1      -8.456  30.143   0.549  1.00  0.00    -0.247 OA
HETATM   30  N4  UNL     1      -7.142  31.036   2.167  1.00  0.00    -0.328 N 
ATOM     31  H4  UNL     1      -6.572  30.924   3.005  1.00  0.00     0.165 HD
BRANCH  30  32
HETATM   32  C15 UNL     1      -7.332  32.374   1.554  1.00  0.00     0.191 C 
BRANCH  32  33
HETATM   33  C16 UNL     1      -5.988  32.999   1.475  1.00  0.00     0.197 C 
HETATM   34  O5  UNL     1      -4.947  32.260   1.403  1.00  0.00    -0.646 OA
HETATM   35  O6  UNL     1      -5.742  34.353   1.466  1.00  0.00    -0.646 OA
ENDBRANCH  32  33
BRANCH  32  36
HETATM   36  C17 UNL     1      -8.348  33.135   2.339  1.00  0.00     0.014 C 
HETATM   37  C18 UNL     1      -9.704  33.165   1.660  1.00  0.00     0.012 C 
BRANCH  36  38
HETATM   38  C19 UNL     1      -8.497  32.856   3.776  1.00  0.00     0.002 C 
HETATM   39  C20 UNL     1      -8.153  33.961   4.736  1.00  0.00     0.005 C 
ENDBRANCH  36  38
ENDBRANCH  32  36
ENDBRANCH  30  32
ENDBRANCH   3  23
TORSDOF 13
ENDMDL
MODEL 5
REMARK VINA RESULT: -7.251266524      1.965      2.411
REMARK  13 active torsions:
REMARK  status: ('A' for Active; 'I' for Inactive)
REMARK    1  A    between atoms: C2_2  and  O1_3 
REMARK    2  A    between atoms: O1_3  and  C3_4 
REMARK       I    between atoms: C3_4  and  N1_6 
REMARK    3  A    between atoms: C6_9  and  C7_10 
REMARK    4  A    between atoms: C7_10  and  C8_11 
REMARK    5  A    between atoms: C8_11  and  N2_12 
REMARK    6  A    between atoms: C8_11  and  C21_33 
REMARK       I    between atoms: N2_12  and  C9_14 
REMARK    7  A    between atoms: C9_14  and  C10_16 
REMARK       I    between atoms: N3_20  and  C14_21 
REMARK       I    between atoms: C14_21  and  N4_23 
REMARK    8  A    between atoms: N4_23  and  C15_25 
REMARK    9  A    between atoms: C15_25  and  C16_26 
REMARK   10  A    between atoms: C15_25  and  C17_29 
REMARK   11  A    between atoms: C17_29  and  C19_31 
REMARK   12  A    between atoms: C21_33  and  C22_35 
REMARK   13  A    between atoms: C22_35  and  C23_36 
ROOT
HETATM    1  N2  UNL     1      -6.682  27.363  -0.529  1.00  0.00    -0.348 N 
ATOM      2  H2  UNL     1      -6.155  28.171  -0.198  1.00  0.00     0.163 HD
HETATM    3  C9  UNL     1      -7.601  26.713   0.356  1.00  0.00     0.241 C 
HETATM    4  O3  UNL     1      -8.218  25.749  -0.118  1.00  0.00    -0.271 OA
ENDROOT
BRANCH   1   5
HETATM    5  C8  UNL     1      -6.480  26.881  -1.926  1.00  0.00     0.154 C 
BRANCH   5   6
HETATM    6  C7  UNL     1      -7.068  27.960  -2.758  1.00  0.00     0.039 C 
BRANCH   6   7
HETATM    7  C6  UNL     1      -8.036  27.630  -3.819  1.00  0.00     0.007 C 
HETATM    8  C5  UNL     1      -7.424  26.867  -4.981  1.00  0.00     0.026 C 
HETATM    9  C4  UNL     1      -8.718  26.348  -5.634  1.00  0.00     0.128 C 
HETATM   10  N1  UNL     1      -9.518  25.971  -4.480  1.00  0.00    -0.328 N 
HETATM   11  C3  UNL     1     -10.671  25.142  -4.569  1.00  0.00     0.362 C 
HETATM   12  C26 UNL     1      -8.989  26.524  -3.275  1.00  0.00     0.132 C 
HETATM   13  O2  UNL     1     -11.345  24.843  -3.541  1.00  0.00    -0.238 OA
BRANCH  11  14
HETATM   14  O1  UNL     1     -11.142  24.605  -5.762  1.00  0.00    -0.304 OA
BRANCH  14  15
HETATM   15  C2  UNL     1     -11.217  23.179  -5.943  1.00  0.00     0.176 C 
HETATM   16  C1  UNL     1     -10.059  22.795  -6.831  1.00  0.00     0.034 C 
ENDBRANCH  14  15
ENDBRANCH  11  14
ENDBRANCH   6   7
ENDBRANCH   5   6
BRANCH   5  17
HETATM   17  C21 UNL     1      -5.085  26.523  -2.110  1.00  0.00     0.149 C 
HETATM   18  O7  UNL     1      -4.322  27.378  -2.619  1.00  0.00    -0.296 OA
BRANCH  17  19
HETATM   19  C22 UNL     1      -4.445  25.256  -1.759  1.00  0.00     0.084 C 
BRANCH  19  20
HETATM   20  C23 UNL     1      -4.211  25.143  -0.236  1.00  0.00    -0.016 C 
HETATM   21  C24 UNL     1      -4.901  23.915   0.324  1.00  0.00     0.010 C 
HETATM   22  C25 UNL     1      -2.722  24.989   0.021  1.00  0.00     0.010 C 
ENDBRANCH  19  20
ENDBRANCH  17  19
ENDBRANCH   5  17
ENDBRANCH   1   5
BRANCH   3  23
HETATM   23  C10 UNL     1      -7.753  27.207   1.715  1.00  0.00     0.181 C 
HETATM   24  C11 UNL     1      -6.840  26.361   2.611  1.00  0.00     0.037 C 
HETATM   25  C12 UNL     1      -6.922  27.169   3.892  1.00  0.00     0.022 C 
HETATM   26  C13 UNL     1      -6.978  28.581   3.431  1.00  0.00     0.129 C 
HETATM   27  N3  UNL     1      -7.530  28.548   2.037  1.00  0.00    -0.321 N 
HETATM   28  C14 UNL     1      -7.722  29.763   1.372  1.00  0.00     0.319 C 
HETATM   29  O4  UNL     1      -8.214  29.833   0.240  1.00  0.00    -0.247 OA
HETATM   30  N4  UNL     1      -7.350  31.012   1.973  1.00  0.00    -0.328 N 
ATOM     31  H4  UNL     1      -6.947  31.040   2.910  1.00  0.00     0.165 HD
BRANCH  30  32
HETATM   32  C15 UNL     1      -7.563  32.263   1.203  1.00  0.00     0.191 C 
BRANCH  32  33
HETATM   33  C16 UNL     1      -6.275  33.000   1.229  1.00  0.00     0.197 C 
HETATM   34  O5  UNL     1      -6.272  34.277   1.201  1.00  0.00    -0.646 OA
HETATM   35  O6  UNL     1      -5.029  32.417   1.290  1.00  0.00    -0.646 OA
ENDBRANCH  32  33
BRANCH  32  36
HETATM   36  C17 UNL     1      -8.733  32.996   1.768  1.00  0.00     0.014 C 
HETATM   37  C18 UNL     1      -9.971  32.872   0.900  1.00  0.00     0.012 C 
BRANCH  36  38
HETATM   38  C19 UNL     1      -9.077  32.809   3.186  1.00  0.00     0.002 C 
HETATM   39  C20 UNL     1      -8.409  33.711   4.186  1.00  0.00     0.005 C 
ENDBRANCH  36  38
ENDBRANCH  32  36
ENDBRANCH  30  32
ENDBRANCH   3  23
TORSDOF 13
ENDMDL
