MODEL 1
REMARK VINA RESULT: -7.509413006      0.000      0.000
REMARK  10 active torsions:
REMARK  status: ('A' for Active; 'I' for Inactive)
REMARK    1  A    between atoms: N1_1  and  C1_5 
REMARK    2  A    between atoms: C1_5  and  C2_6 
REMARK    3  A    between atoms: C2_6  and  C3_7 
REMARK    4  A    between atoms: C3_7  and  C4_8 
REMARK    5  A    between atoms: C4_8  and  N2_9 
REMARK    6  A    between atoms: N2_9  and  S1_11 
REMARK    7  A    between atoms: S1_11  and  N3_12 
REMARK    8  A    between atoms: N4_17  and  N5_19 
REMARK    9  A    between atoms: N5_19  and  C5_21 
REMARK   10  A    between atoms: N7_27  and  N8_28 
ROOT
HETATM    1  C3  UNL     1      17.481 -18.564  42.784  1.00  0.00     0.024 C 
HETATM    2  N4  UNL     1      17.323 -17.596  41.958  1.00  0.00    -0.293 N 
ATOM      3  H4  UNL     1      17.993 -16.829  42.009  1.00  0.00     0.187 HD
ENDROOT
BRANCH   1   4
HETATM    4  C2  UNL     1      18.593 -18.531  43.746  1.00  0.00     0.083 C 
BRANCH   4   5
HETATM    5  C1  UNL     1      19.193 -17.190  43.989  1.00  0.00     0.235 C 
BRANCH   5   6
HETATM    6  N1  UNL     1      20.342 -17.267  44.878  1.00  0.00    -0.079 N 
ATOM      7  H13 UNL     1      20.088 -17.024  45.835  1.00  0.00     0.274 HD
ATOM      8  H12 UNL     1      20.630 -18.234  45.031  1.00  0.00     0.274 HD
ATOM      9  H11 UNL     1      21.118 -16.696  44.543  1.00  0.00     0.274 HD
ENDBRANCH   5   6
ENDBRANCH   4   5
ENDBRANCH   1   4
BRANCH   1  10
HETATM   10  C4  UNL     1      16.551 -19.692  42.757  1.00  0.00     0.187 C 
BRANCH  10  11
HETATM   11  N2  UNL     1      15.261 -19.453  43.333  1.00  0.00    -0.298 N 
ATOM     12  H2  UNL     1      14.580 -18.759  43.025  1.00  0.00     0.174 HD
BRANCH  11  13
HETATM   13  S1  UNL     1      15.072 -20.567  44.654  1.00  0.00     0.313 S 
HETATM   14  O1  UNL     1      13.828 -20.276  45.406  1.00  0.00    -0.183 OA
HETATM   15  O2  UNL     1      16.293 -20.396  45.538  1.00  0.00    -0.183 OA
BRANCH  13  16
HETATM   16  N3  UNL     1      15.113 -22.200  44.078  1.00  0.00    -0.312 N 
ATOM     17  H32 UNL     1      15.513 -22.479  43.182  1.00  0.00     0.170 HD
ATOM     18  H31 UNL     1      14.685 -22.829  44.758  1.00  0.00     0.170 HD
ENDBRANCH  13  16
ENDBRANCH  11  13
ENDBRANCH  10  11
ENDBRANCH   1  10
BRANCH   2  19
HETATM   19  N5  UNL     1      16.329 -17.498  41.009  1.00  0.00    -0.131 N 
ATOM     20  H5  UNL     1      15.447 -17.068  41.291  1.00  0.00     0.205 HD
BRANCH  19  21
HETATM   21  C5  UNL     1      16.438 -17.954  39.657  1.00  0.00     0.709 C 
HETATM   22  N6  UNL     1      16.012 -19.103  39.279  1.00  0.00    -0.223 N 
HETATM   23  C6  UNL     1      16.123 -19.558  37.920  1.00  0.00     0.140 C 
ATOM     24  H6  UNL     1      15.578 -19.716  39.968  1.00  0.00     0.177 HD
HETATM   25  C7  UNL     1      16.678 -18.571  36.955  1.00  0.00     0.042 C 
HETATM   26  C8  UNL     1      17.681 -17.626  37.573  1.00  0.00     0.169 C 
HETATM   27  N7  UNL     1      17.050 -17.059  38.747  1.00  0.00    -0.129 N 
BRANCH  27  28
HETATM   28  N8  UNL     1      17.062 -15.674  38.947  1.00  0.00    -0.329 N 
ATOM     29  H82 UNL     1      17.945 -15.164  38.929  1.00  0.00     0.177 HD
ATOM     30  H81 UNL     1      16.211 -15.137  39.115  1.00  0.00     0.177 HD
ENDBRANCH  27  28
ENDBRANCH  19  21
ENDBRANCH   2  19
TORSDOF 10
ENDMDL
MODEL 2
REMARK VINA RESULT: -7.380161657      2.676      5.562
REMARK  10 active torsions:
REMARK  status: ('A' for Active; 'I' for Inactive)
REMARK    1  A    between atoms: N1_1  and  C1_5 
REMARK    2  A    between atoms: C1_5  and  C2_6 
REMARK    3  A    between atoms: C2_6  and  C3_7 
REMARK    4  A    between atoms: C3_7  and  C4_8 
REMARK    5  A    between atoms: C4_8  and  N2_9 
REMARK    6  A    between atoms: N2_9  and  S1_11 
REMARK    7  A    between atoms: S1_11  and  N3_12 
REMARK    8  A    between atoms: N4_17  and  N5_19 
REMARK    9  A    between atoms: N5_19  and  C5_21 
REMARK   10  A    between atoms: N7_27  and  N8_28 
ROOT
HETATM    1  C3  UNL     1      17.506 -18.536  40.536  1.00  0.00     0.024 C 
HETATM    2  N4  UNL     1      18.767 -18.384  40.717  1.00  0.00    -0.293 N 
ATOM      3  H4  UNL     1      19.355 -18.355  39.884  1.00  0.00     0.187 HD
ENDROOT
BRANCH   1   4
HETATM    4  C2  UNL     1      16.973 -18.660  39.170  1.00  0.00     0.083 C 
BRANCH   4   5
HETATM    5  C1  UNL     1      17.345 -17.565  38.232  1.00  0.00     0.235 C 
BRANCH   5   6
HETATM    6  N1  UNL     1      16.188 -17.054  37.514  1.00  0.00    -0.079 N 
ATOM      7  H13 UNL     1      15.440 -16.791  38.155  1.00  0.00     0.274 HD
ATOM      8  H12 UNL     1      16.378 -16.138  37.107  1.00  0.00     0.274 HD
ATOM      9  H11 UNL     1      15.860 -17.714  36.809  1.00  0.00     0.274 HD
ENDBRANCH   5   6
ENDBRANCH   4   5
ENDBRANCH   1   4
BRANCH   1  10
HETATM   10  C4  UNL     1      16.614 -18.585  41.693  1.00  0.00     0.187 C 
BRANCH  10  11
HETATM   11  N2  UNL     1      15.588 -19.584  41.650  1.00  0.00    -0.298 N 
ATOM     12  H2  UNL     1      15.722 -20.584  41.500  1.00  0.00     0.174 HD
BRANCH  11  13
HETATM   13  S1  UNL     1      14.070 -18.775  41.902  1.00  0.00     0.313 S 
HETATM   14  O1  UNL     1      13.413 -19.274  43.134  1.00  0.00    -0.183 OA
HETATM   15  O2  UNL     1      13.221 -19.064  40.679  1.00  0.00    -0.183 OA
BRANCH  13  16
HETATM   16  N3  UNL     1      14.299 -17.059  41.941  1.00  0.00    -0.312 N 
ATOM     17  H32 UNL     1      15.212 -16.606  41.932  1.00  0.00     0.170 HD
ATOM     18  H31 UNL     1      13.399 -16.580  41.975  1.00  0.00     0.170 HD
ENDBRANCH  13  16
ENDBRANCH  11  13
ENDBRANCH  10  11
ENDBRANCH   1  10
BRANCH   2  19
HETATM   19  N5  UNL     1      19.398 -18.257  41.935  1.00  0.00    -0.131 N 
ATOM     20  H5  UNL     1      19.318 -17.361  42.416  1.00  0.00     0.205 HD
BRANCH  19  21
HETATM   21  C5  UNL     1      20.157 -19.285  42.576  1.00  0.00     0.709 C 
HETATM   22  N6  UNL     1      20.680 -20.263  41.931  1.00  0.00    -0.223 N 
HETATM   23  C6  UNL     1      21.442 -21.295  42.577  1.00  0.00     0.140 C 
ATOM     24  H6  UNL     1      20.548 -20.310  40.921  1.00  0.00     0.177 HD
HETATM   25  C7  UNL     1      21.672 -21.107  44.035  1.00  0.00     0.042 C 
HETATM   26  C8  UNL     1      20.546 -20.381  44.732  1.00  0.00     0.169 C 
HETATM   27  N7  UNL     1      20.305 -19.167  43.979  1.00  0.00    -0.129 N 
BRANCH  27  28
HETATM   28  N8  UNL     1      20.225 -17.937  44.643  1.00  0.00    -0.329 N 
ATOM     29  H82 UNL     1      20.523 -17.083  44.171  1.00  0.00     0.177 HD
ATOM     30  H81 UNL     1      19.876 -17.851  45.597  1.00  0.00     0.177 HD
ENDBRANCH  27  28
ENDBRANCH  19  21
ENDBRANCH   2  19
TORSDOF 10
ENDMDL
MODEL 3
REMARK VINA RESULT: -7.369333932      1.556      1.863
REMARK  10 active torsions:
REMARK  status: ('A' for Active; 'I' for Inactive)
REMARK    1  A    between atoms: N1_1  and  C1_5 
REMARK    2  A    between atoms: C1_5  and  C2_6 
REMARK    3  A    between atoms: C2_6  and  C3_7 
REMARK    4  A    between atoms: C3_7  and  C4_8 
REMARK    5  A    between atoms: C4_8  and  N2_9 
REMARK    6  A    between atoms: N2_9  and  S1_11 
REMARK    7  A    between atoms: S1_11  and  N3_12 
REMARK    8  A    between atoms: N4_17  and  N5_19 
REMARK    9  A    between atoms: N5_19  and  C5_21 
REMARK   10  A    between atoms: N7_27  and  N8_28 
ROOT
HETATM    1  C3  UNL     1      17.794 -20.179  42.634  1.00  0.00     0.024 C 
HETATM    2  N4  UNL     1      17.512 -20.435  41.409  1.00  0.00    -0.293 N 
ATOM      3  H4  UNL     1      18.141 -21.063  40.909  1.00  0.00     0.187 HD
ENDROOT
BRANCH   1   4
HETATM    4  C2  UNL     1      18.982 -20.786  43.252  1.00  0.00     0.083 C 
BRANCH   4   5
HETATM    5  C1  UNL     1      20.265 -20.065  43.024  1.00  0.00     0.235 C 
BRANCH   5   6
HETATM    6  N1  UNL     1      20.627 -19.236  44.163  1.00  0.00    -0.079 N 
ATOM      7  H13 UNL     1      20.346 -18.266  44.021  1.00  0.00     0.274 HD
ATOM      8  H12 UNL     1      20.052 -19.451  44.978  1.00  0.00     0.274 HD
ATOM      9  H11 UNL     1      21.621 -19.306  44.381  1.00  0.00     0.274 HD
ENDBRANCH   5   6
ENDBRANCH   4   5
ENDBRANCH   1   4
BRANCH   1  10
HETATM   10  C4  UNL     1      16.927 -19.286  43.401  1.00  0.00     0.187 C 
BRANCH  10  11
HETATM   11  N2  UNL     1      16.366 -19.835  44.599  1.00  0.00    -0.298 N 
ATOM     12  H2  UNL     1      16.802 -19.850  45.521  1.00  0.00     0.174 HD
BRANCH  11  13
HETATM   13  S1  UNL     1      14.800 -20.471  44.190  1.00  0.00     0.313 S 
HETATM   14  O1  UNL     1      14.236 -19.752  43.024  1.00  0.00    -0.183 OA
HETATM   15  O2  UNL     1      13.928 -20.285  45.417  1.00  0.00    -0.183 OA
BRANCH  13  16
HETATM   16  N3  UNL     1      14.896 -22.178  43.914  1.00  0.00    -0.312 N 
ATOM     17  H32 UNL     1      14.212 -22.707  43.373  1.00  0.00     0.170 HD
ATOM     18  H31 UNL     1      15.724 -22.567  44.366  1.00  0.00     0.170 HD
ENDBRANCH  13  16
ENDBRANCH  11  13
ENDBRANCH  10  11
ENDBRANCH   1  10
BRANCH   2  19
HETATM   19  N5  UNL     1      16.435 -19.937  40.707  1.00  0.00    -0.131 N 
ATOM     20  H5  UNL     1      15.507 -20.074  41.109  1.00  0.00     0.205 HD
BRANCH  19  21
HETATM   21  C5  UNL     1      16.520 -19.244  39.459  1.00  0.00     0.709 C 
HETATM   22  N6  UNL     1      16.366 -19.832  38.330  1.00  0.00    -0.223 N 
HETATM   23  C6  UNL     1      16.451 -19.133  37.077  1.00  0.00     0.140 C 
ATOM     24  H6  UNL     1      16.177 -20.834  38.321  1.00  0.00     0.177 HD
HETATM   25  C7  UNL     1      16.632 -17.660  37.175  1.00  0.00     0.042 C 
HETATM   26  C8  UNL     1      17.417 -17.231  38.392  1.00  0.00     0.169 C 
HETATM   27  N7  UNL     1      16.785 -17.855  39.535  1.00  0.00    -0.129 N 
BRANCH  27  28
HETATM   28  N8  UNL     1      16.461 -17.089  40.661  1.00  0.00    -0.329 N 
ATOM     29  H82 UNL     1      17.167 -16.490  41.090  1.00  0.00     0.177 HD
ATOM     30  H81 UNL     1      15.533 -17.100  41.084  1.00  0.00     0.177 HD
ENDBRANCH  27  28
ENDBRANCH  19  21
ENDBRANCH   2  19
TORSDOF 10
ENDMDL
MODEL 4
REMARK VINA RESULT: -7.327931977      1.957      2.366
REMARK  10 active torsions:
REMARK  status: ('A' for Active; 'I' for Inactive)
REMARK    1  A    between atoms: N1_1  and  C1_5 
REMARK    2  A    between atoms: C1_5  and  C2_6 
REMARK    3  A    between atoms: C2_6  and  C3_7 
REMARK    4  A    between atoms: C3_7  and  C4_8 
REMARK    5  A    between atoms: C4_8  and  N2_9 
REMARK    6  A    between atoms: N2_9  and  S1_11 
REMARK    7  A    between atoms: S1_11  and  N3_12 
REMARK    8  A    between atoms: N4_17  and  N5_19 
REMARK    9  A    between atoms: N5_19  and  C5_21 
REMARK   10  A    between atoms: N7_27  and  N8_28 
ROOT
HETATM    1  C3  UNL     1      17.686 -19.060  42.578  1.00  0.00     0.024 C 
HETATM    2  N4  UNL     1      18.141 -18.526  41.503  1.00  0.00    -0.293 N 
ATOM      3  H4  UNL     1      19.132 -18.655  41.305  1.00  0.00     0.187 HD
ENDROOT
BRANCH   1   4
HETATM    4  C2  UNL     1      18.591 -19.815  43.458  1.00  0.00     0.083 C 
BRANCH   4   5
HETATM    5  C1  UNL     1      20.025 -19.417  43.402  1.00  0.00     0.235 C 
BRANCH   5   6
HETATM    6  N1  UNL     1      20.355 -18.445  44.433  1.00  0.00    -0.079 N 
ATOM      7  H13 UNL     1      20.736 -17.590  44.028  1.00  0.00     0.274 HD
ATOM      8  H12 UNL     1      19.514 -18.057  44.861  1.00  0.00     0.274 HD
ATOM      9  H11 UNL     1      20.983 -18.836  45.134  1.00  0.00     0.274 HD
ENDBRANCH   5   6
ENDBRANCH   4   5
ENDBRANCH   1   4
BRANCH   1  10
HETATM   10  C4  UNL     1      16.272 -18.909  42.914  1.00  0.00     0.187 C 
BRANCH  10  11
HETATM   11  N2  UNL     1      15.373 -19.816  42.262  1.00  0.00    -0.298 N 
ATOM     12  H2  UNL     1      15.517 -20.816  42.125  1.00  0.00     0.174 HD
BRANCH  11  13
HETATM   13  S1  UNL     1      13.992 -18.892  41.750  1.00  0.00     0.313 S 
HETATM   14  O1  UNL     1      12.772 -19.346  42.458  1.00  0.00    -0.183 OA
HETATM   15  O2  UNL     1      13.863 -19.108  40.254  1.00  0.00    -0.183 OA
BRANCH  13  16
HETATM   16  N3  UNL     1      14.280 -17.199  41.975  1.00  0.00    -0.312 N 
ATOM     17  H32 UNL     1      14.928 -16.651  41.410  1.00  0.00     0.170 HD
ATOM     18  H31 UNL     1      13.714 -16.841  42.744  1.00  0.00     0.170 HD
ENDBRANCH  13  16
ENDBRANCH  11  13
ENDBRANCH  10  11
ENDBRANCH   1  10
BRANCH   2  19
HETATM   19  N5  UNL     1      17.408 -17.796  40.593  1.00  0.00    -0.131 N 
ATOM     20  H5  UNL     1      17.080 -16.874  40.883  1.00  0.00     0.205 HD
BRANCH  19  21
HETATM   21  C5  UNL     1      17.074 -18.230  39.272  1.00  0.00     0.709 C 
HETATM   22  N6  UNL     1      16.721 -19.436  39.010  1.00  0.00    -0.223 N 
HETATM   23  C6  UNL     1      16.385 -19.870  37.682  1.00  0.00     0.140 C 
ATOM     24  H6  UNL     1      16.678 -20.111  39.773  1.00  0.00     0.177 HD
HETATM   25  C7  UNL     1      16.378 -18.807  36.641  1.00  0.00     0.042 C 
HETATM   26  C8  UNL     1      17.379 -17.707  36.900  1.00  0.00     0.169 C 
HETATM   27  N7  UNL     1      17.153 -17.249  38.255  1.00  0.00    -0.129 N 
BRANCH  27  28
HETATM   28  N8  UNL     1      17.024 -15.881  38.519  1.00  0.00    -0.329 N 
ATOM     29  H82 UNL     1      16.429 -15.301  37.925  1.00  0.00     0.177 HD
ATOM     30  H81 UNL     1      17.506 -15.423  39.292  1.00  0.00     0.177 HD
ENDBRANCH  27  28
ENDBRANCH  19  21
ENDBRANCH   2  19
TORSDOF 10
ENDMDL
MODEL 5
REMARK VINA RESULT: -7.229612684      2.491      5.317
REMARK  10 active torsions:
REMARK  status: ('A' for Active; 'I' for Inactive)
REMARK    1  A    between atoms: N1_1  and  C1_5 
REMARK    2  A    between atoms: C1_5  and  C2_6 
REMARK    3  A    between atoms: C2_6  and  C3_7 
REMARK    4  A    between atoms: C3_7  and  C4_8 
REMARK    5  A    between atoms: C4_8  and  N2_9 
REMARK    6  A    between atoms: N2_9  and  S1_11 
REMARK    7  A    between atoms: S1_11  and  N3_12 
REMARK    8  A    between atoms: N4_17  and  N5_19 
REMARK    9  A    between atoms: N5_19  and  C5_21 
REMARK   10  A    between atoms: N7_27  and  N8_28 
ROOT
HETATM    1  C3  UNL     1      16.526 -18.062  39.192  1.00  0.00     0.024 C 
HETATM    2  N4  UNL     1      17.386 -17.611  40.031  1.00  0.00    -0.293 N 
ATOM      3  H4  UNL     1      18.001 -16.864  39.709  1.00  0.00     0.187 HD
ENDROOT
BRANCH   1   4
HETATM    4  C2  UNL     1      16.464 -17.497  37.835  1.00  0.00     0.083 C 
BRANCH   4   5
HETATM    5  C1  UNL     1      17.228 -18.239  36.794  1.00  0.00     0.235 C 
BRANCH   5   6
HETATM    6  N1  UNL     1      16.463 -19.350  36.252  1.00  0.00    -0.079 N 
ATOM      7  H13 UNL     1      17.075 -20.085  35.898  1.00  0.00     0.274 HD
ATOM      8  H12 UNL     1      15.996 -19.875  36.992  1.00  0.00     0.274 HD
ATOM      9  H11 UNL     1      15.801 -19.042  35.540  1.00  0.00     0.274 HD
ENDBRANCH   5   6
ENDBRANCH   4   5
ENDBRANCH   1   4
BRANCH   1  10
HETATM   10  C4  UNL     1      15.617 -19.133  39.597  1.00  0.00     0.187 C 
BRANCH  10  11
HETATM   11  N2  UNL     1      14.259 -18.744  39.835  1.00  0.00    -0.298 N 
ATOM     12  H2  UNL     1      13.555 -18.538  39.126  1.00  0.00     0.174 HD
BRANCH  11  13
HETATM   13  S1  UNL     1      14.033 -18.689  41.558  1.00  0.00     0.313 S 
HETATM   14  O1  UNL     1      15.094 -19.461  42.246  1.00  0.00    -0.183 OA
HETATM   15  O2  UNL     1      12.665 -19.286  41.830  1.00  0.00    -0.183 OA
BRANCH  13  16
HETATM   16  N3  UNL     1      13.966 -17.048  42.107  1.00  0.00    -0.312 N 
ATOM     17  H32 UNL     1      13.438 -16.741  42.922  1.00  0.00     0.170 HD
ATOM     18  H31 UNL     1      14.525 -16.447  41.501  1.00  0.00     0.170 HD
ENDBRANCH  13  16
ENDBRANCH  11  13
ENDBRANCH  10  11
ENDBRANCH   1  10
BRANCH   2  19
HETATM   19  N5  UNL     1      17.553 -18.047  41.328  1.00  0.00    -0.131 N 
ATOM     20  H5  UNL     1      16.802 -17.853  41.990  1.00  0.00     0.205 HD
BRANCH  19  21
HETATM   21  C5  UNL     1      18.699 -18.749  41.815  1.00  0.00     0.709 C 
HETATM   22  N6  UNL     1      19.321 -19.627  41.116  1.00  0.00    -0.223 N 
HETATM   23  C6  UNL     1      20.472 -20.332  41.607  1.00  0.00     0.140 C 
ATOM     24  H6  UNL     1      18.984 -19.833  40.175  1.00  0.00     0.177 HD
HETATM   25  C7  UNL     1      20.961 -19.909  42.947  1.00  0.00     0.042 C 
HETATM   26  C8  UNL     1      19.861 -19.425  43.862  1.00  0.00     0.169 C 
HETATM   27  N7  UNL     1      19.119 -18.422  43.126  1.00  0.00    -0.129 N 
BRANCH  27  28
HETATM   28  N8  UNL     1      18.841 -17.184  43.718  1.00  0.00    -0.329 N 
ATOM     29  H82 UNL     1      17.896 -16.973  44.038  1.00  0.00     0.177 HD
ATOM     30  H81 UNL     1      19.554 -16.466  43.846  1.00  0.00     0.177 HD
ENDBRANCH  27  28
ENDBRANCH  19  21
ENDBRANCH   2  19
TORSDOF 10
ENDMDL
