MODEL 1
REMARK VINA RESULT: -6.925589853      0.000      0.000
REMARK  9 active torsions:
REMARK  status: ('A' for Active; 'I' for Inactive)
REMARK    1  A    between atoms: C1_4  and  C2_5 
REMARK    2  A    between atoms: C1_4  and  N7_30 
REMARK    3  A    between atoms: C2_5  and  C3_6 
REMARK    4  A    between atoms: C3_6  and  N2_7 
REMARK       I    between atoms: N2_7  and  C4_9 
REMARK    5  A    between atoms: C4_9  and  C5_11 
REMARK    6  A    between atoms: C9_21  and  N5_22 
REMARK    7  A    between atoms: N7_30  and  C11_32 
REMARK    8  A    between atoms: C11_32  and  C12_33 
REMARK    9  A    between atoms: C12_33  and  N8_34 
ROOT
HETATM    1  C5  UNL     1      20.555 -33.501  16.993  1.00  0.00     0.379 C 
HETATM    2  N3  UNL     1      21.598 -33.795  16.025  1.00  0.00    -0.044 N 
ATOM      3  H31 UNL     1      22.057 -32.938  15.714  1.00  0.00     0.280 HD
ATOM      4  H32 UNL     1      21.196 -34.100  15.139  1.00  0.00     0.280 HD
HETATM    5  C6  UNL     1      22.567 -34.751  16.507  1.00  0.00     0.255 C 
HETATM    6  C7  UNL     1      22.089 -36.176  16.374  1.00  0.00     0.150 C 
HETATM    7  N4  UNL     1      21.778 -36.679  17.668  1.00  0.00    -0.357 N 
ATOM      8  H4  UNL     1      22.468 -37.309  18.078  1.00  0.00     0.162 HD
HETATM    9  C8  UNL     1      20.640 -36.418  18.455  1.00  0.00     0.257 C 
HETATM   10  O2  UNL     1      20.868 -36.306  19.715  1.00  0.00    -0.271 OA
HETATM   11  C9  UNL     1      19.257 -36.259  18.036  1.00  0.00     0.365 C 
HETATM   12  C10 UNL     1      19.003 -35.506  16.809  1.00  0.00     0.259 C 
HETATM   13  O3  UNL     1      18.402 -36.129  15.865  1.00  0.00    -0.271 OA
HETATM   14  N6  UNL     1      19.348 -34.178  16.564  1.00  0.00    -0.324 N 
ATOM     15  H6  UNL     1      18.680 -33.625  16.026  1.00  0.00     0.165 HD
ENDROOT
BRANCH   1  16
HETATM   16  C4  UNL     1      20.329 -32.036  17.056  1.00  0.00     0.268 C 
HETATM   17  N2  UNL     1      20.760 -31.330  18.193  1.00  0.00    -0.357 N 
ATOM     18  H2  UNL     1      21.220 -31.833  18.952  1.00  0.00     0.162 HD
HETATM   19  O1  UNL     1      19.767 -31.403  16.130  1.00  0.00    -0.269 OA
BRANCH  17  20
HETATM   20  C3  UNL     1      20.564 -29.908  18.302  1.00  0.00     0.130 C 
BRANCH  20  21
HETATM   21  C2  UNL     1      19.749 -29.582  19.526  1.00  0.00     0.095 C 
BRANCH  21  22
HETATM   22  C1  UNL     1      18.488 -30.338  19.583  1.00  0.00     0.072 C 
HETATM   23  N1  UNL     1      17.492 -29.985  18.865  1.00  0.00    -0.389 N 
ATOM     24  H12 UNL     1      17.614 -29.171  18.263  1.00  0.00     0.157 HD
ATOM     25  H11 UNL     1      16.618 -30.508  18.905  1.00  0.00     0.157 HD
BRANCH  22  26
HETATM   26  N7  UNL     1      18.318 -31.471  20.422  1.00  0.00    -0.379 N 
ATOM     27  H7  UNL     1      17.594 -32.166  20.239  1.00  0.00     0.160 HD
BRANCH  26  28
HETATM   28  C11 UNL     1      19.220 -31.597  21.552  1.00  0.00     0.148 C 
BRANCH  28  29
HETATM   29  C12 UNL     1      18.628 -32.549  22.560  1.00  0.00     0.249 C 
BRANCH  29  30
HETATM   30  N8  UNL     1      17.659 -31.849  23.388  1.00  0.00    -0.078 N 
ATOM     31  H83 UNL     1      18.037 -31.614  24.305  1.00  0.00     0.274 HD
ATOM     32  H82 UNL     1      17.483 -30.901  23.054  1.00  0.00     0.274 HD
ATOM     33  H81 UNL     1      16.802 -32.397  23.455  1.00  0.00     0.274 HD
ENDBRANCH  29  30
ENDBRANCH  28  29
ENDBRANCH  26  28
ENDBRANCH  22  26
ENDBRANCH  21  22
ENDBRANCH  20  21
ENDBRANCH  17  20
ENDBRANCH   1  16
BRANCH  11  34
HETATM   34  N5  UNL     1      18.476 -35.565  19.078  1.00  0.00    -0.058 N 
ATOM     35  H53 UNL     1      19.070 -35.236  19.839  1.00  0.00     0.275 HD
ATOM     36  H52 UNL     1      18.129 -34.663  18.753  1.00  0.00     0.275 HD
ATOM     37  H51 UNL     1      17.722 -36.161  19.417  1.00  0.00     0.275 HD
ENDBRANCH  11  34
TORSDOF 9
ENDMDL
MODEL 2
REMARK VINA RESULT: -6.789025904      1.304      1.399
REMARK  9 active torsions:
REMARK  status: ('A' for Active; 'I' for Inactive)
REMARK    1  A    between atoms: C1_4  and  C2_5 
REMARK    2  A    between atoms: C1_4  and  N7_30 
REMARK    3  A    between atoms: C2_5  and  C3_6 
REMARK    4  A    between atoms: C3_6  and  N2_7 
REMARK       I    between atoms: N2_7  and  C4_9 
REMARK    5  A    between atoms: C4_9  and  C5_11 
REMARK    6  A    between atoms: C9_21  and  N5_22 
REMARK    7  A    between atoms: N7_30  and  C11_32 
REMARK    8  A    between atoms: C11_32  and  C12_33 
REMARK    9  A    between atoms: C12_33  and  N8_34 
ROOT
HETATM    1  C5  UNL     1      19.814 -33.223  17.442  1.00  0.00     0.379 C 
HETATM    2  N3  UNL     1      20.821 -33.054  16.409  1.00  0.00    -0.044 N 
ATOM      3  H31 UNL     1      21.060 -32.069  16.292  1.00  0.00     0.280 HD
ATOM      4  H32 UNL     1      20.430 -33.244  15.486  1.00  0.00     0.280 HD
HETATM    5  C6  UNL     1      22.007 -33.847  16.637  1.00  0.00     0.255 C 
HETATM    6  C7  UNL     1      21.840 -35.279  16.194  1.00  0.00     0.150 C 
HETATM    7  N4  UNL     1      21.742 -36.109  17.346  1.00  0.00    -0.357 N 
ATOM      8  H4  UNL     1      22.579 -36.639  17.585  1.00  0.00     0.162 HD
HETATM    9  C8  UNL     1      20.635 -36.291  18.198  1.00  0.00     0.257 C 
HETATM   10  O2  UNL     1      20.926 -36.406  19.444  1.00  0.00    -0.271 OA
HETATM   11  C9  UNL     1      19.223 -36.363  17.858  1.00  0.00     0.365 C 
HETATM   12  C10 UNL     1      18.723 -35.439  16.841  1.00  0.00     0.259 C 
HETATM   13  O3  UNL     1      18.203 -35.962  15.794  1.00  0.00    -0.271 OA
HETATM   14  N6  UNL     1      18.753 -34.047  16.898  1.00  0.00    -0.324 N 
ATOM     15  H6  UNL     1      17.944 -33.557  16.516  1.00  0.00     0.165 HD
ENDROOT
BRANCH   1  16
HETATM   16  C4  UNL     1      19.281 -31.897  17.843  1.00  0.00     0.268 C 
HETATM   17  N2  UNL     1      20.040 -30.747  17.561  1.00  0.00    -0.357 N 
ATOM     18  H2  UNL     1      20.939 -30.841  17.088  1.00  0.00     0.162 HD
HETATM   19  O1  UNL     1      18.178 -31.765  18.423  1.00  0.00    -0.269 OA
BRANCH  17  20
HETATM   20  C3  UNL     1      19.567 -29.438  17.930  1.00  0.00     0.130 C 
BRANCH  20  21
HETATM   21  C2  UNL     1      20.343 -28.911  19.107  1.00  0.00     0.095 C 
BRANCH  21  22
HETATM   22  C1  UNL     1      19.541 -28.866  20.339  1.00  0.00     0.072 C 
HETATM   23  N1  UNL     1      19.393 -27.765  20.971  1.00  0.00    -0.389 N 
ATOM     24  H12 UNL     1      19.848 -26.938  20.585  1.00  0.00     0.157 HD
ATOM     25  H11 UNL     1      18.837 -27.733  21.826  1.00  0.00     0.157 HD
BRANCH  22  26
HETATM   26  N7  UNL     1      18.907 -30.017  20.877  1.00  0.00    -0.379 N 
ATOM     27  H7  UNL     1      17.893 -30.078  20.959  1.00  0.00     0.160 HD
BRANCH  26  28
HETATM   28  C11 UNL     1      19.768 -31.104  21.306  1.00  0.00     0.148 C 
BRANCH  28  29
HETATM   29  C12 UNL     1      18.947 -32.129  22.046  1.00  0.00     0.249 C 
BRANCH  29  30
HETATM   30  N8  UNL     1      17.863 -32.597  21.197  1.00  0.00    -0.078 N 
ATOM     31  H83 UNL     1      17.078 -32.955  21.740  1.00  0.00     0.274 HD
ATOM     32  H82 UNL     1      17.382 -31.829  20.731  1.00  0.00     0.274 HD
ATOM     33  H81 UNL     1      18.217 -33.287  20.534  1.00  0.00     0.274 HD
ENDBRANCH  29  30
ENDBRANCH  28  29
ENDBRANCH  26  28
ENDBRANCH  22  26
ENDBRANCH  21  22
ENDBRANCH  20  21
ENDBRANCH  17  20
ENDBRANCH   1  16
BRANCH  11  34
HETATM   34  N5  UNL     1      18.391 -36.108  19.048  1.00  0.00    -0.058 N 
ATOM     35  H53 UNL     1      18.663 -36.697  19.835  1.00  0.00     0.275 HD
ATOM     36  H52 UNL     1      18.591 -35.198  19.463  1.00  0.00     0.275 HD
ATOM     37  H51 UNL     1      17.402 -36.212  18.822  1.00  0.00     0.275 HD
ENDBRANCH  11  34
TORSDOF 9
ENDMDL
MODEL 3
REMARK VINA RESULT: -6.660351671      2.195      5.853
REMARK  9 active torsions:
REMARK  status: ('A' for Active; 'I' for Inactive)
REMARK    1  A    between atoms: C1_4  and  C2_5 
REMARK    2  A    between atoms: C1_4  and  N7_30 
REMARK    3  A    between atoms: C2_5  and  C3_6 
REMARK    4  A    between atoms: C3_6  and  N2_7 
REMARK       I    between atoms: N2_7  and  C4_9 
REMARK    5  A    between atoms: C4_9  and  C5_11 
REMARK    6  A    between atoms: C9_21  and  N5_22 
REMARK    7  A    between atoms: N7_30  and  C11_32 
REMARK    8  A    between atoms: C11_32  and  C12_33 
REMARK    9  A    between atoms: C12_33  and  N8_34 
ROOT
HETATM    1  C5  UNL     1      20.968 -31.969  18.349  1.00  0.00     0.379 C 
HETATM    2  N3  UNL     1      21.226 -30.543  18.262  1.00  0.00    -0.044 N 
ATOM      3  H31 UNL     1      21.829 -30.330  17.467  1.00  0.00     0.280 HD
ATOM      4  H32 UNL     1      21.836 -30.237  19.021  1.00  0.00     0.280 HD
HETATM    5  C6  UNL     1      20.021 -29.748  18.221  1.00  0.00     0.255 C 
HETATM    6  C7  UNL     1      19.429 -29.523  19.590  1.00  0.00     0.150 C 
HETATM    7  N4  UNL     1      18.244 -30.302  19.712  1.00  0.00    -0.357 N 
ATOM      8  H4  UNL     1      17.365 -29.793  19.624  1.00  0.00     0.162 HD
HETATM    9  C8  UNL     1      18.131 -31.688  19.940  1.00  0.00     0.257 C 
HETATM   10  O2  UNL     1      17.176 -32.264  19.302  1.00  0.00    -0.271 OA
HETATM   11  C9  UNL     1      18.944 -32.543  20.790  1.00  0.00     0.365 C 
HETATM   12  C10 UNL     1      20.388 -32.313  20.800  1.00  0.00     0.259 C 
HETATM   13  O3  UNL     1      20.914 -32.010  21.928  1.00  0.00    -0.271 OA
HETATM   14  N6  UNL     1      21.248 -32.390  19.707  1.00  0.00    -0.324 N 
ATOM     15  H6  UNL     1      22.173 -32.784  19.882  1.00  0.00     0.165 HD
ENDROOT
BRANCH   1  16
HETATM   16  C4  UNL     1      21.842 -32.695  17.395  1.00  0.00     0.268 C 
HETATM   17  N2  UNL     1      21.778 -34.100  17.348  1.00  0.00    -0.357 N 
ATOM     18  H2  UNL     1      21.135 -34.594  17.968  1.00  0.00     0.162 HD
HETATM   19  O1  UNL     1      22.635 -32.102  16.626  1.00  0.00    -0.269 OA
BRANCH  17  20
HETATM   20  C3  UNL     1      22.605 -34.850  16.440  1.00  0.00     0.130 C 
BRANCH  20  21
HETATM   21  C2  UNL     1      21.756 -35.726  15.558  1.00  0.00     0.095 C 
BRANCH  21  22
HETATM   22  C1  UNL     1      20.985 -36.721  16.321  1.00  0.00     0.072 C 
HETATM   23  N1  UNL     1      21.585 -37.668  16.934  1.00  0.00    -0.389 N 
ATOM     24  H12 UNL     1      22.602 -37.697  16.869  1.00  0.00     0.157 HD
ATOM     25  H11 UNL     1      21.052 -38.357  17.463  1.00  0.00     0.157 HD
BRANCH  22  26
HETATM   26  N7  UNL     1      19.568 -36.680  16.411  1.00  0.00    -0.379 N 
ATOM     27  H7  UNL     1      18.977 -37.165  15.737  1.00  0.00     0.160 HD
BRANCH  26  28
HETATM   28  C11 UNL     1      19.000 -35.916  17.506  1.00  0.00     0.148 C 
BRANCH  28  29
HETATM   29  C12 UNL     1      18.119 -34.827  16.950  1.00  0.00     0.249 C 
BRANCH  29  30
HETATM   30  N8  UNL     1      16.788 -35.354  16.693  1.00  0.00    -0.078 N 
ATOM     31  H83 UNL     1      16.236 -34.732  16.102  1.00  0.00     0.274 HD
ATOM     32  H82 UNL     1      16.808 -36.165  16.075  1.00  0.00     0.274 HD
ATOM     33  H81 UNL     1      16.321 -35.557  17.577  1.00  0.00     0.274 HD
ENDBRANCH  29  30
ENDBRANCH  28  29
ENDBRANCH  26  28
ENDBRANCH  22  26
ENDBRANCH  21  22
ENDBRANCH  20  21
ENDBRANCH  17  20
ENDBRANCH   1  16
BRANCH  11  34
HETATM   34  N5  UNL     1      18.786 -33.957  20.403  1.00  0.00    -0.058 N 
ATOM     35  H53 UNL     1      18.441 -34.525  21.177  1.00  0.00     0.275 HD
ATOM     36  H52 UNL     1      18.007 -34.089  19.757  1.00  0.00     0.275 HD
ATOM     37  H51 UNL     1      19.659 -34.324  20.024  1.00  0.00     0.275 HD
ENDBRANCH  11  34
TORSDOF 9
ENDMDL
MODEL 4
REMARK VINA RESULT: -6.607160789      3.994      6.191
REMARK  9 active torsions:
REMARK  status: ('A' for Active; 'I' for Inactive)
REMARK    1  A    between atoms: C1_4  and  C2_5 
REMARK    2  A    between atoms: C1_4  and  N7_30 
REMARK    3  A    between atoms: C2_5  and  C3_6 
REMARK    4  A    between atoms: C3_6  and  N2_7 
REMARK       I    between atoms: N2_7  and  C4_9 
REMARK    5  A    between atoms: C4_9  and  C5_11 
REMARK    6  A    between atoms: C9_21  and  N5_22 
REMARK    7  A    between atoms: N7_30  and  C11_32 
REMARK    8  A    between atoms: C11_32  and  C12_33 
REMARK    9  A    between atoms: C12_33  and  N8_34 
ROOT
HETATM    1  C5  UNL     1      21.189 -30.678  17.485  1.00  0.00     0.379 C 
HETATM    2  N3  UNL     1      20.709 -29.503  18.191  1.00  0.00    -0.044 N 
ATOM      3  H31 UNL     1      21.131 -28.654  17.814  1.00  0.00     0.280 HD
ATOM      4  H32 UNL     1      21.084 -29.471  19.139  1.00  0.00     0.280 HD
HETATM    5  C6  UNL     1      19.268 -29.397  18.204  1.00  0.00     0.255 C 
HETATM    6  C7  UNL     1      18.635 -30.256  19.271  1.00  0.00     0.150 C 
HETATM    7  N4  UNL     1      17.990 -31.361  18.649  1.00  0.00    -0.357 N 
ATOM      8  H4  UNL     1      16.974 -31.301  18.576  1.00  0.00     0.162 HD
HETATM    9  C8  UNL     1      18.575 -32.528  18.120  1.00  0.00     0.257 C 
HETATM   10  O2  UNL     1      18.033 -32.962  17.039  1.00  0.00    -0.271 OA
HETATM   11  C9  UNL     1      19.700 -33.297  18.629  1.00  0.00     0.365 C 
HETATM   12  C10 UNL     1      20.841 -32.555  19.164  1.00  0.00     0.259 C 
HETATM   13  O3  UNL     1      21.143 -32.768  20.391  1.00  0.00    -0.271 OA
HETATM   14  N6  UNL     1      21.633 -31.640  18.473  1.00  0.00    -0.324 N 
ATOM     15  H6  UNL     1      22.631 -31.648  18.686  1.00  0.00     0.165 HD
ENDROOT
BRANCH   1  16
HETATM   16  C4  UNL     1      22.312 -30.301  16.592  1.00  0.00     0.268 C 
HETATM   17  N2  UNL     1      23.606 -30.199  17.134  1.00  0.00    -0.357 N 
ATOM     18  H2  UNL     1      23.751 -30.385  18.126  1.00  0.00     0.162 HD
HETATM   19  O1  UNL     1      22.150 -30.071  15.370  1.00  0.00    -0.269 OA
BRANCH  17  20
HETATM   20  C3  UNL     1      24.730 -29.837  16.309  1.00  0.00     0.130 C 
BRANCH  20  21
HETATM   21  C2  UNL     1      25.074 -28.384  16.499  1.00  0.00     0.095 C 
BRANCH  21  22
HETATM   22  C1  UNL     1      25.261 -28.027  17.915  1.00  0.00     0.072 C 
HETATM   23  N1  UNL     1      24.653 -27.018  18.410  1.00  0.00    -0.389 N 
ATOM     24  H12 UNL     1      24.045 -26.486  17.789  1.00  0.00     0.157 HD
ATOM     25  H11 UNL     1      24.782 -26.771  19.391  1.00  0.00     0.157 HD
BRANCH  22  26
HETATM   26  N7  UNL     1      26.107 -28.769  18.781  1.00  0.00    -0.379 N 
ATOM     27  H7  UNL     1      25.730 -29.320  19.552  1.00  0.00     0.160 HD
BRANCH  26  28
HETATM   28  C11 UNL     1      27.533 -28.708  18.521  1.00  0.00     0.148 C 
BRANCH  28  29
HETATM   29  C12 UNL     1      28.226 -29.816  19.270  1.00  0.00     0.249 C 
BRANCH  29  30
HETATM   30  N8  UNL     1      27.251 -30.579  20.033  1.00  0.00    -0.078 N 
ATOM     31  H83 UNL     1      26.515 -30.962  19.440  1.00  0.00     0.274 HD
ATOM     32  H82 UNL     1      27.635 -31.459  20.377  1.00  0.00     0.274 HD
ATOM     33  H81 UNL     1      26.875 -30.004  20.787  1.00  0.00     0.274 HD
ENDBRANCH  29  30
ENDBRANCH  28  29
ENDBRANCH  26  28
ENDBRANCH  22  26
ENDBRANCH  21  22
ENDBRANCH  20  21
ENDBRANCH  17  20
ENDBRANCH   1  16
BRANCH  11  34
HETATM   34  N5  UNL     1      20.264 -34.152  17.569  1.00  0.00    -0.058 N 
ATOM     35  H53 UNL     1      19.704 -34.120  16.718  1.00  0.00     0.275 HD
ATOM     36  H52 UNL     1      21.133 -33.769  17.195  1.00  0.00     0.275 HD
ATOM     37  H51 UNL     1      20.386 -35.107  17.906  1.00  0.00     0.275 HD
ENDBRANCH  11  34
TORSDOF 9
ENDMDL
MODEL 5
REMARK VINA RESULT: -6.595259060      4.012      6.475
REMARK  9 active torsions:
REMARK  status: ('A' for Active; 'I' for Inactive)
REMARK    1  A    between atoms: C1_4  and  C2_5 
REMARK    2  A    between atoms: C1_4  and  N7_30 
REMARK    3  A    between atoms: C2_5  and  C3_6 
REMARK    4  A    between atoms: C3_6  and  N2_7 
REMARK       I    between atoms: N2_7  and  C4_9 
REMARK    5  A    between atoms: C4_9  and  C5_11 
REMARK    6  A    between atoms: C9_21  and  N5_22 
REMARK    7  A    between atoms: N7_30  and  C11_32 
REMARK    8  A    between atoms: C11_32  and  C12_33 
REMARK    9  A    between atoms: C12_33  and  N8_34 
ROOT
HETATM    1  C5  UNL     1      20.719 -30.997  17.239  1.00  0.00     0.379 C 
HETATM    2  N3  UNL     1      19.987 -31.896  16.364  1.00  0.00    -0.044 N 
ATOM      3  H31 UNL     1      20.468 -32.005  15.470  1.00  0.00     0.280 HD
ATOM      4  H32 UNL     1      19.123 -31.462  16.038  1.00  0.00     0.280 HD
HETATM    5  C6  UNL     1      19.721 -33.182  16.964  1.00  0.00     0.255 C 
HETATM    6  C7  UNL     1      18.524 -33.155  17.882  1.00  0.00     0.150 C 
HETATM    7  N4  UNL     1      18.975 -33.245  19.229  1.00  0.00    -0.357 N 
ATOM      8  H4  UNL     1      18.867 -34.156  19.675  1.00  0.00     0.162 HD
HETATM    9  C8  UNL     1      19.551 -32.236  20.024  1.00  0.00     0.257 C 
HETATM   10  O2  UNL     1      20.499 -32.631  20.796  1.00  0.00    -0.271 OA
HETATM   11  C9  UNL     1      19.220 -30.821  20.087  1.00  0.00     0.365 C 
HETATM   12  C10 UNL     1      18.929 -30.138  18.827  1.00  0.00     0.259 C 
HETATM   13  O3  UNL     1      17.768 -29.607  18.715  1.00  0.00    -0.271 OA
HETATM   14  N6  UNL     1      19.787 -30.005  17.737  1.00  0.00    -0.324 N 
ATOM     15  H6  UNL     1      19.755 -29.116  17.237  1.00  0.00     0.165 HD
ENDROOT
BRANCH   1  16
HETATM   16  C4  UNL     1      21.812 -30.340  16.481  1.00  0.00     0.268 C 
HETATM   17  N2  UNL     1      23.078 -30.218  17.083  1.00  0.00    -0.357 N 
ATOM     18  H2  UNL     1      23.223 -30.581  18.025  1.00  0.00     0.162 HD
HETATM   19  O1  UNL     1      21.650 -29.891  15.322  1.00  0.00    -0.269 OA
BRANCH  17  20
HETATM   20  C3  UNL     1      24.172 -29.589  16.390  1.00  0.00     0.130 C 
BRANCH  20  21
HETATM   21  C2  UNL     1      25.237 -29.165  17.365  1.00  0.00     0.095 C 
BRANCH  21  22
HETATM   22  C1  UNL     1      25.240 -27.713  17.603  1.00  0.00     0.072 C 
HETATM   23  N1  UNL     1      24.638 -27.225  18.620  1.00  0.00    -0.389 N 
ATOM     24  H12 UNL     1      24.167 -27.880  19.244  1.00  0.00     0.157 HD
ATOM     25  H11 UNL     1      24.640 -26.219  18.785  1.00  0.00     0.157 HD
BRANCH  22  26
HETATM   26  N7  UNL     1      25.896 -26.800  16.734  1.00  0.00    -0.379 N 
ATOM     27  H7  UNL     1      26.908 -26.810  16.618  1.00  0.00     0.160 HD
BRANCH  26  28
HETATM   28  C11 UNL     1      25.060 -25.854  16.019  1.00  0.00     0.148 C 
BRANCH  28  29
HETATM   29  C12 UNL     1      25.278 -26.016  14.536  1.00  0.00     0.249 C 
BRANCH  29  30
HETATM   30  N8  UNL     1      24.182 -26.779  13.959  1.00  0.00    -0.078 N 
ATOM     31  H83 UNL     1      24.478 -27.707  13.658  1.00  0.00     0.274 HD
ATOM     32  H82 UNL     1      23.500 -27.062  14.661  1.00  0.00     0.274 HD
ATOM     33  H81 UNL     1      23.754 -26.248  13.201  1.00  0.00     0.274 HD
ENDBRANCH  29  30
ENDBRANCH  28  29
ENDBRANCH  26  28
ENDBRANCH  22  26
ENDBRANCH  21  22
ENDBRANCH  20  21
ENDBRANCH  17  20
ENDBRANCH   1  16
BRANCH  11  34
HETATM   34  N5  UNL     1      20.328 -30.056  20.688  1.00  0.00    -0.058 N 
ATOM     35  H53 UNL     1      21.072 -30.667  21.023  1.00  0.00     0.275 HD
ATOM     36  H52 UNL     1      20.859 -29.541  19.984  1.00  0.00     0.275 HD
ATOM     37  H51 UNL     1      19.981 -29.442  21.424  1.00  0.00     0.275 HD
ENDBRANCH  11  34
TORSDOF 9
ENDMDL
