MODEL 1
REMARK VINA RESULT: -6.009817828      0.000      0.000
REMARK  8 active torsions:
REMARK  status: ('A' for Active; 'I' for Inactive)
REMARK    1  A    between atoms: N1_2  and  C2_4 
REMARK    2  A    between atoms: C5_7  and  C6_8 
REMARK    3  A    between atoms: N2_9  and  O1_10 
REMARK    4  A    between atoms: N2_9  and  C7_12 
REMARK    5  A    between atoms: C7_12  and  C8_13 
REMARK    6  A    between atoms: C10_19  and  C11_20 
REMARK    7  A    between atoms: C11_20  and  C12_21 
REMARK    8  A    between atoms: C12_21  and  O2_22 
ROOT
HETATM    1  C6  UNL     1      19.930 -21.194  41.169  1.00  0.00     0.130 C 
HETATM    2  N2  UNL     1      19.764 -20.378  40.216  1.00  0.00    -0.266 N 
ENDROOT
BRANCH   2   3
HETATM    3  O1  UNL     1      20.594 -19.452  39.696  1.00  0.00    -0.288 OA
ATOM      4  H1  UNL     1      20.783 -19.226  38.792  1.00  0.00     0.244 HD
ENDBRANCH   2   3
BRANCH   2   5
HETATM    5  C7  UNL     1      18.436 -20.424  39.539  1.00  0.00     0.214 C 
BRANCH   5   6
HETATM    6  C8  UNL     1      17.996 -19.042  39.360  1.00  0.00     0.053 A 
HETATM    7  N3  UNL     1      18.237 -18.271  38.287  1.00  0.00    -0.353 N 
HETATM    8  C9  UNL     1      17.674 -17.092  38.504  1.00  0.00     0.181 A 
ATOM      9  H3  UNL     1      18.760 -18.544  37.455  1.00  0.00     0.166 HD
HETATM   10  N4  UNL     1      17.073 -17.098  39.706  1.00  0.00    -0.354 N 
HETATM   11  C10 UNL     1      17.250 -18.303  40.281  1.00  0.00     0.036 A 
ATOM     12  H4  UNL     1      16.565 -16.315  40.118  1.00  0.00     0.166 HD
BRANCH  11  13
HETATM   13  C11 UNL     1      16.776 -18.764  41.584  1.00  0.00     0.085 C 
BRANCH  13  14
HETATM   14  C12 UNL     1      17.696 -18.528  42.729  1.00  0.00     0.173 C 
BRANCH  14  15
HETATM   15  O2  UNL     1      17.206 -19.013  43.940  1.00  0.00    -0.396 OA
HETATM   16  C13 UNL     1      17.224 -20.421  43.814  1.00  0.00     0.201 C 
ENDBRANCH  14  15
ENDBRANCH  13  14
ENDBRANCH  11  13
ENDBRANCH   5   6
ENDBRANCH   2   5
BRANCH   1  17
HETATM   17  C5  UNL     1      21.121 -21.337  41.971  1.00  0.00    -0.003 A 
HETATM   18  C4  UNL     1      22.058 -22.320  41.638  1.00  0.00     0.018 A 
HETATM   19  C3  UNL     1      23.202 -22.503  42.357  1.00  0.00     0.049 A 
HETATM   20  C2  UNL     1      23.425 -21.682  43.447  1.00  0.00     0.100 A 
HETATM   21  N5  UNL     1      22.528 -20.732  43.777  1.00  0.00    -0.352 N 
HETATM   22  C14 UNL     1      21.383 -20.559  43.044  1.00  0.00     0.102 A 
ATOM     23  H5  UNL     1      22.704 -20.132  44.583  1.00  0.00     0.166 HD
BRANCH  20  24
HETATM   24  N1  UNL     1      24.486 -21.808  44.161  1.00  0.00    -0.381 N 
HETATM   25  C1  UNL     1      24.327 -22.016  45.584  1.00  0.00     0.147 C 
ATOM     26  H1  UNL     1      25.413 -21.762  43.737  1.00  0.00     0.160 HD
ENDBRANCH  20  24
ENDBRANCH   1  17
TORSDOF 8
ENDMDL
MODEL 2
REMARK VINA RESULT: -5.983513933      1.636      2.758
REMARK  8 active torsions:
REMARK  status: ('A' for Active; 'I' for Inactive)
REMARK    1  A    between atoms: N1_2  and  C2_4 
REMARK    2  A    between atoms: C5_7  and  C6_8 
REMARK    3  A    between atoms: N2_9  and  O1_10 
REMARK    4  A    between atoms: N2_9  and  C7_12 
REMARK    5  A    between atoms: C7_12  and  C8_13 
REMARK    6  A    between atoms: C10_19  and  C11_20 
REMARK    7  A    between atoms: C11_20  and  C12_21 
REMARK    8  A    between atoms: C12_21  and  O2_22 
ROOT
HETATM    1  C6  UNL     1      20.163 -21.293  40.556  1.00  0.00     0.130 C 
HETATM    2  N2  UNL     1      18.953 -21.483  40.877  1.00  0.00    -0.266 N 
ENDROOT
BRANCH   2   3
HETATM    3  O1  UNL     1      18.400 -21.834  42.054  1.00  0.00    -0.288 OA
ATOM      4  H1  UNL     1      18.718 -22.403  42.744  1.00  0.00     0.244 HD
ENDBRANCH   2   3
BRANCH   2   5
HETATM    5  C7  UNL     1      17.951 -21.294  39.788  1.00  0.00     0.214 C 
BRANCH   5   6
HETATM    6  C8  UNL     1      17.181 -20.096  40.116  1.00  0.00     0.053 A 
HETATM    7  N3  UNL     1      16.457 -19.905  41.231  1.00  0.00    -0.353 N 
HETATM    8  C9  UNL     1      15.914 -18.700  41.157  1.00  0.00     0.181 A 
ATOM      9  H3  UNL     1      16.346 -20.569  41.998  1.00  0.00     0.166 HD
HETATM   10  N4  UNL     1      16.282 -18.113  40.005  1.00  0.00    -0.354 N 
HETATM   11  C10 UNL     1      17.078 -18.955  39.318  1.00  0.00     0.036 A 
ATOM     12  H4  UNL     1      16.002 -17.181  39.699  1.00  0.00     0.166 HD
BRANCH  11  13
HETATM   13  C11 UNL     1      17.711 -18.745  38.017  1.00  0.00     0.085 C 
BRANCH  13  14
HETATM   14  C12 UNL     1      19.119 -18.268  38.051  1.00  0.00     0.173 C 
BRANCH  14  15
HETATM   15  O2  UNL     1      19.436 -17.563  39.211  1.00  0.00    -0.396 OA
HETATM   16  C13 UNL     1      20.789 -17.874  39.480  1.00  0.00     0.201 C 
ENDBRANCH  14  15
ENDBRANCH  13  14
ENDBRANCH  11  13
ENDBRANCH   5   6
ENDBRANCH   2   5
BRANCH   1  17
HETATM   17  C5  UNL     1      21.305 -21.414  41.430  1.00  0.00    -0.003 A 
HETATM   18  C4  UNL     1      22.056 -22.594  41.416  1.00  0.00     0.018 A 
HETATM   19  C3  UNL     1      23.145 -22.768  42.218  1.00  0.00     0.049 A 
HETATM   20  C2  UNL     1      23.504 -21.735  43.063  1.00  0.00     0.100 A 
HETATM   21  N5  UNL     1      22.787 -20.593  43.084  1.00  0.00    -0.352 N 
HETATM   22  C14 UNL     1      21.695 -20.433  42.273  1.00  0.00     0.102 A 
ATOM     23  H5  UNL     1      23.062 -19.838  43.712  1.00  0.00     0.166 HD
BRANCH  20  24
HETATM   24  N1  UNL     1      24.522 -21.842  43.840  1.00  0.00    -0.381 N 
HETATM   25  C1  UNL     1      24.282 -21.998  45.258  1.00  0.00     0.147 C 
ATOM     26  H1  UNL     1      25.472 -21.817  43.468  1.00  0.00     0.160 HD
ENDBRANCH  20  24
ENDBRANCH   1  17
TORSDOF 8
ENDMDL
MODEL 3
REMARK VINA RESULT: -5.813659555      1.684      2.166
REMARK  8 active torsions:
REMARK  status: ('A' for Active; 'I' for Inactive)
REMARK    1  A    between atoms: N1_2  and  C2_4 
REMARK    2  A    between atoms: C5_7  and  C6_8 
REMARK    3  A    between atoms: N2_9  and  O1_10 
REMARK    4  A    between atoms: N2_9  and  C7_12 
REMARK    5  A    between atoms: C7_12  and  C8_13 
REMARK    6  A    between atoms: C10_19  and  C11_20 
REMARK    7  A    between atoms: C11_20  and  C12_21 
REMARK    8  A    between atoms: C12_21  and  O2_22 
ROOT
HETATM    1  C6  UNL     1      21.013 -20.450  41.083  1.00  0.00     0.130 C 
HETATM    2  N2  UNL     1      20.717 -19.273  40.725  1.00  0.00    -0.266 N 
ENDROOT
BRANCH   2   3
HETATM    3  O1  UNL     1      20.959 -18.087  41.314  1.00  0.00    -0.288 OA
ATOM      4  H1  UNL     1      20.508 -17.254  41.241  1.00  0.00     0.244 HD
ENDBRANCH   2   3
BRANCH   2   5
HETATM    5  C7  UNL     1      19.974 -19.149  39.437  1.00  0.00     0.214 C 
BRANCH   5   6
HETATM    6  C8  UNL     1      18.554 -19.054  39.768  1.00  0.00     0.053 A 
HETATM    7  N3  UNL     1      17.909 -17.943  40.162  1.00  0.00    -0.353 N 
HETATM    8  C9  UNL     1      16.640 -18.264  40.363  1.00  0.00     0.181 A 
ATOM      9  H3  UNL     1      18.323 -17.019  40.284  1.00  0.00     0.166 HD
HETATM   10  N4  UNL     1      16.462 -19.570  40.101  1.00  0.00    -0.354 N 
HETATM   11  C10 UNL     1      17.638 -20.107  39.725  1.00  0.00     0.036 A 
ATOM     12  H4  UNL     1      15.578 -20.074  40.177  1.00  0.00     0.166 HD
BRANCH  11  13
HETATM   13  C11 UNL     1      17.924 -21.491  39.348  1.00  0.00     0.085 C 
BRANCH  13  14
HETATM   14  C12 UNL     1      17.991 -22.467  40.468  1.00  0.00     0.173 C 
BRANCH  14  15
HETATM   15  O2  UNL     1      17.654 -21.915  41.703  1.00  0.00    -0.396 OA
HETATM   16  C13 UNL     1      18.389 -22.655  42.657  1.00  0.00     0.201 C 
ENDBRANCH  14  15
ENDBRANCH  13  14
ENDBRANCH  11  13
ENDBRANCH   5   6
ENDBRANCH   2   5
BRANCH   1  17
HETATM   17  C5  UNL     1      21.725 -20.823  42.282  1.00  0.00    -0.003 A 
HETATM   18  C4  UNL     1      22.893 -21.584  42.177  1.00  0.00     0.018 A 
HETATM   19  C3  UNL     1      23.609 -21.966  43.273  1.00  0.00     0.049 A 
HETATM   20  C2  UNL     1      23.150 -21.580  44.518  1.00  0.00     0.100 A 
HETATM   21  N5  UNL     1      22.025 -20.846  44.630  1.00  0.00    -0.352 N 
HETATM   22  C14 UNL     1      21.316 -20.469  43.520  1.00  0.00     0.102 A 
ATOM     23  H5  UNL     1      21.696 -20.567  45.555  1.00  0.00     0.166 HD
BRANCH  20  24
HETATM   24  N1  UNL     1      23.784 -21.910  45.586  1.00  0.00    -0.381 N 
HETATM   25  C1  UNL     1      25.184 -21.557  45.682  1.00  0.00     0.147 C 
ATOM     26  H1  UNL     1      23.315 -22.406  46.344  1.00  0.00     0.160 HD
ENDBRANCH  20  24
ENDBRANCH   1  17
TORSDOF 8
ENDMDL
MODEL 4
REMARK VINA RESULT: -5.755679360      1.741      2.212
REMARK  8 active torsions:
REMARK  status: ('A' for Active; 'I' for Inactive)
REMARK    1  A    between atoms: N1_2  and  C2_4 
REMARK    2  A    between atoms: C5_7  and  C6_8 
REMARK    3  A    between atoms: N2_9  and  O1_10 
REMARK    4  A    between atoms: N2_9  and  C7_12 
REMARK    5  A    between atoms: C7_12  and  C8_13 
REMARK    6  A    between atoms: C10_19  and  C11_20 
REMARK    7  A    between atoms: C11_20  and  C12_21 
REMARK    8  A    between atoms: C12_21  and  O2_22 
ROOT
HETATM    1  C6  UNL     1      19.509 -20.094  43.185  1.00  0.00     0.130 C 
HETATM    2  N2  UNL     1      19.234 -18.871  43.010  1.00  0.00    -0.266 N 
ENDROOT
BRANCH   2   3
HETATM    3  O1  UNL     1      20.037 -17.808  42.811  1.00  0.00    -0.288 OA
ATOM      4  H1  UNL     1      20.914 -17.752  42.449  1.00  0.00     0.244 HD
ENDBRANCH   2   3
BRANCH   2   5
HETATM    5  C7  UNL     1      17.784 -18.519  43.022  1.00  0.00     0.214 C 
BRANCH   5   6
HETATM    6  C8  UNL     1      17.336 -18.494  41.631  1.00  0.00     0.053 A 
HETATM    7  N3  UNL     1      18.112 -18.272  40.557  1.00  0.00    -0.353 N 
HETATM    8  C9  UNL     1      17.340 -18.333  39.484  1.00  0.00     0.181 A 
ATOM      9  H3  UNL     1      19.116 -18.090  40.567  1.00  0.00     0.166 HD
HETATM   10  N4  UNL     1      16.074 -18.592  39.856  1.00  0.00    -0.354 N 
HETATM   11  C10 UNL     1      16.025 -18.701  41.198  1.00  0.00     0.036 A 
ATOM     12  H4  UNL     1      15.280 -18.690  39.225  1.00  0.00     0.166 HD
BRANCH  11  13
HETATM   13  C11 UNL     1      14.864 -18.974  42.043  1.00  0.00     0.085 C 
BRANCH  13  14
HETATM   14  C12 UNL     1      14.864 -20.290  42.738  1.00  0.00     0.173 C 
BRANCH  14  15
HETATM   15  O2  UNL     1      14.534 -20.200  44.089  1.00  0.00    -0.396 OA
HETATM   16  C13 UNL     1      15.552 -20.906  44.770  1.00  0.00     0.201 C 
ENDBRANCH  14  15
ENDBRANCH  13  14
ENDBRANCH  11  13
ENDBRANCH   5   6
ENDBRANCH   2   5
BRANCH   1  17
HETATM   17  C5  UNL     1      20.829 -20.675  43.214  1.00  0.00    -0.003 A 
HETATM   18  C4  UNL     1      21.337 -21.282  42.061  1.00  0.00     0.018 A 
HETATM   19  C3  UNL     1      22.577 -21.848  42.027  1.00  0.00     0.049 A 
HETATM   20  C2  UNL     1      23.343 -21.810  43.178  1.00  0.00     0.100 A 
HETATM   21  N5  UNL     1      22.863 -21.227  44.294  1.00  0.00    -0.352 N 
HETATM   22  C14 UNL     1      21.615 -20.663  44.314  1.00  0.00     0.102 A 
ATOM     23  H5  UNL     1      23.437 -21.206  45.137  1.00  0.00     0.166 HD
BRANCH  20  24
HETATM   24  N1  UNL     1      24.519 -22.326  43.204  1.00  0.00    -0.381 N 
HETATM   25  C1  UNL     1      24.944 -22.990  44.417  1.00  0.00     0.147 C 
ATOM     26  H1  UNL     1      25.136 -22.269  42.393  1.00  0.00     0.160 HD
ENDBRANCH  20  24
ENDBRANCH   1  17
TORSDOF 8
ENDMDL
MODEL 5
REMARK VINA RESULT: -5.683568168      1.261      1.666
REMARK  8 active torsions:
REMARK  status: ('A' for Active; 'I' for Inactive)
REMARK    1  A    between atoms: N1_2  and  C2_4 
REMARK    2  A    between atoms: C5_7  and  C6_8 
REMARK    3  A    between atoms: N2_9  and  O1_10 
REMARK    4  A    between atoms: N2_9  and  C7_12 
REMARK    5  A    between atoms: C7_12  and  C8_13 
REMARK    6  A    between atoms: C10_19  and  C11_20 
REMARK    7  A    between atoms: C11_20  and  C12_21 
REMARK    8  A    between atoms: C12_21  and  O2_22 
ROOT
HETATM    1  C6  UNL     1      20.210 -21.086  41.609  1.00  0.00     0.130 C 
HETATM    2  N2  UNL     1      19.804 -20.001  41.100  1.00  0.00    -0.266 N 
ENDROOT
BRANCH   2   3
HETATM    3  O1  UNL     1      20.303 -18.752  41.175  1.00  0.00    -0.288 OA
ATOM      4  H1  UNL     1      20.038 -18.008  41.703  1.00  0.00     0.244 HD
ENDBRANCH   2   3
BRANCH   2   5
HETATM    5  C7  UNL     1      18.565 -20.090  40.274  1.00  0.00     0.214 C 
BRANCH   5   6
HETATM    6  C8  UNL     1      17.592 -19.170  40.859  1.00  0.00     0.053 A 
HETATM    7  N3  UNL     1      17.344 -17.916  40.442  1.00  0.00    -0.353 N 
HETATM    8  C9  UNL     1      16.399 -17.413  41.222  1.00  0.00     0.181 A 
ATOM      9  H3  UNL     1      17.800 -17.439  39.665  1.00  0.00     0.166 HD
HETATM   10  N4  UNL     1      16.037 -18.330  42.136  1.00  0.00    -0.354 N 
HETATM   11  C10 UNL     1      16.761 -19.450  41.945  1.00  0.00     0.036 A 
ATOM     12  H4  UNL     1      15.328 -18.199  42.857  1.00  0.00     0.166 HD
BRANCH  11  13
HETATM   13  C11 UNL     1      16.710 -20.701  42.699  1.00  0.00     0.085 C 
BRANCH  13  14
HETATM   14  C12 UNL     1      17.159 -20.624  44.115  1.00  0.00     0.173 C 
BRANCH  14  15
HETATM   15  O2  UNL     1      16.203 -20.075  44.968  1.00  0.00    -0.396 OA
HETATM   16  C13 UNL     1      15.041 -20.859  44.781  1.00  0.00     0.201 C 
ENDBRANCH  14  15
ENDBRANCH  13  14
ENDBRANCH  11  13
ENDBRANCH   5   6
ENDBRANCH   2   5
BRANCH   1  17
HETATM   17  C5  UNL     1      21.378 -21.252  42.441  1.00  0.00    -0.003 A 
HETATM   18  C4  UNL     1      22.485 -21.942  41.938  1.00  0.00     0.018 A 
HETATM   19  C3  UNL     1      23.616 -22.131  42.676  1.00  0.00     0.049 A 
HETATM   20  C2  UNL     1      23.651 -21.618  43.959  1.00  0.00     0.100 A 
HETATM   21  N5  UNL     1      22.589 -20.951  44.453  1.00  0.00    -0.352 N 
HETATM   22  C14 UNL     1      21.459 -20.769  43.700  1.00  0.00     0.102 A 
ATOM     23  H5  UNL     1      22.626 -20.577  45.401  1.00  0.00     0.166 HD
BRANCH  20  24
HETATM   24  N1  UNL     1      24.691 -21.764  44.700  1.00  0.00    -0.381 N 
HETATM   25  C1  UNL     1      24.491 -22.048  46.105  1.00  0.00     0.147 C 
ATOM     26  H1  UNL     1      25.630 -21.682  44.309  1.00  0.00     0.160 HD
ENDBRANCH  20  24
ENDBRANCH   1  17
TORSDOF 8
ENDMDL
