MODEL 1
REMARK VINA RESULT: -9.860019567      0.000      0.000
REMARK  7 active torsions:
REMARK  status: ('A' for Active; 'I' for Inactive)
REMARK    1  A    between atoms: C11_12  and  C12_13 
REMARK    2  A    between atoms: C12_13  and  C13_14 
REMARK    3  A    between atoms: C13_14  and  C14_15 
REMARK    4  A    between atoms: C14_15  and  C15_16 
REMARK    5  A    between atoms: C15_16  and  O2_17 
REMARK    6  A    between atoms: C15_16  and  C16_19 
REMARK    7  A    between atoms: C17_20  and  C18_21 
ROOT
HETATM    1  C1  UNL     1     -11.966  -8.576   2.043  1.00  0.00     0.055 C 
HETATM    2  C2  UNL     1     -11.809  -7.105   1.841  1.00  0.00     0.125 C 
HETATM    3  C3  UNL     1     -12.142  -6.432   3.179  1.00  0.00     0.055 C 
HETATM    4  O1  UNL     1     -12.706  -6.663   0.843  1.00  0.00    -0.332 OA
HETATM    5  C4  UNL     1     -12.676  -5.643  -0.084  1.00  0.00     0.083 A 
HETATM    6  C5  UNL     1     -13.874  -5.028  -0.347  1.00  0.00     0.077 A 
HETATM    7  C6  UNL     1     -14.023  -3.988  -1.250  1.00  0.00     0.107 A 
HETATM    8  C7  UNL     1     -12.902  -3.538  -1.930  1.00  0.00     0.106 A 
HETATM    9  C8  UNL     1     -11.695  -4.150  -1.672  1.00  0.00     0.054 A 
HETATM   10  C9  UNL     1     -11.569  -5.184  -0.769  1.00  0.00     0.001 A 
HETATM   11  C10 UNL     1     -10.214  -5.692  -0.641  1.00  0.00     0.025 C 
HETATM   12  C11 UNL     1      -9.662  -6.423   0.370  1.00  0.00    -0.008 C 
HETATM   13  C24 UNL     1     -10.388  -6.773   1.561  1.00  0.00     0.189 C 
HETATM   14  O4  UNL     1      -9.688  -6.807   2.604  1.00  0.00    -0.289 OA
HETATM   15  O5  UNL     1     -13.325  -2.499  -2.766  1.00  0.00    -0.323 OA
HETATM   16  C25 UNL     1     -14.712  -2.270  -2.589  1.00  0.00     0.352 A 
HETATM   17  O6  UNL     1     -15.128  -3.249  -1.647  1.00  0.00    -0.323 OA
ENDROOT
BRANCH  12  18
HETATM   18  C12 UNL     1      -8.263  -6.745   0.125  1.00  0.00     0.042 C 
BRANCH  18  19
HETATM   19  C13 UNL     1      -7.901  -7.488  -1.095  1.00  0.00     0.008 C 
BRANCH  19  20
HETATM   20  C14 UNL     1      -7.643  -6.783  -2.369  1.00  0.00     0.045 C 
BRANCH  20  21
HETATM   21  C15 UNL     1      -8.351  -7.362  -3.578  1.00  0.00     0.196 C 
BRANCH  21  22
HETATM   22  O2  UNL     1      -8.595  -6.306  -4.461  1.00  0.00    -0.383 OA
ATOM     23  H2  UNL     1      -8.425  -6.626  -5.339  1.00  0.00     0.211 HD
ENDBRANCH  21  22
BRANCH  21  24
HETATM   24  C16 UNL     1      -7.362  -8.299  -4.182  1.00  0.00    -0.074 C 
HETATM   25  C17 UNL     1      -6.549  -9.054  -4.654  1.00  0.00    -0.091 C 
BRANCH  25  26
HETATM   26  C18 UNL     1      -5.543  -9.963  -5.212  1.00  0.00     0.134 C 
HETATM   27  C19 UNL     1      -5.775 -10.052  -6.689  1.00  0.00     0.025 C 
HETATM   28  C20 UNL     1      -5.187 -11.340  -7.208  1.00  0.00     0.002 C 
HETATM   29  C21 UNL     1      -4.076 -11.850  -6.333  1.00  0.00     0.007 C 
HETATM   30  C22 UNL     1      -4.698 -12.359  -5.052  1.00  0.00     0.079 C 
HETATM   31  C23 UNL     1      -5.591 -11.290  -4.541  1.00  0.00     0.142 C 
HETATM   32  O3  UNL     1      -6.316 -11.546  -3.602  1.00  0.00    -0.297 OA
ENDBRANCH  25  26
ENDBRANCH  21  24
ENDBRANCH  20  21
ENDBRANCH  19  20
ENDBRANCH  18  19
ENDBRANCH  12  18
TORSDOF 7
ENDMDL
MODEL 2
REMARK VINA RESULT: -9.752208910      1.054      1.463
REMARK  7 active torsions:
REMARK  status: ('A' for Active; 'I' for Inactive)
REMARK    1  A    between atoms: C11_12  and  C12_13 
REMARK    2  A    between atoms: C12_13  and  C13_14 
REMARK    3  A    between atoms: C13_14  and  C14_15 
REMARK    4  A    between atoms: C14_15  and  C15_16 
REMARK    5  A    between atoms: C15_16  and  O2_17 
REMARK    6  A    between atoms: C15_16  and  C16_19 
REMARK    7  A    between atoms: C17_20  and  C18_21 
ROOT
HETATM    1  C1  UNL     1     -12.336  -8.439   1.924  1.00  0.00     0.055 C 
HETATM    2  C2  UNL     1     -12.181  -6.963   1.757  1.00  0.00     0.125 C 
HETATM    3  C3  UNL     1     -12.628  -6.316   3.073  1.00  0.00     0.055 C 
HETATM    4  O1  UNL     1     -13.000  -6.515   0.696  1.00  0.00    -0.332 OA
HETATM    5  C4  UNL     1     -12.909  -5.481  -0.210  1.00  0.00     0.083 A 
HETATM    6  C5  UNL     1     -14.090  -4.876  -0.560  1.00  0.00     0.077 A 
HETATM    7  C6  UNL     1     -14.178  -3.823  -1.456  1.00  0.00     0.107 A 
HETATM    8  C7  UNL     1     -13.012  -3.350  -2.037  1.00  0.00     0.106 A 
HETATM    9  C8  UNL     1     -11.822  -3.952  -1.692  1.00  0.00     0.054 A 
HETATM   10  C9  UNL     1     -11.756  -4.999  -0.797  1.00  0.00     0.001 A 
HETATM   11  C10 UNL     1     -10.410  -5.494  -0.568  1.00  0.00     0.025 C 
HETATM   12  C11 UNL     1      -9.932  -6.234   0.473  1.00  0.00    -0.008 C 
HETATM   13  C24 UNL     1     -10.747  -6.610   1.597  1.00  0.00     0.189 C 
HETATM   14  O4  UNL     1     -10.132  -6.653   2.692  1.00  0.00    -0.289 OA
HETATM   15  O5  UNL     1     -13.380  -2.302  -2.888  1.00  0.00    -0.323 OA
HETATM   16  C25 UNL     1     -14.779  -2.092  -2.821  1.00  0.00     0.352 A 
HETATM   17  O6  UNL     1     -15.257  -3.090  -1.930  1.00  0.00    -0.323 OA
ENDROOT
BRANCH  12  18
HETATM   18  C12 UNL     1      -8.513  -6.537   0.336  1.00  0.00     0.042 C 
BRANCH  18  19
HETATM   19  C13 UNL     1      -8.051  -7.291  -0.842  1.00  0.00     0.008 C 
BRANCH  19  20
HETATM   20  C14 UNL     1      -7.871  -6.627  -2.150  1.00  0.00     0.045 C 
BRANCH  20  21
HETATM   21  C15 UNL     1      -8.566  -7.303  -3.315  1.00  0.00     0.196 C 
BRANCH  21  22
HETATM   22  O2  UNL     1      -8.453  -6.451  -4.418  1.00  0.00    -0.383 OA
ATOM     23  H2  UNL     1      -8.420  -6.998  -5.194  1.00  0.00     0.211 HD
ENDBRANCH  21  22
BRANCH  21  24
HETATM   24  C16 UNL     1      -7.776  -8.543  -3.558  1.00  0.00    -0.074 C 
HETATM   25  C17 UNL     1      -7.123  -9.540  -3.742  1.00  0.00    -0.091 C 
BRANCH  25  26
HETATM   26  C18 UNL     1      -6.307 -10.739  -3.954  1.00  0.00     0.134 C 
HETATM   27  C19 UNL     1      -6.263 -11.497  -2.663  1.00  0.00     0.025 C 
HETATM   28  C20 UNL     1      -5.039 -12.378  -2.646  1.00  0.00     0.002 C 
HETATM   29  C21 UNL     1      -4.570 -12.725  -4.031  1.00  0.00     0.007 C 
HETATM   30  C22 UNL     1      -3.969 -11.478  -4.638  1.00  0.00     0.079 C 
HETATM   31  C23 UNL     1      -4.954 -10.383  -4.459  1.00  0.00     0.142 C 
HETATM   32  O3  UNL     1      -4.612  -9.251  -4.733  1.00  0.00    -0.297 OA
ENDBRANCH  25  26
ENDBRANCH  21  24
ENDBRANCH  20  21
ENDBRANCH  19  20
ENDBRANCH  18  19
ENDBRANCH  12  18
TORSDOF 7
ENDMDL
MODEL 3
REMARK VINA RESULT: -9.608868128      0.955      1.233
REMARK  7 active torsions:
REMARK  status: ('A' for Active; 'I' for Inactive)
REMARK    1  A    between atoms: C11_12  and  C12_13 
REMARK    2  A    between atoms: C12_13  and  C13_14 
REMARK    3  A    between atoms: C13_14  and  C14_15 
REMARK    4  A    between atoms: C14_15  and  C15_16 
REMARK    5  A    between atoms: C15_16  and  O2_17 
REMARK    6  A    between atoms: C15_16  and  C16_19 
REMARK    7  A    between atoms: C17_20  and  C18_21 
ROOT
HETATM    1  C1  UNL     1     -11.914  -8.588   2.039  1.00  0.00     0.055 C 
HETATM    2  C2  UNL     1     -11.764  -7.116   1.835  1.00  0.00     0.125 C 
HETATM    3  C3  UNL     1     -12.085  -6.445   3.176  1.00  0.00     0.055 C 
HETATM    4  O1  UNL     1     -12.672  -6.677   0.846  1.00  0.00    -0.332 OA
HETATM    5  C4  UNL     1     -12.655  -5.658  -0.082  1.00  0.00     0.083 A 
HETATM    6  C5  UNL     1     -13.858  -5.047  -0.333  1.00  0.00     0.077 A 
HETATM    7  C6  UNL     1     -14.019  -4.007  -1.234  1.00  0.00     0.107 A 
HETATM    8  C7  UNL     1     -12.906  -3.553  -1.925  1.00  0.00     0.106 A 
HETATM    9  C8  UNL     1     -11.694  -4.161  -1.679  1.00  0.00     0.054 A 
HETATM   10  C9  UNL     1     -11.556  -5.195  -0.777  1.00  0.00     0.001 A 
HETATM   11  C10 UNL     1     -10.198  -5.698  -0.663  1.00  0.00     0.025 C 
HETATM   12  C11 UNL     1      -9.634  -6.427   0.343  1.00  0.00    -0.008 C 
HETATM   13  C24 UNL     1     -10.347  -6.779   1.541  1.00  0.00     0.189 C 
HETATM   14  O4  UNL     1      -9.637  -6.811   2.577  1.00  0.00    -0.289 OA
HETATM   15  O5  UNL     1     -13.341  -2.515  -2.756  1.00  0.00    -0.323 OA
HETATM   16  C25 UNL     1     -14.727  -2.291  -2.566  1.00  0.00     0.352 A 
HETATM   17  O6  UNL     1     -15.130  -3.271  -1.620  1.00  0.00    -0.323 OA
ENDROOT
BRANCH  12  18
HETATM   18  C12 UNL     1      -8.236  -6.744   0.083  1.00  0.00     0.042 C 
BRANCH  18  19
HETATM   19  C13 UNL     1      -7.887  -7.511  -1.126  1.00  0.00     0.008 C 
BRANCH  19  20
HETATM   20  C14 UNL     1      -7.595  -6.828  -2.404  1.00  0.00     0.045 C 
BRANCH  20  21
HETATM   21  C15 UNL     1      -8.339  -7.373  -3.607  1.00  0.00     0.196 C 
BRANCH  21  22
HETATM   22  O2  UNL     1      -8.622  -6.290  -4.446  1.00  0.00    -0.383 OA
ATOM     23  H2  UNL     1      -9.238  -6.595  -5.101  1.00  0.00     0.211 HD
ENDBRANCH  21  22
BRANCH  21  24
HETATM   24  C16 UNL     1      -7.363  -8.280  -4.275  1.00  0.00    -0.074 C 
HETATM   25  C17 UNL     1      -6.559  -9.007  -4.803  1.00  0.00    -0.091 C 
BRANCH  25  26
HETATM   26  C18 UNL     1      -5.563  -9.878  -5.433  1.00  0.00     0.134 C 
HETATM   27  C19 UNL     1      -4.219  -9.240  -5.253  1.00  0.00     0.025 C 
HETATM   28  C20 UNL     1      -3.280  -9.752  -6.316  1.00  0.00     0.002 C 
HETATM   29  C21 UNL     1      -3.690 -11.102  -6.834  1.00  0.00     0.007 C 
HETATM   30  C22 UNL     1      -4.935 -10.913  -7.672  1.00  0.00     0.079 C 
HETATM   31  C23 UNL     1      -5.896 -10.126  -6.861  1.00  0.00     0.142 C 
HETATM   32  O3  UNL     1      -6.906  -9.721  -7.399  1.00  0.00    -0.297 OA
ENDBRANCH  25  26
ENDBRANCH  21  24
ENDBRANCH  20  21
ENDBRANCH  19  20
ENDBRANCH  18  19
ENDBRANCH  12  18
TORSDOF 7
ENDMDL
MODEL 4
REMARK VINA RESULT: -9.047790262      2.241      3.618
REMARK  7 active torsions:
REMARK  status: ('A' for Active; 'I' for Inactive)
REMARK    1  A    between atoms: C11_12  and  C12_13 
REMARK    2  A    between atoms: C12_13  and  C13_14 
REMARK    3  A    between atoms: C13_14  and  C14_15 
REMARK    4  A    between atoms: C14_15  and  C15_16 
REMARK    5  A    between atoms: C15_16  and  O2_17 
REMARK    6  A    between atoms: C15_16  and  C16_19 
REMARK    7  A    between atoms: C17_20  and  C18_21 
ROOT
HETATM    1  C1  UNL     1     -12.398  -9.018   2.959  1.00  0.00     0.055 C 
HETATM    2  C2  UNL     1     -12.276  -7.540   2.779  1.00  0.00     0.125 C 
HETATM    3  C3  UNL     1     -13.050  -6.885   3.929  1.00  0.00     0.055 C 
HETATM    4  O1  UNL     1     -12.841  -7.163   1.540  1.00  0.00    -0.332 OA
HETATM    5  C4  UNL     1     -12.586  -6.148   0.643  1.00  0.00     0.083 A 
HETATM    6  C5  UNL     1     -13.677  -5.615   0.005  1.00  0.00     0.077 A 
HETATM    7  C6  UNL     1     -13.599  -4.591  -0.925  1.00  0.00     0.107 A 
HETATM    8  C7  UNL     1     -12.351  -4.071  -1.233  1.00  0.00     0.106 A 
HETATM    9  C8  UNL     1     -11.250  -4.601  -0.597  1.00  0.00     0.054 A 
HETATM   10  C9  UNL     1     -11.350  -5.621   0.326  1.00  0.00     0.001 A 
HETATM   11  C10 UNL     1     -10.074  -6.037   0.882  1.00  0.00     0.025 C 
HETATM   12  C11 UNL     1      -9.823  -6.726   2.033  1.00  0.00    -0.008 C 
HETATM   13  C24 UNL     1     -10.862  -7.116   2.947  1.00  0.00     0.189 C 
HETATM   14  O4  UNL     1     -10.522  -7.100   4.157  1.00  0.00    -0.289 OA
HETATM   15  O5  UNL     1     -12.555  -3.066  -2.185  1.00  0.00    -0.323 OA
HETATM   16  C25 UNL     1     -13.939  -2.928  -2.455  1.00  0.00     0.352 A 
HETATM   17  O6  UNL     1     -14.567  -3.928  -1.665  1.00  0.00    -0.323 OA
ENDROOT
BRANCH  12  18
HETATM   18  C12 UNL     1      -8.399  -6.956   2.244  1.00  0.00     0.042 C 
BRANCH  18  19
HETATM   19  C13 UNL     1      -7.874  -8.330   2.155  1.00  0.00     0.008 C 
BRANCH  19  20
HETATM   20  C14 UNL     1      -6.536  -8.670   2.683  1.00  0.00     0.045 C 
BRANCH  20  21
HETATM   21  C15 UNL     1      -5.586  -9.284   1.673  1.00  0.00     0.196 C 
BRANCH  21  22
HETATM   22  O2  UNL     1      -5.743 -10.671   1.746  1.00  0.00    -0.383 OA
ATOM     23  H2  UNL     1      -5.838 -10.991   0.857  1.00  0.00     0.211 HD
ENDBRANCH  21  22
BRANCH  21  24
HETATM   24  C16 UNL     1      -6.070  -8.794   0.352  1.00  0.00    -0.074 C 
HETATM   25  C17 UNL     1      -6.471  -8.382  -0.708  1.00  0.00    -0.091 C 
BRANCH  25  26
HETATM   26  C18 UNL     1      -6.973  -7.863  -1.984  1.00  0.00     0.134 C 
HETATM   27  C19 UNL     1      -8.181  -7.027  -1.694  1.00  0.00     0.025 C 
HETATM   28  C20 UNL     1      -9.038  -6.947  -2.932  1.00  0.00     0.002 C 
HETATM   29  C21 UNL     1      -8.243  -7.161  -4.188  1.00  0.00     0.007 C 
HETATM   30  C22 UNL     1      -7.860  -8.622  -4.246  1.00  0.00     0.079 C 
HETATM   31  C23 UNL     1      -7.254  -8.970  -2.937  1.00  0.00     0.142 C 
HETATM   32  O3  UNL     1      -7.018 -10.137  -2.705  1.00  0.00    -0.297 OA
ENDBRANCH  25  26
ENDBRANCH  21  24
ENDBRANCH  20  21
ENDBRANCH  19  20
ENDBRANCH  18  19
ENDBRANCH  12  18
TORSDOF 7
ENDMDL
MODEL 5
REMARK VINA RESULT: -9.036379654      4.517      8.042
REMARK  7 active torsions:
REMARK  status: ('A' for Active; 'I' for Inactive)
REMARK    1  A    between atoms: C11_12  and  C12_13 
REMARK    2  A    between atoms: C12_13  and  C13_14 
REMARK    3  A    between atoms: C13_14  and  C14_15 
REMARK    4  A    between atoms: C14_15  and  C15_16 
REMARK    5  A    between atoms: C15_16  and  O2_17 
REMARK    6  A    between atoms: C15_16  and  C16_19 
REMARK    7  A    between atoms: C17_20  and  C18_21 
ROOT
HETATM    1  C1  UNL     1      -9.465  -5.864   1.931  1.00  0.00     0.055 C 
HETATM    2  C2  UNL     1     -10.448  -6.143   0.842  1.00  0.00     0.125 C 
HETATM    3  C3  UNL     1      -9.709  -6.952  -0.230  1.00  0.00     0.055 C 
HETATM    4  O1  UNL     1     -10.911  -4.925   0.294  1.00  0.00    -0.332 OA
HETATM    5  C4  UNL     1     -12.093  -4.530  -0.293  1.00  0.00     0.083 A 
HETATM    6  C5  UNL     1     -11.987  -3.633  -1.326  1.00  0.00     0.077 A 
HETATM    7  C6  UNL     1     -13.073  -3.133  -2.025  1.00  0.00     0.107 A 
HETATM    8  C7  UNL     1     -14.342  -3.558  -1.666  1.00  0.00     0.106 A 
HETATM    9  C8  UNL     1     -14.459  -4.459  -0.630  1.00  0.00     0.054 A 
HETATM   10  C9  UNL     1     -13.363  -4.944   0.053  1.00  0.00     0.001 A 
HETATM   11  C10 UNL     1     -13.698  -5.883   1.110  1.00  0.00     0.025 C 
HETATM   12  C11 UNL     1     -12.902  -6.806   1.723  1.00  0.00    -0.008 C 
HETATM   13  C24 UNL     1     -11.533  -7.026   1.342  1.00  0.00     0.189 C 
HETATM   14  O4  UNL     1     -11.152  -8.219   1.443  1.00  0.00    -0.289 OA
HETATM   15  O5  UNL     1     -15.243  -2.909  -2.518  1.00  0.00    -0.323 OA
HETATM   16  C25 UNL     1     -14.537  -2.095  -3.439  1.00  0.00     0.352 A 
HETATM   17  O6  UNL     1     -13.170  -2.236  -3.079  1.00  0.00    -0.323 OA
ENDROOT
BRANCH  12  18
HETATM   18  C12 UNL     1     -13.613  -7.562   2.746  1.00  0.00     0.042 C 
BRANCH  18  19
HETATM   19  C13 UNL     1     -13.025  -7.676   4.092  1.00  0.00     0.008 C 
BRANCH  19  20
HETATM   20  C14 UNL     1     -13.860  -7.532   5.303  1.00  0.00     0.045 C 
BRANCH  20  21
HETATM   21  C15 UNL     1     -13.669  -6.234   6.064  1.00  0.00     0.196 C 
BRANCH  21  22
HETATM   22  O2  UNL     1     -14.158  -6.436   7.359  1.00  0.00    -0.383 OA
ATOM     23  H2  UNL     1     -14.192  -5.587   7.783  1.00  0.00     0.211 HD
ENDBRANCH  21  22
BRANCH  21  24
HETATM   24  C16 UNL     1     -12.193  -6.038   6.112  1.00  0.00    -0.074 C 
HETATM   25  C17 UNL     1     -10.996  -5.898   6.142  1.00  0.00    -0.091 C 
BRANCH  25  26
HETATM   26  C18 UNL     1      -9.538  -5.753   6.172  1.00  0.00     0.134 C 
HETATM   27  C19 UNL     1      -9.193  -4.453   5.512  1.00  0.00     0.025 C 
HETATM   28  C20 UNL     1      -7.770  -4.510   5.016  1.00  0.00     0.002 C 
HETATM   29  C21 UNL     1      -6.939  -5.497   5.786  1.00  0.00     0.007 C 
HETATM   30  C22 UNL     1      -7.394  -6.885   5.394  1.00  0.00     0.079 C 
HETATM   31  C23 UNL     1      -8.871  -6.918   5.531  1.00  0.00     0.142 C 
HETATM   32  O3  UNL     1      -9.465  -7.891   5.116  1.00  0.00    -0.297 OA
ENDBRANCH  25  26
ENDBRANCH  21  24
ENDBRANCH  20  21
ENDBRANCH  19  20
ENDBRANCH  18  19
ENDBRANCH  12  18
TORSDOF 7
ENDMDL
