MODEL 1
REMARK VINA RESULT: -8.486850426      0.000      0.000
REMARK  6 active torsions:
REMARK  status: ('A' for Active; 'I' for Inactive)
REMARK    1  A    between atoms: N2_12  and  C10_13 
REMARK    2  A    between atoms: C10_13  and  C11_14 
REMARK    3  A    between atoms: C11_14  and  N3_15 
REMARK    4  A    between atoms: N3_15  and  C12_17 
REMARK    5  A    between atoms: C13_20  and  N5_21 
REMARK    6  A    between atoms: N5_21  and  C14_23 
ROOT
HETATM    1  C11 UNL     1      22.806 -35.463  -9.389  1.00  0.00     0.107 C 
ENDROOT
BRANCH   1   2
HETATM    2  C10 UNL     1      21.325 -35.422  -9.254  1.00  0.00     0.107 C 
BRANCH   2   3
HETATM    3  N2  UNL     1      20.757 -34.999  -8.059  1.00  0.00    -0.369 N 
HETATM    4  C9  UNL     1      20.198 -35.861  -7.131  1.00  0.00     0.066 C 
HETATM    5  C8  UNL     1      19.091 -35.287  -6.279  1.00  0.00     0.083 C 
HETATM    6  C7  UNL     1      19.526 -33.986  -5.640  1.00  0.00     0.074 C 
HETATM    7  O1  UNL     1      18.419 -33.409  -5.003  1.00  0.00    -0.338 OA
HETATM    8  C24 UNL     1      19.898 -33.062  -6.798  1.00  0.00     0.059 C 
HETATM    9  C25 UNL     1      20.736 -34.130  -4.785  1.00  0.00     0.054 C 
HETATM   10  C5  UNL     1      18.286 -32.665  -3.838  1.00  0.00     0.093 A 
HETATM   11  C4  UNL     1      18.973 -32.866  -2.676  1.00  0.00     0.092 A 
HETATM   12  C6  UNL     1      17.364 -31.641  -3.915  1.00  0.00     0.064 A 
HETATM   13  C3  UNL     1      18.736 -32.035  -1.578  1.00  0.00     0.028 A 
HETATM   14  S2  UNL     1      20.197 -34.030  -2.185  1.00  0.00     0.178 S 
HETATM   15  C2  UNL     1      17.803 -31.020  -1.692  1.00  0.00     0.028 A 
HETATM   16  C1  UNL     1      17.093 -30.792  -2.855  1.00  0.00     0.049 A 
HETATM   17  N1  UNL     1      16.153 -29.743  -2.919  1.00  0.00    -0.102 NA
HETATM   18  C26 UNL     1      20.537 -35.048  -3.607  1.00  0.00     0.149 C 
HETATM   19  O3  UNL     1      21.431 -33.236  -1.860  1.00  0.00    -0.223 OA
HETATM   20  O4  UNL     1      19.742 -34.882  -1.053  1.00  0.00    -0.223 OA
HETATM   21  C23 UNL     1      20.944 -33.636  -7.688  1.00  0.00     0.130 C 
ENDBRANCH   2   3
ENDBRANCH   1   2
BRANCH   1  22
HETATM   22  N3  UNL     1      23.561 -35.767  -8.243  1.00  0.00    -0.349 N 
ATOM     23  H3  UNL     1      23.814 -36.750  -8.147  1.00  0.00     0.166 HD
BRANCH  22  24
HETATM   24  C12 UNL     1      23.983 -35.015  -7.302  1.00  0.00     0.140 A 
HETATM   25  N4  UNL     1      24.400 -33.759  -7.521  1.00  0.00    -0.175 N 
HETATM   26  C13 UNL     1      24.825 -33.087  -6.407  1.00  0.00     0.680 A 
ATOM     27  H4  UNL     1      24.401 -33.336  -8.449  1.00  0.00     0.186 HD
HETATM   28  N6  UNL     1      24.848 -33.579  -5.185  1.00  0.00    -0.190 N 
HETATM   29  C19 UNL     1      24.427 -34.861  -4.918  1.00  0.00     0.070 A 
ATOM     30  H6  UNL     1      25.185 -32.995  -4.419  1.00  0.00     0.184 HD
HETATM   31  C20 UNL     1      24.393 -35.495  -3.726  1.00  0.00     0.039 A 
HETATM   32  C22 UNL     1      23.997 -35.562  -6.006  1.00  0.00     0.076 A 
HETATM   33  C21 UNL     1      23.930 -36.780  -3.713  1.00  0.00     0.053 A 
HETATM   34  S1  UNL     1      23.557 -37.072  -5.352  1.00  0.00    -0.096 SA
BRANCH  26  35
HETATM   35  N5  UNL     1      25.224 -31.877  -6.654  1.00  0.00    -0.221 N 
ATOM     36  H5  UNL     1      25.386 -31.601  -7.623  1.00  0.00     0.178 HD
BRANCH  35  37
HETATM   37  C14 UNL     1      25.448 -30.909  -5.612  1.00  0.00     0.103 C 
HETATM   38  C15 UNL     1      24.764 -29.581  -5.975  1.00  0.00     0.052 C 
HETATM   39  C16 UNL     1      25.496 -28.518  -5.146  1.00  0.00     0.169 C 
HETATM   40  O2  UNL     1      25.938 -29.019  -3.937  1.00  0.00    -0.391 OA
HETATM   41  C17 UNL     1      27.028 -29.875  -4.083  1.00  0.00     0.169 C 
HETATM   42  C18 UNL     1      26.907 -30.560  -5.432  1.00  0.00     0.052 C 
ENDBRANCH  35  37
ENDBRANCH  26  35
ENDBRANCH  22  24
ENDBRANCH   1  22
TORSDOF 6
ENDMDL
MODEL 2
REMARK VINA RESULT: -8.389586837      2.763      3.517
REMARK  6 active torsions:
REMARK  status: ('A' for Active; 'I' for Inactive)
REMARK    1  A    between atoms: N2_12  and  C10_13 
REMARK    2  A    between atoms: C10_13  and  C11_14 
REMARK    3  A    between atoms: C11_14  and  N3_15 
REMARK    4  A    between atoms: N3_15  and  C12_17 
REMARK    5  A    between atoms: C13_20  and  N5_21 
REMARK    6  A    between atoms: N5_21  and  C14_23 
ROOT
HETATM    1  C11 UNL     1      22.940 -35.623  -9.426  1.00  0.00     0.107 C 
ENDROOT
BRANCH   1   2
HETATM    2  C10 UNL     1      21.465 -35.451  -9.343  1.00  0.00     0.107 C 
BRANCH   2   3
HETATM    3  N2  UNL     1      20.887 -35.043  -8.148  1.00  0.00    -0.369 N 
HETATM    4  C9  UNL     1      20.317 -35.916  -7.237  1.00  0.00     0.066 C 
HETATM    5  C8  UNL     1      19.204 -35.350  -6.387  1.00  0.00     0.083 C 
HETATM    6  C7  UNL     1      19.639 -34.060  -5.726  1.00  0.00     0.074 C 
HETATM    7  O1  UNL     1      18.529 -33.487  -5.090  1.00  0.00    -0.338 OA
HETATM    8  C24 UNL     1      20.025 -33.121  -6.867  1.00  0.00     0.059 C 
HETATM    9  C25 UNL     1      20.840 -34.221  -4.862  1.00  0.00     0.054 C 
HETATM   10  C5  UNL     1      18.388 -32.759  -3.916  1.00  0.00     0.093 A 
HETATM   11  C4  UNL     1      19.063 -32.980  -2.751  1.00  0.00     0.092 A 
HETATM   12  C6  UNL     1      17.470 -31.731  -3.986  1.00  0.00     0.064 A 
HETATM   13  C3  UNL     1      18.819 -32.163  -1.643  1.00  0.00     0.028 A 
HETATM   14  S2  UNL     1      20.278 -34.156  -2.265  1.00  0.00     0.178 S 
HETATM   15  C2  UNL     1      17.892 -31.143  -1.751  1.00  0.00     0.028 A 
HETATM   16  C1  UNL     1      17.193 -30.895  -2.917  1.00  0.00     0.049 A 
HETATM   17  N1  UNL     1      16.259 -29.842  -2.974  1.00  0.00    -0.102 NA
HETATM   18  C26 UNL     1      20.626 -35.155  -3.698  1.00  0.00     0.149 C 
HETATM   19  O3  UNL     1      21.512 -33.372  -1.917  1.00  0.00    -0.223 OA
HETATM   20  O4  UNL     1      19.808 -35.022  -1.150  1.00  0.00    -0.223 OA
HETATM   21  C23 UNL     1      21.076 -33.686  -7.755  1.00  0.00     0.130 C 
ENDBRANCH   2   3
ENDBRANCH   1   2
BRANCH   1  22
HETATM   22  N3  UNL     1      23.488 -36.826  -8.945  1.00  0.00    -0.349 N 
ATOM     23  H3  UNL     1      23.393 -37.620  -9.578  1.00  0.00     0.166 HD
BRANCH  22  24
HETATM   24  C12 UNL     1      24.086 -37.088  -7.849  1.00  0.00     0.140 A 
HETATM   25  N4  UNL     1      23.528 -36.842  -6.653  1.00  0.00    -0.175 N 
HETATM   26  C13 UNL     1      24.300 -37.179  -5.574  1.00  0.00     0.680 A 
ATOM     27  H4  UNL     1      22.599 -36.435  -6.556  1.00  0.00     0.186 HD
HETATM   28  N6  UNL     1      25.506 -37.707  -5.637  1.00  0.00    -0.190 N 
HETATM   29  C19 UNL     1      26.112 -37.976  -6.843  1.00  0.00     0.070 A 
ATOM     30  H6  UNL     1      26.002 -37.921  -4.772  1.00  0.00     0.184 HD
HETATM   31  C20 UNL     1      27.332 -38.511  -7.061  1.00  0.00     0.039 A 
HETATM   32  C22 UNL     1      25.371 -37.653  -7.942  1.00  0.00     0.076 A 
HETATM   33  C21 UNL     1      27.717 -38.684  -8.360  1.00  0.00     0.053 A 
HETATM   34  S1  UNL     1      26.379 -38.098  -9.241  1.00  0.00    -0.096 SA
BRANCH  26  35
HETATM   35  N5  UNL     1      23.735 -36.926  -4.434  1.00  0.00    -0.221 N 
ATOM     36  H5  UNL     1      22.747 -37.152  -4.316  1.00  0.00     0.178 HD
BRANCH  35  37
HETATM   37  C14 UNL     1      24.449 -36.339  -3.330  1.00  0.00     0.103 C 
HETATM   38  C15 UNL     1      23.663 -36.553  -2.026  1.00  0.00     0.052 C 
HETATM   39  C16 UNL     1      24.175 -35.465  -1.072  1.00  0.00     0.169 C 
HETATM   40  O2  UNL     1      25.503 -35.160  -1.301  1.00  0.00    -0.391 OA
HETATM   41  C17 UNL     1      25.685 -34.430  -2.476  1.00  0.00     0.169 C 
HETATM   42  C18 UNL     1      24.601 -34.841  -3.454  1.00  0.00     0.052 C 
ENDBRANCH  35  37
ENDBRANCH  26  35
ENDBRANCH  22  24
ENDBRANCH   1  22
TORSDOF 6
ENDMDL
MODEL 3
REMARK VINA RESULT: -8.349722343      3.311      7.306
REMARK  6 active torsions:
REMARK  status: ('A' for Active; 'I' for Inactive)
REMARK    1  A    between atoms: N2_12  and  C10_13 
REMARK    2  A    between atoms: C10_13  and  C11_14 
REMARK    3  A    between atoms: C11_14  and  N3_15 
REMARK    4  A    between atoms: N3_15  and  C12_17 
REMARK    5  A    between atoms: C13_20  and  N5_21 
REMARK    6  A    between atoms: N5_21  and  C14_23 
ROOT
HETATM    1  C11 UNL     1      24.400 -35.850  -1.175  1.00  0.00     0.107 C 
ENDROOT
BRANCH   1   2
HETATM    2  C10 UNL     1      24.849 -36.757  -2.263  1.00  0.00     0.107 C 
BRANCH   2   3
HETATM    3  N2  UNL     1      24.081 -36.882  -3.414  1.00  0.00    -0.369 N 
HETATM    4  C9  UNL     1      22.719 -37.129  -3.400  1.00  0.00     0.066 C 
HETATM    5  C8  UNL     1      22.169 -37.871  -4.595  1.00  0.00     0.083 C 
HETATM    6  C7  UNL     1      22.602 -37.205  -5.884  1.00  0.00     0.074 C 
HETATM    7  O1  UNL     1      22.215 -38.018  -6.959  1.00  0.00    -0.338 OA
HETATM    8  C24 UNL     1      24.129 -37.208  -5.857  1.00  0.00     0.059 C 
HETATM    9  C25 UNL     1      22.165 -35.786  -5.984  1.00  0.00     0.054 C 
HETATM   10  C5  UNL     1      21.773 -37.732  -8.243  1.00  0.00     0.093 A 
HETATM   11  C4  UNL     1      20.945 -36.706  -8.595  1.00  0.00     0.092 A 
HETATM   12  C6  UNL     1      22.240 -38.593  -9.215  1.00  0.00     0.064 A 
HETATM   13  C3  UNL     1      20.581 -36.537  -9.934  1.00  0.00     0.028 A 
HETATM   14  S2  UNL     1      20.153 -35.427  -7.682  1.00  0.00     0.178 S 
HETATM   15  C2  UNL     1      21.069 -37.420 -10.880  1.00  0.00     0.028 A 
HETATM   16  C1  UNL     1      21.908 -38.468 -10.554  1.00  0.00     0.049 A 
HETATM   17  N1  UNL     1      22.378 -39.340 -11.556  1.00  0.00    -0.102 NA
HETATM   18  C26 UNL     1      20.668 -35.613  -5.987  1.00  0.00     0.149 C 
HETATM   19  O3  UNL     1      20.699 -34.130  -8.208  1.00  0.00    -0.223 OA
HETATM   20  O4  UNL     1      18.670 -35.509  -7.770  1.00  0.00    -0.223 OA
HETATM   21  C23 UNL     1      24.691 -36.538  -4.654  1.00  0.00     0.130 C 
ENDBRANCH   2   3
ENDBRANCH   1   2
BRANCH   1  22
HETATM   22  N3  UNL     1      24.199 -34.494  -1.491  1.00  0.00    -0.349 N 
ATOM     23  H3  UNL     1      24.848 -33.850  -1.039  1.00  0.00     0.166 HD
BRANCH  22  24
HETATM   24  C12 UNL     1      23.338 -33.936  -2.250  1.00  0.00     0.140 A 
HETATM   25  N4  UNL     1      22.018 -34.033  -2.028  1.00  0.00    -0.175 N 
HETATM   26  C13 UNL     1      21.229 -33.379  -2.935  1.00  0.00     0.680 A 
ATOM     27  H4  UNL     1      21.632 -34.556  -1.243  1.00  0.00     0.186 HD
HETATM   28  N6  UNL     1      21.669 -32.690  -3.969  1.00  0.00    -0.190 N 
HETATM   29  C19 UNL     1      23.014 -32.564  -4.229  1.00  0.00     0.070 A 
ATOM     30  H6  UNL     1      20.997 -32.238  -4.589  1.00  0.00     0.184 HD
HETATM   31  C20 UNL     1      23.608 -31.895  -5.241  1.00  0.00     0.039 A 
HETATM   32  C22 UNL     1      23.832 -33.204  -3.345  1.00  0.00     0.076 A 
HETATM   33  C21 UNL     1      24.972 -31.915  -5.290  1.00  0.00     0.053 A 
HETATM   34  S1  UNL     1      25.393 -32.862  -3.934  1.00  0.00    -0.096 SA
BRANCH  26  35
HETATM   35  N5  UNL     1      19.959 -33.496  -2.695  1.00  0.00    -0.221 N 
ATOM     36  H5  UNL     1      19.661 -34.032  -1.880  1.00  0.00     0.178 HD
BRANCH  35  37
HETATM   37  C14 UNL     1      18.955 -32.896  -3.535  1.00  0.00     0.103 C 
HETATM   38  C15 UNL     1      18.100 -31.919  -2.713  1.00  0.00     0.052 C 
HETATM   39  C16 UNL     1      16.788 -31.784  -3.496  1.00  0.00     0.169 C 
HETATM   40  O2  UNL     1      16.984 -31.905  -4.858  1.00  0.00    -0.391 OA
HETATM   41  C17 UNL     1      17.255 -33.218  -5.241  1.00  0.00     0.169 C 
HETATM   42  C18 UNL     1      17.974 -33.901  -4.092  1.00  0.00     0.052 C 
ENDBRANCH  35  37
ENDBRANCH  26  35
ENDBRANCH  22  24
ENDBRANCH   1  22
TORSDOF 6
ENDMDL
MODEL 4
REMARK VINA RESULT: -8.312535505      3.159      6.272
REMARK  6 active torsions:
REMARK  status: ('A' for Active; 'I' for Inactive)
REMARK    1  A    between atoms: N2_12  and  C10_13 
REMARK    2  A    between atoms: C10_13  and  C11_14 
REMARK    3  A    between atoms: C11_14  and  N3_15 
REMARK    4  A    between atoms: N3_15  and  C12_17 
REMARK    5  A    between atoms: C13_20  and  N5_21 
REMARK    6  A    between atoms: N5_21  and  C14_23 
ROOT
HETATM    1  C11 UNL     1      28.491 -33.386  -4.856  1.00  0.00     0.107 C 
ENDROOT
BRANCH   1   2
HETATM    2  C10 UNL     1      27.900 -34.573  -5.528  1.00  0.00     0.107 C 
BRANCH   2   3
HETATM    3  N2  UNL     1      26.561 -34.558  -5.895  1.00  0.00    -0.369 N 
HETATM    4  C9  UNL     1      26.118 -34.211  -7.160  1.00  0.00     0.066 C 
HETATM    5  C8  UNL     1      24.734 -33.610  -7.234  1.00  0.00     0.083 C 
HETATM    6  C7  UNL     1      23.731 -34.486  -6.513  1.00  0.00     0.074 C 
HETATM    7  O1  UNL     1      22.504 -33.810  -6.461  1.00  0.00    -0.338 OA
HETATM    8  C24 UNL     1      24.235 -34.592  -5.075  1.00  0.00     0.059 C 
HETATM    9  C25 UNL     1      23.661 -35.868  -7.060  1.00  0.00     0.054 C 
HETATM   10  C5  UNL     1      21.187 -34.244  -6.526  1.00  0.00     0.093 A 
HETATM   11  C4  UNL     1      20.712 -35.246  -7.321  1.00  0.00     0.092 A 
HETATM   12  C6  UNL     1      20.320 -33.569  -5.691  1.00  0.00     0.064 A 
HETATM   13  C3  UNL     1      19.355 -35.578  -7.282  1.00  0.00     0.028 A 
HETATM   14  S2  UNL     1      21.470 -36.317  -8.494  1.00  0.00     0.178 S 
HETATM   15  C2  UNL     1      18.516 -34.879  -6.433  1.00  0.00     0.028 A 
HETATM   16  C1  UNL     1      18.968 -33.861  -5.617  1.00  0.00     0.049 A 
HETATM   17  N1  UNL     1      18.071 -33.180  -4.769  1.00  0.00    -0.102 NA
HETATM   18  C26 UNL     1      23.208 -35.928  -8.495  1.00  0.00     0.149 C 
HETATM   19  O3  UNL     1      21.293 -37.714  -7.968  1.00  0.00    -0.223 OA
HETATM   20  O4  UNL     1      20.912 -36.139  -9.862  1.00  0.00    -0.223 OA
HETATM   21  C23 UNL     1      25.623 -35.123  -4.983  1.00  0.00     0.130 C 
ENDBRANCH   2   3
ENDBRANCH   1   2
BRANCH   1  22
HETATM   22  N3  UNL     1      27.774 -32.177  -4.907  1.00  0.00    -0.349 N 
ATOM     23  H3  UNL     1      27.847 -31.676  -5.792  1.00  0.00     0.166 HD
BRANCH  22  24
HETATM   24  C12 UNL     1      27.046 -31.604  -4.030  1.00  0.00     0.140 A 
HETATM   25  N4  UNL     1      26.358 -32.295  -3.108  1.00  0.00    -0.175 N 
HETATM   26  C13 UNL     1      25.624 -31.531  -2.241  1.00  0.00     0.680 A 
ATOM     27  H4  UNL     1      26.381 -33.313  -3.057  1.00  0.00     0.186 HD
HETATM   28  N6  UNL     1      25.555 -30.215  -2.257  1.00  0.00    -0.190 N 
HETATM   29  C19 UNL     1      26.246 -29.470  -3.185  1.00  0.00     0.070 A 
ATOM     30  H6  UNL     1      24.976 -29.738  -1.566  1.00  0.00     0.184 HD
HETATM   31  C20 UNL     1      26.272 -28.127  -3.323  1.00  0.00     0.039 A 
HETATM   32  C22 UNL     1      26.990 -30.199  -4.067  1.00  0.00     0.076 A 
HETATM   33  C21 UNL     1      27.040 -27.616  -4.329  1.00  0.00     0.053 A 
HETATM   34  S1  UNL     1      27.702 -29.010  -5.057  1.00  0.00    -0.096 SA
BRANCH  26  35
HETATM   35  N5  UNL     1      24.969 -32.229  -1.365  1.00  0.00    -0.221 N 
ATOM     36  H5  UNL     1      24.821 -31.835  -0.435  1.00  0.00     0.178 HD
BRANCH  35  37
HETATM   37  C14 UNL     1      24.442 -33.537  -1.655  1.00  0.00     0.103 C 
HETATM   38  C15 UNL     1      22.919 -33.456  -1.850  1.00  0.00     0.052 C 
HETATM   39  C16 UNL     1      22.410 -34.880  -1.593  1.00  0.00     0.169 C 
HETATM   40  O2  UNL     1      23.332 -35.836  -1.973  1.00  0.00    -0.391 OA
HETATM   41  C17 UNL     1      24.419 -35.903  -1.102  1.00  0.00     0.169 C 
HETATM   42  C18 UNL     1      24.639 -34.518  -0.522  1.00  0.00     0.052 C 
ENDBRANCH  35  37
ENDBRANCH  26  35
ENDBRANCH  22  24
ENDBRANCH   1  22
TORSDOF 6
ENDMDL
MODEL 5
REMARK VINA RESULT: -8.308545370      3.379      8.000
REMARK  6 active torsions:
REMARK  status: ('A' for Active; 'I' for Inactive)
REMARK    1  A    between atoms: N2_12  and  C10_13 
REMARK    2  A    between atoms: C10_13  and  C11_14 
REMARK    3  A    between atoms: C11_14  and  N3_15 
REMARK    4  A    between atoms: N3_15  and  C12_17 
REMARK    5  A    between atoms: C13_20  and  N5_21 
REMARK    6  A    between atoms: N5_21  and  C14_23 
ROOT
HETATM    1  C11 UNL     1      22.665 -34.724  -1.689  1.00  0.00     0.107 C 
ENDROOT
BRANCH   1   2
HETATM    2  C10 UNL     1      23.460 -35.904  -2.122  1.00  0.00     0.107 C 
BRANCH   2   3
HETATM    3  N2  UNL     1      23.418 -36.310  -3.450  1.00  0.00    -0.369 N 
HETATM    4  C9  UNL     1      22.245 -36.612  -4.120  1.00  0.00     0.066 C 
HETATM    5  C8  UNL     1      22.364 -37.619  -5.240  1.00  0.00     0.083 C 
HETATM    6  C7  UNL     1      23.468 -37.226  -6.197  1.00  0.00     0.074 C 
HETATM    7  O1  UNL     1      23.655 -38.269  -7.116  1.00  0.00    -0.338 OA
HETATM    8  C24 UNL     1      24.739 -37.152  -5.354  1.00  0.00     0.059 C 
HETATM    9  C25 UNL     1      23.265 -35.884  -6.807  1.00  0.00     0.054 C 
HETATM   10  C5  UNL     1      23.991 -38.287  -8.463  1.00  0.00     0.093 A 
HETATM   11  C4  UNL     1      23.563 -37.402  -9.408  1.00  0.00     0.092 A 
HETATM   12  C6  UNL     1      24.837 -39.314  -8.828  1.00  0.00     0.064 A 
HETATM   13  C3  UNL     1      23.985 -37.542 -10.733  1.00  0.00     0.028 A 
HETATM   14  S2  UNL     1      22.507 -35.995  -9.352  1.00  0.00     0.178 S 
HETATM   15  C2  UNL     1      24.833 -38.585 -11.061  1.00  0.00     0.028 A 
HETATM   16  C1  UNL     1      25.283 -39.497 -10.126  1.00  0.00     0.049 A 
HETATM   17  N1  UNL     1      26.147 -40.541 -10.513  1.00  0.00    -0.102 NA
HETATM   18  C26 UNL     1      22.020 -35.787  -7.651  1.00  0.00     0.149 C 
HETATM   19  O3  UNL     1      23.348 -34.817  -9.756  1.00  0.00    -0.223 OA
HETATM   20  O4  UNL     1      21.299 -36.163 -10.205  1.00  0.00    -0.223 OA
HETATM   21  C23 UNL     1      24.621 -36.212  -4.206  1.00  0.00     0.130 C 
ENDBRANCH   2   3
ENDBRANCH   1   2
BRANCH   1  22
HETATM   22  N3  UNL     1      23.017 -33.467  -2.214  1.00  0.00    -0.349 N 
ATOM     23  H3  UNL     1      23.492 -32.849  -1.557  1.00  0.00     0.166 HD
BRANCH  22  24
HETATM   24  C12 UNL     1      22.840 -32.972  -3.377  1.00  0.00     0.140 A 
HETATM   25  N4  UNL     1      21.645 -32.988  -3.987  1.00  0.00    -0.175 N 
HETATM   26  C13 UNL     1      21.623 -32.419  -5.232  1.00  0.00     0.680 A 
ATOM     27  H4  UNL     1      20.815 -33.394  -3.556  1.00  0.00     0.186 HD
HETATM   28  N6  UNL     1      22.661 -31.880  -5.840  1.00  0.00    -0.190 N 
HETATM   29  C19 UNL     1      23.902 -31.841  -5.248  1.00  0.00     0.070 A 
ATOM     30  H6  UNL     1      22.540 -31.481  -6.771  1.00  0.00     0.184 HD
HETATM   31  C20 UNL     1      25.046 -31.326  -5.745  1.00  0.00     0.039 A 
HETATM   32  C22 UNL     1      23.962 -32.401  -4.005  1.00  0.00     0.076 A 
HETATM   33  C21 UNL     1      26.162 -31.407  -4.962  1.00  0.00     0.053 A 
HETATM   34  S1  UNL     1      25.593 -32.197  -3.560  1.00  0.00    -0.096 SA
BRANCH  26  35
HETATM   35  N5  UNL     1      20.455 -32.453  -5.796  1.00  0.00    -0.221 N 
ATOM     36  H5  UNL     1      20.320 -31.955  -6.676  1.00  0.00     0.178 HD
BRANCH  35  37
HETATM   37  C14 UNL     1      19.343 -33.169  -5.228  1.00  0.00     0.103 C 
HETATM   38  C15 UNL     1      18.866 -34.257  -6.204  1.00  0.00     0.052 C 
HETATM   39  C16 UNL     1      17.418 -34.552  -5.792  1.00  0.00     0.169 C 
HETATM   40  O2  UNL     1      17.223 -34.393  -4.434  1.00  0.00    -0.391 OA
HETATM   41  C17 UNL     1      17.220 -33.052  -4.051  1.00  0.00     0.169 C 
HETATM   42  C18 UNL     1      18.132 -32.294  -4.997  1.00  0.00     0.052 C 
ENDBRANCH  35  37
ENDBRANCH  26  35
ENDBRANCH  22  24
ENDBRANCH   1  22
TORSDOF 6
ENDMDL
