MODEL 1
REMARK VINA RESULT: -8.214774887      0.000      0.000
REMARK  6 active torsions:
REMARK  status: ('A' for Active; 'I' for Inactive)
REMARK    1  A    between atoms: C2_2  and  C3_3 
REMARK    2  A    between atoms: C3_3  and  C4_4 
REMARK    3  A    between atoms: C4_4  and  O1_5 
REMARK    4  A    between atoms: C6_8  and  O2_9 
REMARK    5  A    between atoms: C16_20  and  C17_21 
REMARK    6  A    between atoms: C17_21  and  O3_22 
ROOT
HETATM    1  C4  UNL     1       3.846   6.216  22.830  1.00  0.00     0.071 C 
HETATM    2  C5  UNL     1       5.200   6.020  23.401  1.00  0.00     0.070 C 
HETATM    3  C6  UNL     1       5.255   6.339  24.850  1.00  0.00     0.121 C 
HETATM    4  C7  UNL     1       3.981   7.019  25.334  1.00  0.00     0.038 C 
HETATM    5  C8  UNL     1       2.825   6.082  25.165  1.00  0.00     0.010 C 
HETATM    6  C9  UNL     1       1.574   6.553  25.861  1.00  0.00    -0.009 C 
HETATM    7  C10 UNL     1       0.335   5.754  25.682  1.00  0.00     0.018 C 
HETATM    8  C11 UNL     1       1.258   7.895  25.274  1.00  0.00     0.003 C 
HETATM    9  C12 UNL     1       1.040   7.649  23.793  1.00  0.00     0.007 C 
HETATM   10  C13 UNL     1       1.474   6.382  23.195  1.00  0.00     0.013 C 
HETATM   11  C14 UNL     1       2.702   5.750  23.722  1.00  0.00    -0.008 C 
HETATM   12  C15 UNL     1       2.738   4.221  23.588  1.00  0.00     0.019 C 
HETATM   13  C16 UNL     1       0.068   8.607  25.792  1.00  0.00     0.025 C 
HETATM   14  C21 UNL     1      -0.337   8.522  27.185  1.00  0.00     0.008 C 
HETATM   15  C22 UNL     1       0.594   8.336  28.288  1.00  0.00     0.008 C 
HETATM   16  C23 UNL     1       1.990   7.881  27.976  1.00  0.00     0.025 C 
HETATM   17  C24 UNL     1       1.866   6.552  27.329  1.00  0.00     0.135 C 
HETATM   18  O4  UNL     1       2.972   5.801  27.708  1.00  0.00    -0.384 OA
HETATM   19  C25 UNL     1       3.208   6.123  29.035  1.00  0.00     0.177 C 
HETATM   20  C26 UNL     1       2.722   7.534  29.249  1.00  0.00    -0.020 C 
HETATM   21  C27 UNL     1       3.887   8.482  29.501  1.00  0.00     0.017 C 
HETATM   22  C28 UNL     1       1.857   7.521  30.476  1.00  0.00     0.017 C 
ENDROOT
BRANCH  13  23
HETATM   23  C17 UNL     1       0.212  10.069  25.388  1.00  0.00     0.062 C 
HETATM   24  C18 UNL     1      -0.765  10.986  26.158  1.00  0.00     0.038 C 
HETATM   25  C19 UNL     1      -0.769  11.856  24.918  1.00  0.00     0.006 C 
HETATM   26  C20 UNL     1      -0.475  10.544  24.165  1.00  0.00     0.038 C 
BRANCH  23  27
HETATM   27  O3  UNL     1       1.510  10.566  25.497  1.00  0.00    -0.389 OA
ATOM     28  H3  UNL     1       1.567  11.413  25.925  1.00  0.00     0.210 HD
ENDBRANCH  23  27
ENDBRANCH  13  23
BRANCH   3  29
HETATM   29  O2  UNL     1       5.549   5.194  25.562  1.00  0.00    -0.395 OA
ATOM     30  H2  UNL     1       4.745   4.819  25.902  1.00  0.00     0.210 HD
ENDBRANCH   3  29
BRANCH   1  31
HETATM   31  C3  UNL     1       3.840   5.411  21.515  1.00  0.00     0.065 C 
BRANCH  31  32
HETATM   32  C2  UNL     1       4.106   6.302  20.355  1.00  0.00    -0.034 C 
HETATM   33  C1  UNL     1       4.106   5.866  19.109  1.00  0.00     0.007 C 
ENDBRANCH  31  32
ENDBRANCH   1  31
BRANCH   1  34
HETATM   34  O1  UNL     1       3.612   7.531  22.351  1.00  0.00    -0.389 OA
ATOM     35  H1  UNL     1       2.835   7.771  22.841  1.00  0.00     0.210 HD
ENDBRANCH   1  34
TORSDOF 6
ENDMDL
MODEL 2
REMARK VINA RESULT: -7.711292955      2.504      5.492
REMARK  6 active torsions:
REMARK  status: ('A' for Active; 'I' for Inactive)
REMARK    1  A    between atoms: C2_2  and  C3_3 
REMARK    2  A    between atoms: C3_3  and  C4_4 
REMARK    3  A    between atoms: C4_4  and  O1_5 
REMARK    4  A    between atoms: C6_8  and  O2_9 
REMARK    5  A    between atoms: C16_20  and  C17_21 
REMARK    6  A    between atoms: C17_21  and  O3_22 
ROOT
HETATM    1  C4  UNL     1       3.636  11.393  24.563  1.00  0.00     0.071 C 
HETATM    2  C5  UNL     1       4.765  10.998  23.688  1.00  0.00     0.070 C 
HETATM    3  C6  UNL     1       4.810   9.533  23.447  1.00  0.00     0.121 C 
HETATM    4  C7  UNL     1       3.843   8.776  24.348  1.00  0.00     0.038 C 
HETATM    5  C8  UNL     1       2.441   9.200  24.036  1.00  0.00     0.010 C 
HETATM    6  C9  UNL     1       1.400   8.318  24.676  1.00  0.00    -0.009 C 
HETATM    7  C10 UNL     1      -0.027   8.699  24.518  1.00  0.00     0.018 C 
HETATM    8  C11 UNL     1       1.657   8.383  26.151  1.00  0.00     0.003 C 
HETATM    9  C12 UNL     1       1.491   9.844  26.527  1.00  0.00     0.007 C 
HETATM   10  C13 UNL     1       1.473  10.868  25.477  1.00  0.00     0.013 C 
HETATM   11  C14 UNL     1       2.328  10.659  24.289  1.00  0.00    -0.008 C 
HETATM   12  C15 UNL     1       1.804  11.320  23.006  1.00  0.00     0.019 C 
HETATM   13  C16 UNL     1       0.777   7.588  27.036  1.00  0.00     0.025 C 
HETATM   14  C21 UNL     1       0.251   6.292  26.640  1.00  0.00     0.008 C 
HETATM   15  C22 UNL     1       0.947   5.374  25.752  1.00  0.00     0.008 C 
HETATM   16  C23 UNL     1       2.096   5.898  24.938  1.00  0.00     0.025 C 
HETATM   17  C24 UNL     1       1.543   6.960  24.063  1.00  0.00     0.135 C 
HETATM   18  O4  UNL     1       2.254   6.926  22.869  1.00  0.00    -0.384 OA
HETATM   19  C25 UNL     1       2.476   5.585  22.604  1.00  0.00     0.177 C 
HETATM   20  C26 UNL     1       2.534   4.866  23.928  1.00  0.00    -0.020 C 
HETATM   21  C27 UNL     1       3.941   4.362  24.218  1.00  0.00     0.017 C 
HETATM   22  C28 UNL     1       1.623   3.677  23.825  1.00  0.00     0.017 C 
ENDROOT
BRANCH  13  23
HETATM   23  C17 UNL     1       1.488   7.464  28.377  1.00  0.00     0.062 C 
HETATM   24  C18 UNL     1       3.026   7.534  28.231  1.00  0.00     0.038 C 
HETATM   25  C19 UNL     1       3.081   6.621  29.439  1.00  0.00     0.006 C 
HETATM   26  C20 UNL     1       1.711   6.117  28.948  1.00  0.00     0.038 C 
BRANCH  23  27
HETATM   27  O3  UNL     1       1.065   8.385  29.335  1.00  0.00    -0.389 OA
ATOM     28  H3  UNL     1       1.701   8.554  30.020  1.00  0.00     0.210 HD
ENDBRANCH  23  27
ENDBRANCH  13  23
BRANCH   3  29
HETATM   29  O2  UNL     1       4.595   9.282  22.107  1.00  0.00    -0.395 OA
ATOM     30  H2  UNL     1       3.663   9.320  21.924  1.00  0.00     0.210 HD
ENDBRANCH   3  29
BRANCH   1  31
HETATM   31  C3  UNL     1       3.444  12.903  24.322  1.00  0.00     0.065 C 
BRANCH  31  32
HETATM   32  C2  UNL     1       4.504  13.682  25.014  1.00  0.00    -0.034 C 
HETATM   33  C1  UNL     1       4.273  14.855  25.575  1.00  0.00     0.007 C 
ENDBRANCH  31  32
ENDBRANCH   1  31
BRANCH   1  34
HETATM   34  O1  UNL     1       3.949  11.370  25.946  1.00  0.00    -0.389 OA
ATOM     35  H1  UNL     1       3.104  11.161  26.325  1.00  0.00     0.210 HD
ENDBRANCH   1  34
TORSDOF 6
ENDMDL
MODEL 3
REMARK VINA RESULT: -7.062253805      2.626      5.035
REMARK  6 active torsions:
REMARK  status: ('A' for Active; 'I' for Inactive)
REMARK    1  A    between atoms: C2_2  and  C3_3 
REMARK    2  A    between atoms: C3_3  and  C4_4 
REMARK    3  A    between atoms: C4_4  and  O1_5 
REMARK    4  A    between atoms: C6_8  and  O2_9 
REMARK    5  A    between atoms: C16_20  and  C17_21 
REMARK    6  A    between atoms: C17_21  and  O3_22 
ROOT
HETATM    1  C4  UNL     1       0.627   6.342  25.230  1.00  0.00     0.071 C 
HETATM    2  C5  UNL     1       1.322   5.319  24.413  1.00  0.00     0.070 C 
HETATM    3  C6  UNL     1       2.479   5.879  23.670  1.00  0.00     0.121 C 
HETATM    4  C7  UNL     1       2.519   7.400  23.735  1.00  0.00     0.038 C 
HETATM    5  C8  UNL     1       2.700   7.829  25.159  1.00  0.00     0.010 C 
HETATM    6  C9  UNL     1       3.024   9.294  25.299  1.00  0.00    -0.009 C 
HETATM    7  C10 UNL     1       3.128   9.856  26.670  1.00  0.00     0.018 C 
HETATM    8  C11 UNL     1       1.882  10.030  24.665  1.00  0.00     0.003 C 
HETATM    9  C12 UNL     1       0.652   9.628  25.457  1.00  0.00     0.007 C 
HETATM   10  C13 UNL     1       0.709   8.468  26.353  1.00  0.00     0.013 C 
HETATM   11  C14 UNL     1       1.549   7.321  25.948  1.00  0.00    -0.008 C 
HETATM   12  C15 UNL     1       2.108   6.499  27.119  1.00  0.00     0.019 C 
HETATM   13  C16 UNL     1       1.944  11.508  24.647  1.00  0.00     0.025 C 
HETATM   14  C21 UNL     1       3.198  12.227  24.492  1.00  0.00     0.008 C 
HETATM   15  C22 UNL     1       4.333  11.718  23.736  1.00  0.00     0.008 C 
HETATM   16  C23 UNL     1       4.356  10.260  23.376  1.00  0.00     0.025 C 
HETATM   17  C24 UNL     1       4.357   9.509  24.655  1.00  0.00     0.135 C 
HETATM   18  O4  UNL     1       5.107   8.356  24.458  1.00  0.00    -0.384 OA
HETATM   19  C25 UNL     1       6.168   8.732  23.650  1.00  0.00     0.177 C 
HETATM   20  C26 UNL     1       5.700   9.887  22.800  1.00  0.00    -0.020 C 
HETATM   21  C27 UNL     1       5.589   9.482  21.337  1.00  0.00     0.017 C 
HETATM   22  C28 UNL     1       6.741  10.964  22.909  1.00  0.00     0.017 C 
ENDROOT
BRANCH  13  23
HETATM   23  C17 UNL     1       0.946  11.984  23.600  1.00  0.00     0.062 C 
HETATM   24  C18 UNL     1       0.465  13.429  23.866  1.00  0.00     0.038 C 
HETATM   25  C19 UNL     1      -0.841  13.005  23.226  1.00  0.00     0.006 C 
HETATM   26  C20 UNL     1      -0.477  11.599  23.740  1.00  0.00     0.038 C 
BRANCH  23  27
HETATM   27  O3  UNL     1       1.401  11.874  22.287  1.00  0.00    -0.389 OA
ATOM     28  H3  UNL     1       1.180  11.051  21.865  1.00  0.00     0.210 HD
ENDBRANCH  23  27
ENDBRANCH  13  23
BRANCH   3  29
HETATM   29  O2  UNL     1       3.643   5.297  24.128  1.00  0.00    -0.395 OA
ATOM     30  H2  UNL     1       3.896   5.701  24.950  1.00  0.00     0.210 HD
ENDBRANCH   3  29
BRANCH   1  31
HETATM   31  C3  UNL     1      -0.192   5.546  26.266  1.00  0.00     0.065 C 
BRANCH  31  32
HETATM   32  C2  UNL     1       0.229   4.119  26.281  1.00  0.00    -0.034 C 
HETATM   33  C1  UNL     1       1.003   3.617  27.225  1.00  0.00     0.007 C 
ENDBRANCH  31  32
ENDBRANCH   1  31
BRANCH   1  34
HETATM   34  O1  UNL     1      -0.400   7.030  24.535  1.00  0.00    -0.389 OA
ATOM     35  H1  UNL     1       0.062   7.807  24.242  1.00  0.00     0.210 HD
ENDBRANCH   1  34
TORSDOF 6
ENDMDL
MODEL 4
REMARK VINA RESULT: -6.717061026      2.874      4.913
REMARK  6 active torsions:
REMARK  status: ('A' for Active; 'I' for Inactive)
REMARK    1  A    between atoms: C2_2  and  C3_3 
REMARK    2  A    between atoms: C3_3  and  C4_4 
REMARK    3  A    between atoms: C4_4  and  O1_5 
REMARK    4  A    between atoms: C6_8  and  O2_9 
REMARK    5  A    between atoms: C16_20  and  C17_21 
REMARK    6  A    between atoms: C17_21  and  O3_22 
ROOT
HETATM    1  C4  UNL     1       1.949   5.964  23.870  1.00  0.00     0.071 C 
HETATM    2  C5  UNL     1       2.874   5.280  22.935  1.00  0.00     0.070 C 
HETATM    3  C6  UNL     1       3.985   6.159  22.491  1.00  0.00     0.121 C 
HETATM    4  C7  UNL     1       3.767   7.608  22.907  1.00  0.00     0.038 C 
HETATM    5  C8  UNL     1       3.747   7.696  24.402  1.00  0.00     0.010 C 
HETATM    6  C9  UNL     1       3.811   9.113  24.912  1.00  0.00    -0.009 C 
HETATM    7  C10 UNL     1       3.698   9.330  26.377  1.00  0.00     0.018 C 
HETATM    8  C11 UNL     1       2.625   9.816  24.324  1.00  0.00     0.003 C 
HETATM    9  C12 UNL     1       1.412   9.066  24.842  1.00  0.00     0.007 C 
HETATM   10  C13 UNL     1       1.580   7.741  25.449  1.00  0.00     0.013 C 
HETATM   11  C14 UNL     1       2.629   6.855  24.903  1.00  0.00    -0.008 C 
HETATM   12  C15 UNL     1       3.210   5.858  25.916  1.00  0.00     0.019 C 
HETATM   13  C16 UNL     1       2.443  11.247  24.652  1.00  0.00     0.025 C 
HETATM   14  C21 UNL     1       3.570  12.149  24.824  1.00  0.00     0.008 C 
HETATM   15  C22 UNL     1       4.836  12.003  24.121  1.00  0.00     0.008 C 
HETATM   16  C23 UNL     1       5.132  10.696  23.443  1.00  0.00     0.025 C 
HETATM   17  C24 UNL     1       5.143   9.662  24.507  1.00  0.00     0.135 C 
HETATM   18  O4  UNL     1       6.087   8.708  24.149  1.00  0.00    -0.384 OA
HETATM   19  C25 UNL     1       7.139   9.414  23.588  1.00  0.00     0.177 C 
HETATM   20  C26 UNL     1       6.565  10.665  22.972  1.00  0.00    -0.020 C 
HETATM   21  C27 UNL     1       6.653  10.619  21.453  1.00  0.00     0.017 C 
HETATM   22  C28 UNL     1       7.400  11.817  23.454  1.00  0.00     0.017 C 
ENDROOT
BRANCH  13  23
HETATM   23  C17 UNL     1       1.478  11.822  23.624  1.00  0.00     0.062 C 
HETATM   24  C18 UNL     1       1.083  13.281  23.946  1.00  0.00     0.038 C 
HETATM   25  C19 UNL     1      -0.244  12.961  23.290  1.00  0.00     0.006 C 
HETATM   26  C20 UNL     1       0.035  11.517  23.748  1.00  0.00     0.038 C 
BRANCH  23  27
HETATM   27  O3  UNL     1       1.929  11.736  22.307  1.00  0.00    -0.389 OA
ATOM     28  H3  UNL     1       1.804  10.883  21.907  1.00  0.00     0.210 HD
ENDBRANCH  23  27
ENDBRANCH  13  23
BRANCH   3  29
HETATM   29  O2  UNL     1       5.183   5.650  22.948  1.00  0.00    -0.395 OA
ATOM     30  H2  UNL     1       5.877   5.887  22.344  1.00  0.00     0.210 HD
ENDBRANCH   3  29
BRANCH   1  31
HETATM   31  C3  UNL     1       1.184   4.833  24.585  1.00  0.00     0.065 C 
BRANCH  31  32
HETATM   32  C2  UNL     1       0.041   5.385  25.361  1.00  0.00    -0.034 C 
HETATM   33  C1  UNL     1      -0.307   4.915  26.544  1.00  0.00     0.007 C 
ENDBRANCH  31  32
ENDBRANCH   1  31
BRANCH   1  34
HETATM   34  O1  UNL     1       0.889   6.653  23.226  1.00  0.00    -0.389 OA
ATOM     35  H1  UNL     1       0.133   6.198  23.576  1.00  0.00     0.210 HD
ENDBRANCH   1  34
TORSDOF 6
ENDMDL
MODEL 5
REMARK VINA RESULT: -6.611678386      2.589      5.705
REMARK  6 active torsions:
REMARK  status: ('A' for Active; 'I' for Inactive)
REMARK    1  A    between atoms: C2_2  and  C3_3 
REMARK    2  A    between atoms: C3_3  and  C4_4 
REMARK    3  A    between atoms: C4_4  and  O1_5 
REMARK    4  A    between atoms: C6_8  and  O2_9 
REMARK    5  A    between atoms: C16_20  and  C17_21 
REMARK    6  A    between atoms: C17_21  and  O3_22 
ROOT
HETATM    1  C4  UNL     1       6.021   5.701  28.901  1.00  0.00     0.071 C 
HETATM    2  C5  UNL     1       5.312   6.259  30.077  1.00  0.00     0.070 C 
HETATM    3  C6  UNL     1       4.084   7.002  29.698  1.00  0.00     0.121 C 
HETATM    4  C7  UNL     1       3.987   7.217  28.194  1.00  0.00     0.038 C 
HETATM    5  C8  UNL     1       3.890   5.889  27.509  1.00  0.00     0.010 C 
HETATM    6  C9  UNL     1       3.518   5.999  26.052  1.00  0.00    -0.009 C 
HETATM    7  C10 UNL     1       3.488   4.753  25.246  1.00  0.00     0.018 C 
HETATM    8  C11 UNL     1       4.581   6.844  25.420  1.00  0.00     0.003 C 
HETATM    9  C12 UNL     1       5.880   6.088  25.632  1.00  0.00     0.007 C 
HETATM   10  C13 UNL     1       5.932   4.991  26.604  1.00  0.00     0.013 C 
HETATM   11  C14 UNL     1       5.113   5.110  27.829  1.00  0.00    -0.008 C 
HETATM   12  C15 UNL     1       4.671   3.767  28.430  1.00  0.00     0.019 C 
HETATM   13  C16 UNL     1       4.459   7.132  23.973  1.00  0.00     0.025 C 
HETATM   14  C21 UNL     1       3.169   7.322  23.330  1.00  0.00     0.008 C 
HETATM   15  C22 UNL     1       2.005   7.881  24.002  1.00  0.00     0.008 C 
HETATM   16  C23 UNL     1       2.016   7.961  25.502  1.00  0.00     0.025 C 
HETATM   17  C24 UNL     1       2.135   6.568  25.999  1.00  0.00     0.135 C 
HETATM   18  O4  UNL     1       1.420   6.489  27.187  1.00  0.00    -0.384 OA
HETATM   19  C25 UNL     1       0.291   7.270  26.998  1.00  0.00     0.177 C 
HETATM   20  C26 UNL     1       0.650   8.352  26.013  1.00  0.00    -0.020 C 
HETATM   21  C27 UNL     1       0.675   9.719  26.683  1.00  0.00     0.017 C 
HETATM   22  C28 UNL     1      -0.422   8.366  24.962  1.00  0.00     0.017 C 
ENDROOT
BRANCH  13  23
HETATM   23  C17 UNL     1       5.361   8.323  23.677  1.00  0.00     0.062 C 
HETATM   24  C18 UNL     1       5.017   9.547  24.557  1.00  0.00     0.038 C 
HETATM   25  C19 UNL     1       5.484  10.391  23.389  1.00  0.00     0.006 C 
HETATM   26  C20 UNL     1       5.038   9.196  22.525  1.00  0.00     0.038 C 
BRANCH  23  27
HETATM   27  O3  UNL     1       6.723   8.045  23.770  1.00  0.00    -0.389 OA
ATOM     28  H3  UNL     1       6.932   7.117  23.771  1.00  0.00     0.210 HD
ENDBRANCH  23  27
ENDBRANCH  13  23
BRANCH   3  29
HETATM   29  O2  UNL     1       2.979   6.356  30.214  1.00  0.00    -0.395 OA
ATOM     30  H2  UNL     1       2.385   6.996  30.588  1.00  0.00     0.210 HD
ENDBRANCH   3  29
BRANCH   1  31
HETATM   31  C3  UNL     1       6.942   4.602  29.465  1.00  0.00     0.065 C 
BRANCH  31  32
HETATM   32  C2  UNL     1       8.107   5.205  30.167  1.00  0.00    -0.034 C 
HETATM   33  C1  UNL     1       9.255   4.571  30.312  1.00  0.00     0.007 C 
ENDBRANCH  31  32
ENDBRANCH   1  31
BRANCH   1  34
HETATM   34  O1  UNL     1       6.968   6.590  28.328  1.00  0.00    -0.389 OA
ATOM     35  H1  UNL     1       7.776   6.106  28.454  1.00  0.00     0.210 HD
ENDBRANCH   1  34
TORSDOF 6
ENDMDL
