MODEL 1
REMARK VINA RESULT: -7.744740355      0.000      0.000
REMARK  3 active torsions:
REMARK  status: ('A' for Active; 'I' for Inactive)
REMARK    1  A    between atoms: C2_2  and  N1_3 
REMARK    2  A    between atoms: C5_7  and  C6_8 
REMARK    3  A    between atoms: C7_9  and  C8_10 
ROOT
HETATM    1  C6  UNL     1     -10.014  70.771   3.276  1.00  0.00     0.060 A 
HETATM    2  C7  UNL     1      -9.046  71.611   3.835  1.00  0.00     0.049 A 
HETATM    3  N2  UNL     1      -8.734  72.549   2.931  1.00  0.00    -0.300 N 
ATOM      4  H2  UNL     1      -8.053  73.295   3.074  1.00  0.00     0.186 HD
HETATM    5  N3  UNL     1      -9.436  72.365   1.831  1.00  0.00    -0.266 N 
ATOM      6  H3  UNL     1      -9.392  72.938   0.988  1.00  0.00     0.190 HD
HETATM    7  C12 UNL     1     -10.236  71.271   2.018  1.00  0.00     0.272 A 
HETATM    8  O2  UNL     1     -11.037  70.808   1.164  1.00  0.00    -0.266 OA
ENDROOT
BRANCH   1   9
HETATM    9  C5  UNL     1     -10.536  69.611   3.933  1.00  0.00     0.054 C 
HETATM   10  C4  UNL     1     -11.706  69.426   4.518  1.00  0.00     0.106 A 
HETATM   11  C3  UNL     1     -12.135  68.163   5.160  1.00  0.00     0.276 A 
HETATM   12  N4  UNL     1     -12.783  70.326   4.736  1.00  0.00    -0.323 N 
HETATM   13  N1  UNL     1     -13.420  68.347   5.723  1.00  0.00    -0.289 N 
HETATM   14  O1  UNL     1     -11.450  67.113   5.188  1.00  0.00    -0.265 OA
HETATM   15  C14 UNL     1     -13.841  69.671   5.473  1.00  0.00     0.183 A 
HETATM   16  S1  UNL     1     -15.249  70.398   5.908  1.00  0.00    -0.040 SA
HETATM   17  C13 UNL     1     -12.857  71.731   4.333  1.00  0.00     0.159 C 
BRANCH  13  18
HETATM   18  C2  UNL     1     -14.148  67.330   6.432  1.00  0.00     0.130 C 
HETATM   19  C1  UNL     1     -14.695  66.256   5.550  1.00  0.00     0.027 C 
ENDBRANCH  13  18
ENDBRANCH   1   9
BRANCH   2  20
HETATM   20  C8  UNL     1      -8.483  71.452   5.196  1.00  0.00    -0.006 C 
HETATM   21  C9  UNL     1      -7.055  72.019   5.200  1.00  0.00     0.021 C 
HETATM   22  C10 UNL     1      -8.335  69.979   5.549  1.00  0.00     0.021 C 
HETATM   23  C11 UNL     1      -9.262  72.202   6.239  1.00  0.00     0.021 C 
ENDBRANCH   2  20
TORSDOF 3
ENDMDL
MODEL 2
REMARK VINA RESULT: -6.997821647      2.386      2.859
REMARK  3 active torsions:
REMARK  status: ('A' for Active; 'I' for Inactive)
REMARK    1  A    between atoms: C2_2  and  N1_3 
REMARK    2  A    between atoms: C5_7  and  C6_8 
REMARK    3  A    between atoms: C7_9  and  C8_10 
ROOT
HETATM    1  C6  UNL     1     -10.032  69.935   4.978  1.00  0.00     0.060 A 
HETATM    2  C7  UNL     1      -8.916  70.740   5.225  1.00  0.00     0.049 A 
HETATM    3  N2  UNL     1      -7.891  70.266   4.505  1.00  0.00    -0.300 N 
ATOM      4  H2  UNL     1      -6.952  70.663   4.493  1.00  0.00     0.186 HD
HETATM    5  N3  UNL     1      -8.276  69.211   3.815  1.00  0.00    -0.266 N 
ATOM      6  H3  UNL     1      -7.691  68.660   3.186  1.00  0.00     0.190 HD
HETATM    7  C12 UNL     1      -9.597  68.985   4.090  1.00  0.00     0.272 A 
HETATM    8  O2  UNL     1     -10.285  68.050   3.603  1.00  0.00    -0.266 OA
ENDROOT
BRANCH   1   9
HETATM    9  C5  UNL     1     -11.295  70.103   5.631  1.00  0.00     0.054 C 
HETATM   10  C4  UNL     1     -12.476  70.413   5.123  1.00  0.00     0.106 A 
HETATM   11  C3  UNL     1     -13.721  70.549   5.911  1.00  0.00     0.276 A 
HETATM   12  N4  UNL     1     -12.853  70.733   3.792  1.00  0.00    -0.323 N 
HETATM   13  N1  UNL     1     -14.772  70.935   5.046  1.00  0.00    -0.289 N 
HETATM   14  O1  UNL     1     -13.804  70.350   7.147  1.00  0.00    -0.265 OA
HETATM   15  C14 UNL     1     -14.262  71.054   3.735  1.00  0.00     0.183 A 
HETATM   16  S1  UNL     1     -15.058  71.472   2.360  1.00  0.00    -0.040 SA
HETATM   17  C13 UNL     1     -11.984  70.788   2.615  1.00  0.00     0.159 C 
BRANCH  13  18
HETATM   18  C2  UNL     1     -16.127  71.166   5.469  1.00  0.00     0.130 C 
HETATM   19  C1  UNL     1     -16.999  69.957   5.379  1.00  0.00     0.027 C 
ENDBRANCH  13  18
ENDBRANCH   1   9
BRANCH   2  20
HETATM   20  C8  UNL     1      -8.909  71.907   6.139  1.00  0.00    -0.006 C 
HETATM   21  C9  UNL     1      -7.470  72.432   6.243  1.00  0.00     0.021 C 
HETATM   22  C10 UNL     1      -9.290  71.486   7.552  1.00  0.00     0.021 C 
HETATM   23  C11 UNL     1      -9.762  73.039   5.643  1.00  0.00     0.021 C 
ENDBRANCH   2  20
TORSDOF 3
ENDMDL
MODEL 3
REMARK VINA RESULT: -6.940423105      1.570      3.038
REMARK  3 active torsions:
REMARK  status: ('A' for Active; 'I' for Inactive)
REMARK    1  A    between atoms: C2_2  and  N1_3 
REMARK    2  A    between atoms: C5_7  and  C6_8 
REMARK    3  A    between atoms: C7_9  and  C8_10 
ROOT
HETATM    1  C6  UNL     1      -9.727  71.015   2.924  1.00  0.00     0.060 A 
HETATM    2  C7  UNL     1     -10.047  71.408   1.621  1.00  0.00     0.049 A 
HETATM    3  N2  UNL     1      -9.543  72.632   1.417  1.00  0.00    -0.300 N 
ATOM      4  H2  UNL     1      -9.627  73.163   0.550  1.00  0.00     0.186 HD
HETATM    5  N3  UNL     1      -8.924  73.050   2.503  1.00  0.00    -0.266 N 
ATOM      6  H3  UNL     1      -8.453  73.948   2.617  1.00  0.00     0.190 HD
HETATM    7  C12 UNL     1      -9.023  72.068   3.450  1.00  0.00     0.272 A 
HETATM    8  O2  UNL     1      -8.544  72.136   4.613  1.00  0.00    -0.266 OA
ENDROOT
BRANCH   1   9
HETATM    9  C5  UNL     1     -10.162  69.785   3.514  1.00  0.00     0.054 C 
HETATM   10  C4  UNL     1     -11.246  69.525   4.224  1.00  0.00     0.106 A 
HETATM   11  C3  UNL     1     -11.590  68.195   4.776  1.00  0.00     0.276 A 
HETATM   12  N4  UNL     1     -12.282  70.384   4.677  1.00  0.00    -0.323 N 
HETATM   13  N1  UNL     1     -12.790  68.303   5.518  1.00  0.00    -0.289 N 
HETATM   14  O1  UNL     1     -10.910  67.156   4.599  1.00  0.00    -0.265 OA
HETATM   15  C14 UNL     1     -13.236  69.641   5.470  1.00  0.00     0.183 A 
HETATM   16  S1  UNL     1     -14.573  70.301   6.162  1.00  0.00    -0.040 SA
HETATM   17  C13 UNL     1     -12.403  71.824   4.442  1.00  0.00     0.159 C 
BRANCH  13  18
HETATM   18  C2  UNL     1     -13.421  67.207   6.202  1.00  0.00     0.130 C 
HETATM   19  C1  UNL     1     -14.575  66.619   5.459  1.00  0.00     0.027 C 
ENDBRANCH  13  18
ENDBRANCH   1   9
BRANCH   2  20
HETATM   20  C8  UNL     1     -10.818  70.582   0.662  1.00  0.00    -0.006 C 
HETATM   21  C9  UNL     1     -10.586  71.137  -0.752  1.00  0.00     0.021 C 
HETATM   22  C10 UNL     1     -12.313  70.723   0.911  1.00  0.00     0.021 C 
HETATM   23  C11 UNL     1     -10.385  69.144   0.652  1.00  0.00     0.021 C 
ENDBRANCH   2  20
TORSDOF 3
ENDMDL
MODEL 4
REMARK VINA RESULT: -6.821827625      2.170      2.860
REMARK  3 active torsions:
REMARK  status: ('A' for Active; 'I' for Inactive)
REMARK    1  A    between atoms: C2_2  and  N1_3 
REMARK    2  A    between atoms: C5_7  and  C6_8 
REMARK    3  A    between atoms: C7_9  and  C8_10 
ROOT
HETATM    1  C6  UNL     1     -10.108  70.310   4.203  1.00  0.00     0.060 A 
HETATM    2  C7  UNL     1      -9.065  70.740   5.030  1.00  0.00     0.049 A 
HETATM    3  N2  UNL     1      -7.957  70.069   4.689  1.00  0.00    -0.300 N 
ATOM      4  H2  UNL     1      -7.044  70.184   5.129  1.00  0.00     0.186 HD
HETATM    5  N3  UNL     1      -8.220  69.238   3.700  1.00  0.00    -0.266 N 
ATOM      6  H3  UNL     1      -7.554  68.609   3.251  1.00  0.00     0.190 HD
HETATM    7  C12 UNL     1      -9.545  69.367   3.381  1.00  0.00     0.272 A 
HETATM    8  O2  UNL     1     -10.137  68.717   2.479  1.00  0.00    -0.266 OA
ENDROOT
BRANCH   1   9
HETATM    9  C5  UNL     1     -11.460  70.763   4.327  1.00  0.00     0.054 C 
HETATM   10  C4  UNL     1     -12.533  70.117   4.748  1.00  0.00     0.106 A 
HETATM   11  C3  UNL     1     -13.888  70.706   4.839  1.00  0.00     0.276 A 
HETATM   12  N4  UNL     1     -12.700  68.765   5.147  1.00  0.00    -0.323 N 
HETATM   13  N1  UNL     1     -14.793  69.712   5.280  1.00  0.00    -0.289 N 
HETATM   14  O1  UNL     1     -14.163  71.899   4.563  1.00  0.00    -0.265 OA
HETATM   15  C14 UNL     1     -14.084  68.508   5.479  1.00  0.00     0.183 A 
HETATM   16  S1  UNL     1     -14.657  67.053   5.985  1.00  0.00    -0.040 SA
HETATM   17  C13 UNL     1     -11.671  67.725   5.201  1.00  0.00     0.159 C 
BRANCH  13  18
HETATM   18  C2  UNL     1     -16.201  69.928   5.479  1.00  0.00     0.130 C 
HETATM   19  C1  UNL     1     -16.521  70.719   6.704  1.00  0.00     0.027 C 
ENDBRANCH  13  18
ENDBRANCH   1   9
BRANCH   2  20
HETATM   20  C8  UNL     1      -9.205  71.761   6.094  1.00  0.00    -0.006 C 
HETATM   21  C9  UNL     1      -7.819  72.024   6.700  1.00  0.00     0.021 C 
HETATM   22  C10 UNL     1     -10.054  71.231   7.241  1.00  0.00     0.021 C 
HETATM   23  C11 UNL     1      -9.721  73.073   5.576  1.00  0.00     0.021 C 
ENDBRANCH   2  20
TORSDOF 3
ENDMDL
MODEL 5
REMARK VINA RESULT: -6.815932508      3.227      5.579
REMARK  3 active torsions:
REMARK  status: ('A' for Active; 'I' for Inactive)
REMARK    1  A    between atoms: C2_2  and  N1_3 
REMARK    2  A    between atoms: C5_7  and  C6_8 
REMARK    3  A    between atoms: C7_9  and  C8_10 
ROOT
HETATM    1  C6  UNL     1     -10.421  71.711   4.912  1.00  0.00     0.060 A 
HETATM    2  C7  UNL     1      -9.621  71.190   5.934  1.00  0.00     0.049 A 
HETATM    3  N2  UNL     1     -10.424  70.768   6.920  1.00  0.00    -0.300 N 
ATOM      4  H2  UNL     1     -10.108  70.342   7.791  1.00  0.00     0.186 HD
HETATM    5  N3  UNL     1     -11.684  70.984   6.597  1.00  0.00    -0.266 N 
ATOM      6  H3  UNL     1     -12.497  70.757   7.169  1.00  0.00     0.190 HD
HETATM    7  C12 UNL     1     -11.709  71.567   5.360  1.00  0.00     0.272 A 
HETATM    8  O2  UNL     1     -12.753  71.913   4.746  1.00  0.00    -0.266 OA
ENDROOT
BRANCH   1   9
HETATM    9  C5  UNL     1      -9.899  72.318   3.725  1.00  0.00     0.054 C 
HETATM   10  C4  UNL     1      -9.971  71.916   2.468  1.00  0.00     0.106 A 
HETATM   11  C3  UNL     1      -9.393  72.646   1.317  1.00  0.00     0.276 A 
HETATM   12  N4  UNL     1     -10.528  70.738   1.905  1.00  0.00    -0.323 N 
HETATM   13  N1  UNL     1      -9.619  71.898   0.138  1.00  0.00    -0.289 N 
HETATM   14  O1  UNL     1      -8.801  73.749   1.402  1.00  0.00    -0.265 OA
HETATM   15  C14 UNL     1     -10.318  70.719   0.475  1.00  0.00     0.183 A 
HETATM   16  S1  UNL     1     -10.828  69.512  -0.517  1.00  0.00    -0.040 SA
HETATM   17  C13 UNL     1     -11.194  69.646   2.618  1.00  0.00     0.159 C 
BRANCH  13  18
HETATM   18  C2  UNL     1      -9.189  72.302  -1.173  1.00  0.00     0.130 C 
HETATM   19  C1  UNL     1     -10.235  73.031  -1.952  1.00  0.00     0.027 C 
ENDBRANCH  13  18
ENDBRANCH   1   9
BRANCH   2  20
HETATM   20  C8  UNL     1      -8.140  71.139   5.898  1.00  0.00    -0.006 C 
HETATM   21  C9  UNL     1      -7.650  70.397   7.150  1.00  0.00     0.021 C 
HETATM   22  C10 UNL     1      -7.551  72.539   5.999  1.00  0.00     0.021 C 
HETATM   23  C11 UNL     1      -7.614  70.395   4.704  1.00  0.00     0.021 C 
ENDBRANCH   2  20
TORSDOF 3
ENDMDL
