MODEL 1
REMARK VINA RESULT: -5.324957159      0.000      0.000
REMARK  9 active torsions:
REMARK  status: ('A' for Active; 'I' for Inactive)
REMARK    1  A    between atoms: C3_5  and  O2_6 
REMARK    2  A    between atoms: C3_5  and  C4_8 
REMARK    3  A    between atoms: C4_8  and  O3_9 
REMARK    4  A    between atoms: C4_8  and  N2_11 
REMARK    5  A    between atoms: N2_11  and  C5_13 
REMARK    6  A    between atoms: C8_20  and  N5_21 
REMARK    7  A    between atoms: N5_21  and  C9_24 
REMARK    8  A    between atoms: C9_24  and  O4_25 
REMARK    9  A    between atoms: C9_24  and  N6_27 
ROOT
HETATM    1  C1  UNL     1     -22.241  15.436  25.281  1.00  0.00     0.162 C 
HETATM    2  N1  UNL     1     -21.886  15.240  23.887  1.00  0.00    -0.294 N 
HETATM    3  C2  UNL     1     -22.258  14.045  23.222  1.00  0.00     0.269 C 
HETATM    4  O1  UNL     1     -23.224  13.367  23.630  1.00  0.00    -0.269 OA
HETATM    5  C3  UNL     1     -21.433  13.666  22.031  1.00  0.00     0.229 C 
HETATM    6  C8  UNL     1     -21.185  14.866  21.152  1.00  0.00     0.340 C 
HETATM    7  N7  UNL     1     -20.877  16.008  21.935  1.00  0.00    -0.333 N 
ATOM      8  H7  UNL     1     -20.360  16.749  21.462  1.00  0.00     0.164 HD
HETATM    9  C12 UNL     1     -21.169  16.221  23.156  1.00  0.00     0.194 C 
HETATM   10  N8  UNL     1     -20.802  17.419  23.841  1.00  0.00    -0.063 NA
ENDROOT
BRANCH   5  11
HETATM   11  O2  UNL     1     -20.204  13.243  22.541  1.00  0.00    -0.373 OA
ATOM     12  H2  UNL     1     -20.408  12.547  23.155  1.00  0.00     0.211 HD
ENDBRANCH   5  11
BRANCH   5  13
HETATM   13  C4  UNL     1     -22.066  12.510  21.330  1.00  0.00     0.268 C 
BRANCH  13  14
HETATM   14  O3  UNL     1     -21.924  11.396  22.187  1.00  0.00    -0.373 OA
ATOM     15  H3  UNL     1     -22.618  10.789  21.958  1.00  0.00     0.212 HD
ENDBRANCH  13  14
BRANCH  13  16
HETATM   16  N2  UNL     1     -21.353  12.153  20.109  1.00  0.00    -0.333 N 
ATOM     17  H2  UNL     1     -20.452  12.590  19.913  1.00  0.00     0.165 HD
BRANCH  16  18
HETATM   18  C5  UNL     1     -21.883  11.211  19.184  1.00  0.00     0.173 C 
HETATM   19  N3  UNL     1     -21.496  11.154  17.952  1.00  0.00    -0.361 N 
HETATM   20  C6  UNL     1     -22.204  10.101  17.244  1.00  0.00     0.142 C 
ATOM     21  H3  UNL     1     -20.793  11.764  17.535  1.00  0.00     0.162 HD
HETATM   22  C7  UNL     1     -23.327   9.696  18.177  1.00  0.00     0.142 C 
HETATM   23  N4  UNL     1     -22.860  10.246  19.458  1.00  0.00    -0.361 N 
ATOM     24  H4  UNL     1     -23.189   9.972  20.383  1.00  0.00     0.162 HD
ENDBRANCH  16  18
ENDBRANCH  13  16
ENDBRANCH   5  13
BRANCH   6  25
HETATM   25  N5  UNL     1     -22.335  15.056  20.287  1.00  0.00     0.004 N 
ATOM     26  H52 UNL     1     -22.503  14.251  19.685  1.00  0.00     0.285 HD
ATOM     27  H51 UNL     1     -23.215  15.037  20.803  1.00  0.00     0.285 HD
BRANCH  25  28
HETATM   28  C9  UNL     1     -22.162  16.302  19.522  1.00  0.00     0.560 C 
BRANCH  28  29
HETATM   29  O4  UNL     1     -20.817  16.383  19.098  1.00  0.00    -0.347 OA
ATOM     30  H4  UNL     1     -20.671  15.723  18.430  1.00  0.00     0.214 HD
ENDBRANCH  28  29
BRANCH  28  31
HETATM   31  N6  UNL     1     -22.949  16.132  18.314  1.00  0.00     0.136 N 
HETATM   32  C10 UNL     1     -22.336  16.691  17.150  1.00  0.00     0.315 C 
HETATM   33  C11 UNL     1     -23.469  14.813  18.149  1.00  0.00     0.315 C 
ENDBRANCH  28  31
ENDBRANCH  25  28
ENDBRANCH   6  25
TORSDOF 9
ENDMDL
MODEL 2
REMARK VINA RESULT: -5.302338585      2.192      5.793
REMARK  9 active torsions:
REMARK  status: ('A' for Active; 'I' for Inactive)
REMARK    1  A    between atoms: C3_5  and  O2_6 
REMARK    2  A    between atoms: C3_5  and  C4_8 
REMARK    3  A    between atoms: C4_8  and  O3_9 
REMARK    4  A    between atoms: C4_8  and  N2_11 
REMARK    5  A    between atoms: N2_11  and  C5_13 
REMARK    6  A    between atoms: C8_20  and  N5_21 
REMARK    7  A    between atoms: N5_21  and  C9_24 
REMARK    8  A    between atoms: C9_24  and  O4_25 
REMARK    9  A    between atoms: C9_24  and  N6_27 
ROOT
HETATM    1  C1  UNL     1     -20.420  12.372  22.247  1.00  0.00     0.162 C 
HETATM    2  N1  UNL     1     -21.164  13.269  21.382  1.00  0.00    -0.294 N 
HETATM    3  C2  UNL     1     -21.456  14.588  21.812  1.00  0.00     0.269 C 
HETATM    4  O1  UNL     1     -20.751  15.142  22.680  1.00  0.00    -0.269 OA
HETATM    5  C3  UNL     1     -22.637  15.248  21.168  1.00  0.00     0.229 C 
HETATM    6  C8  UNL     1     -22.626  15.021  19.678  1.00  0.00     0.340 C 
HETATM    7  N7  UNL     1     -22.267  13.682  19.374  1.00  0.00    -0.333 N 
ATOM      8  H7  UNL     1     -22.566  13.334  18.464  1.00  0.00     0.164 HD
HETATM    9  C12 UNL     1     -21.616  12.864  20.100  1.00  0.00     0.194 C 
HETATM   10  N8  UNL     1     -21.314  11.532  19.683  1.00  0.00    -0.063 NA
ENDROOT
BRANCH   5  11
HETATM   11  O2  UNL     1     -23.761  14.607  21.694  1.00  0.00    -0.373 OA
ATOM     12  H2  UNL     1     -24.505  14.975  21.233  1.00  0.00     0.211 HD
ENDBRANCH   5  11
BRANCH   5  13
HETATM   13  C4  UNL     1     -22.691  16.683  21.573  1.00  0.00     0.268 C 
BRANCH  13  14
HETATM   14  O3  UNL     1     -21.359  17.156  21.553  1.00  0.00    -0.373 OA
ATOM     15  H3  UNL     1     -21.399  18.062  21.274  1.00  0.00     0.212 HD
ENDBRANCH  13  14
BRANCH  13  16
HETATM   16  N2  UNL     1     -23.139  16.847  22.951  1.00  0.00    -0.333 N 
ATOM     17  H2  UNL     1     -23.922  16.286  23.289  1.00  0.00     0.165 HD
BRANCH  16  18
HETATM   18  C5  UNL     1     -22.513  17.767  23.836  1.00  0.00     0.173 C 
HETATM   19  N3  UNL     1     -22.945  18.974  24.003  1.00  0.00    -0.361 N 
HETATM   20  C6  UNL     1     -22.114  19.685  24.960  1.00  0.00     0.142 C 
ATOM     21  H3  UNL     1     -23.755  19.372  23.528  1.00  0.00     0.162 HD
HETATM   22  C7  UNL     1     -20.898  18.801  25.146  1.00  0.00     0.142 C 
HETATM   23  N4  UNL     1     -21.383  17.516  24.624  1.00  0.00    -0.361 N 
ATOM     24  H4  UNL     1     -20.970  16.601  24.805  1.00  0.00     0.162 HD
ENDBRANCH  16  18
ENDBRANCH  13  16
ENDBRANCH   5  13
BRANCH   6  25
HETATM   25  N5  UNL     1     -21.751  16.003  19.064  1.00  0.00     0.004 N 
ATOM     26  H52 UNL     1     -21.581  16.803  19.671  1.00  0.00     0.285 HD
ATOM     27  H51 UNL     1     -20.789  15.672  18.989  1.00  0.00     0.285 HD
BRANCH  25  28
HETATM   28  C9  UNL     1     -22.309  16.398  17.760  1.00  0.00     0.560 C 
BRANCH  28  29
HETATM   29  O4  UNL     1     -22.673  15.229  17.056  1.00  0.00    -0.347 OA
ATOM     30  H4  UNL     1     -21.926  14.940  16.545  1.00  0.00     0.214 HD
ENDBRANCH  28  29
BRANCH  28  31
HETATM   31  N6  UNL     1     -23.552  17.085  18.058  1.00  0.00     0.136 N 
HETATM   32  C10 UNL     1     -23.375  18.461  18.402  1.00  0.00     0.315 C 
HETATM   33  C11 UNL     1     -24.592  16.827  17.115  1.00  0.00     0.315 C 
ENDBRANCH  28  31
ENDBRANCH  25  28
ENDBRANCH   6  25
TORSDOF 9
ENDMDL
MODEL 3
REMARK VINA RESULT: -5.242074364      2.506      4.857
REMARK  9 active torsions:
REMARK  status: ('A' for Active; 'I' for Inactive)
REMARK    1  A    between atoms: C3_5  and  O2_6 
REMARK    2  A    between atoms: C3_5  and  C4_8 
REMARK    3  A    between atoms: C4_8  and  O3_9 
REMARK    4  A    between atoms: C4_8  and  N2_11 
REMARK    5  A    between atoms: N2_11  and  C5_13 
REMARK    6  A    between atoms: C8_20  and  N5_21 
REMARK    7  A    between atoms: N5_21  and  C9_24 
REMARK    8  A    between atoms: C9_24  and  O4_25 
REMARK    9  A    between atoms: C9_24  and  N6_27 
ROOT
HETATM    1  C1  UNL     1     -23.826  19.128  18.559  1.00  0.00     0.162 C 
HETATM    2  N1  UNL     1     -23.430  17.751  18.788  1.00  0.00    -0.294 N 
HETATM    3  C2  UNL     1     -22.902  17.364  20.045  1.00  0.00     0.269 C 
HETATM    4  O1  UNL     1     -23.163  18.025  21.072  1.00  0.00    -0.269 OA
HETATM    5  C3  UNL     1     -22.034  16.143  20.052  1.00  0.00     0.229 C 
HETATM    6  C8  UNL     1     -22.655  15.046  19.226  1.00  0.00     0.340 C 
HETATM    7  N7  UNL     1     -23.195  15.566  18.021  1.00  0.00    -0.333 N 
ATOM      8  H7  UNL     1     -23.308  14.900  17.257  1.00  0.00     0.164 HD
HETATM    9  C12 UNL     1     -23.556  16.762  17.778  1.00  0.00     0.194 C 
HETATM   10  N8  UNL     1     -24.089  17.169  16.517  1.00  0.00    -0.063 NA
ENDROOT
BRANCH   5  11
HETATM   11  O2  UNL     1     -20.840  16.525  19.436  1.00  0.00    -0.373 OA
ATOM     12  H2  UNL     1     -20.957  16.337  18.512  1.00  0.00     0.211 HD
ENDBRANCH   5  11
BRANCH   5  13
HETATM   13  C4  UNL     1     -21.726  15.756  21.460  1.00  0.00     0.268 C 
BRANCH  13  14
HETATM   14  O3  UNL     1     -21.426  16.953  22.148  1.00  0.00    -0.373 OA
ATOM     15  H3  UNL     1     -20.563  16.837  22.526  1.00  0.00     0.212 HD
ENDBRANCH  13  14
BRANCH  13  16
HETATM   16  N2  UNL     1     -20.519  14.943  21.552  1.00  0.00    -0.333 N 
ATOM     17  H2  UNL     1     -19.630  15.395  21.768  1.00  0.00     0.165 HD
BRANCH  16  18
HETATM   18  C5  UNL     1     -20.550  13.536  21.348  1.00  0.00     0.173 C 
HETATM   19  N3  UNL     1     -21.075  12.721  22.203  1.00  0.00    -0.361 N 
HETATM   20  C6  UNL     1     -20.965  11.350  21.734  1.00  0.00     0.142 C 
ATOM     21  H3  UNL     1     -21.505  13.002  23.084  1.00  0.00     0.162 HD
HETATM   22  C7  UNL     1     -20.007  11.418  20.563  1.00  0.00     0.142 C 
HETATM   23  N4  UNL     1     -20.039  12.851  20.237  1.00  0.00    -0.361 N 
ATOM     24  H4  UNL     1     -19.742  13.273  19.358  1.00  0.00     0.162 HD
ENDBRANCH  16  18
ENDBRANCH  13  16
ENDBRANCH   5  13
BRANCH   6  25
HETATM   25  N5  UNL     1     -23.633  14.347  20.038  1.00  0.00     0.004 N 
ATOM     26  H52 UNL     1     -23.339  14.263  21.011  1.00  0.00     0.285 HD
ATOM     27  H51 UNL     1     -24.476  14.900  20.190  1.00  0.00     0.285 HD
BRANCH  25  28
HETATM   28  C9  UNL     1     -23.924  13.040  19.426  1.00  0.00     0.560 C 
BRANCH  28  29
HETATM   29  O4  UNL     1     -22.770  12.602  18.739  1.00  0.00    -0.347 OA
ATOM     30  H4  UNL     1     -22.029  12.651  19.333  1.00  0.00     0.214 HD
ENDBRANCH  28  29
BRANCH  28  31
HETATM   31  N6  UNL     1     -24.100  12.119  20.534  1.00  0.00     0.136 N 
HETATM   32  C10 UNL     1     -24.725  12.712  21.675  1.00  0.00     0.315 C 
HETATM   33  C11 UNL     1     -24.625  10.850  20.148  1.00  0.00     0.315 C 
ENDBRANCH  28  31
ENDBRANCH  25  28
ENDBRANCH   6  25
TORSDOF 9
ENDMDL
MODEL 4
REMARK VINA RESULT: -5.208901339      2.308      5.681
REMARK  9 active torsions:
REMARK  status: ('A' for Active; 'I' for Inactive)
REMARK    1  A    between atoms: C3_5  and  O2_6 
REMARK    2  A    between atoms: C3_5  and  C4_8 
REMARK    3  A    between atoms: C4_8  and  O3_9 
REMARK    4  A    between atoms: C4_8  and  N2_11 
REMARK    5  A    between atoms: N2_11  and  C5_13 
REMARK    6  A    between atoms: C8_20  and  N5_21 
REMARK    7  A    between atoms: N5_21  and  C9_24 
REMARK    8  A    between atoms: C9_24  and  O4_25 
REMARK    9  A    between atoms: C9_24  and  N6_27 
ROOT
HETATM    1  C1  UNL     1     -23.786  18.458  17.533  1.00  0.00     0.162 C 
HETATM    2  N1  UNL     1     -23.324  17.202  18.097  1.00  0.00    -0.294 N 
HETATM    3  C2  UNL     1     -22.971  17.128  19.468  1.00  0.00     0.269 C 
HETATM    4  O1  UNL     1     -23.439  17.945  20.288  1.00  0.00    -0.269 OA
HETATM    5  C3  UNL     1     -22.023  16.033  19.848  1.00  0.00     0.229 C 
HETATM    6  C8  UNL     1     -22.419  14.735  19.193  1.00  0.00     0.340 C 
HETATM    7  N7  UNL     1     -22.803  14.948  17.844  1.00  0.00    -0.333 N 
ATOM      8  H7  UNL     1     -22.744  14.138  17.228  1.00  0.00     0.164 HD
HETATM    9  C12 UNL     1     -23.214  16.028  17.309  1.00  0.00     0.194 C 
HETATM   10  N8  UNL     1     -23.574  16.120  15.930  1.00  0.00    -0.063 NA
ENDROOT
BRANCH   5  11
HETATM   11  O2  UNL     1     -20.780  16.414  19.336  1.00  0.00    -0.373 OA
ATOM     12  H2  UNL     1     -20.922  16.569  18.409  1.00  0.00     0.211 HD
ENDBRANCH   5  11
BRANCH   5  13
HETATM   13  C4  UNL     1     -21.908  15.964  21.335  1.00  0.00     0.268 C 
BRANCH  13  14
HETATM   14  O3  UNL     1     -21.302  17.172  21.747  1.00  0.00    -0.373 OA
ATOM     15  H3  UNL     1     -21.290  17.157  22.696  1.00  0.00     0.212 HD
ENDBRANCH  13  14
BRANCH  13  16
HETATM   16  N2  UNL     1     -21.000  14.907  21.765  1.00  0.00    -0.333 N 
ATOM     17  H2  UNL     1     -20.299  14.557  21.111  1.00  0.00     0.165 HD
BRANCH  16  18
HETATM   18  C5  UNL     1     -21.066  14.354  23.073  1.00  0.00     0.173 C 
HETATM   19  N3  UNL     1     -21.596  14.984  24.069  1.00  0.00    -0.361 N 
HETATM   20  C6  UNL     1     -21.525  14.181  25.278  1.00  0.00     0.142 C 
ATOM     21  H3  UNL     1     -22.008  15.916  24.014  1.00  0.00     0.162 HD
HETATM   22  C7  UNL     1     -20.583  13.046  24.931  1.00  0.00     0.142 C 
HETATM   23  N4  UNL     1     -20.588  13.096  23.462  1.00  0.00    -0.361 N 
ATOM     24  H4  UNL     1     -20.293  12.347  22.836  1.00  0.00     0.162 HD
ENDBRANCH  16  18
ENDBRANCH  13  16
ENDBRANCH   5  13
BRANCH   6  25
HETATM   25  N5  UNL     1     -23.454  14.107  19.992  1.00  0.00     0.004 N 
ATOM     26  H52 UNL     1     -23.529  14.518  20.922  1.00  0.00     0.285 HD
ATOM     27  H51 UNL     1     -24.392  14.334  19.659  1.00  0.00     0.285 HD
BRANCH  25  28
HETATM   28  C9  UNL     1     -23.213  12.655  20.040  1.00  0.00     0.560 C 
BRANCH  28  29
HETATM   29  O4  UNL     1     -21.858  12.417  19.723  1.00  0.00    -0.347 OA
ATOM     30  H4  UNL     1     -21.768  11.512  19.447  1.00  0.00     0.214 HD
ENDBRANCH  28  29
BRANCH  28  31
HETATM   31  N6  UNL     1     -23.367  12.279  21.433  1.00  0.00     0.136 N 
HETATM   32  C10 UNL     1     -24.399  13.001  22.109  1.00  0.00     0.315 C 
HETATM   33  C11 UNL     1     -23.377  10.868  21.649  1.00  0.00     0.315 C 
ENDBRANCH  28  31
ENDBRANCH  25  28
ENDBRANCH   6  25
TORSDOF 9
ENDMDL
MODEL 5
REMARK VINA RESULT: -5.197364789      3.063      7.642
REMARK  9 active torsions:
REMARK  status: ('A' for Active; 'I' for Inactive)
REMARK    1  A    between atoms: C3_5  and  O2_6 
REMARK    2  A    between atoms: C3_5  and  C4_8 
REMARK    3  A    between atoms: C4_8  and  O3_9 
REMARK    4  A    between atoms: C4_8  and  N2_11 
REMARK    5  A    between atoms: N2_11  and  C5_13 
REMARK    6  A    between atoms: C8_20  and  N5_21 
REMARK    7  A    between atoms: N5_21  and  C9_24 
REMARK    8  A    between atoms: C9_24  and  O4_25 
REMARK    9  A    between atoms: C9_24  and  N6_27 
ROOT
HETATM    1  C1  UNL     1     -22.146  16.430  19.615  1.00  0.00     0.162 C 
HETATM    2  N1  UNL     1     -21.875  15.991  20.972  1.00  0.00    -0.294 N 
HETATM    3  C2  UNL     1     -22.390  16.725  22.070  1.00  0.00     0.269 C 
HETATM    4  O1  UNL     1     -23.396  17.451  21.931  1.00  0.00    -0.269 OA
HETATM    5  C3  UNL     1     -21.660  16.572  23.369  1.00  0.00     0.229 C 
HETATM    6  C8  UNL     1     -21.338  15.123  23.631  1.00  0.00     0.340 C 
HETATM    7  N7  UNL     1     -20.887  14.486  22.446  1.00  0.00    -0.333 N 
ATOM      8  H7  UNL     1     -20.322  13.646  22.576  1.00  0.00     0.164 HD
HETATM    9  C12 UNL     1     -21.101  14.834  21.241  1.00  0.00     0.194 C 
HETATM   10  N8  UNL     1     -20.590  14.107  20.123  1.00  0.00    -0.063 NA
ENDROOT
BRANCH   5  11
HETATM   11  O2  UNL     1     -20.455  17.260  23.209  1.00  0.00    -0.373 OA
ATOM     12  H2  UNL     1     -20.361  17.797  23.987  1.00  0.00     0.211 HD
ENDBRANCH   5  11
BRANCH   5  13
HETATM   13  C4  UNL     1     -22.432  17.239  24.459  1.00  0.00     0.268 C 
BRANCH  13  14
HETATM   14  O3  UNL     1     -23.765  16.787  24.339  1.00  0.00    -0.373 OA
ATOM     15  H3  UNL     1     -24.320  17.544  24.487  1.00  0.00     0.212 HD
ENDBRANCH  13  14
BRANCH  13  16
HETATM   16  N2  UNL     1     -22.494  18.685  24.280  1.00  0.00    -0.333 N 
ATOM     17  H2  UNL     1     -23.159  19.075  23.611  1.00  0.00     0.165 HD
BRANCH  16  18
HETATM   18  C5  UNL     1     -21.651  19.565  25.013  1.00  0.00     0.173 C 
HETATM   19  N3  UNL     1     -20.435  19.262  25.326  1.00  0.00    -0.361 N 
HETATM   20  C6  UNL     1     -19.815  20.344  26.071  1.00  0.00     0.142 C 
ATOM     21  H3  UNL     1     -19.974  18.385  25.083  1.00  0.00     0.162 HD
HETATM   22  C7  UNL     1     -20.960  21.268  26.433  1.00  0.00     0.142 C 
HETATM   23  N4  UNL     1     -21.998  20.837  25.486  1.00  0.00    -0.361 N 
ATOM     24  H4  UNL     1     -22.826  21.370  25.221  1.00  0.00     0.162 HD
ENDBRANCH  16  18
ENDBRANCH  13  16
ENDBRANCH   5  13
BRANCH   6  25
HETATM   25  N5  UNL     1     -22.501  14.486  24.217  1.00  0.00     0.004 N 
ATOM     26  H52 UNL     1     -23.102  15.150  24.704  1.00  0.00     0.285 HD
ATOM     27  H51 UNL     1     -23.171  14.177  23.512  1.00  0.00     0.285 HD
BRANCH  25  28
HETATM   28  C9  UNL     1     -22.061  13.385  25.091  1.00  0.00     0.560 C 
BRANCH  28  29
HETATM   29  O4  UNL     1     -20.662  13.241  24.955  1.00  0.00    -0.347 OA
ATOM     30  H4  UNL     1     -20.273  14.106  24.910  1.00  0.00     0.214 HD
ENDBRANCH  28  29
BRANCH  28  31
HETATM   31  N6  UNL     1     -22.282  13.849  26.448  1.00  0.00     0.136 N 
HETATM   32  C10 UNL     1     -23.651  14.151  26.731  1.00  0.00     0.315 C 
HETATM   33  C11 UNL     1     -21.619  13.065  27.438  1.00  0.00     0.315 C 
ENDBRANCH  28  31
ENDBRANCH  25  28
ENDBRANCH   6  25
TORSDOF 9
ENDMDL
