MODEL 1
REMARK VINA RESULT: -5.571989910      0.000      0.000
REMARK  2 active torsions:
REMARK  status: ('A' for Active; 'I' for Inactive)
REMARK    1  A    between atoms: C4_5  and  N2_6 
REMARK    2  A    between atoms: N2_6  and  N3_8 
REMARK       I    between atoms: N3_8  and  C5_10 
REMARK       I    between atoms: C5_10  and  N4_11 
REMARK       I    between atoms: C5_10  and  N5_15 
ROOT
HETATM    1  N3  UNL     1      92.747  42.453  50.741  1.00  0.00    -0.282 N 
ATOM      2  H3  UNL     1      93.294  41.876  51.380  1.00  0.00     0.184 HD
HETATM    3  C5  UNL     1      91.306  42.483  50.881  1.00  0.00     0.494 C 
HETATM    4  N4  UNL     1      90.955  43.883  51.146  1.00  0.00    -0.032 N 
ATOM      5  H41 UNL     1      89.939  43.903  51.244  1.00  0.00     0.279 HD
ATOM      6  H42 UNL     1      91.309  44.531  50.443  1.00  0.00     0.279 HD
ATOM      7  H43 UNL     1      91.450  44.283  51.944  1.00  0.00     0.279 HD
HETATM    8  N5  UNL     1      90.897  41.719  52.021  1.00  0.00    -0.032 N 
ATOM      9  H51 UNL     1      89.881  41.739  52.120  1.00  0.00     0.279 HD
ATOM     10  H52 UNL     1      91.366  42.027  52.872  1.00  0.00     0.279 HD
ATOM     11  H53 UNL     1      91.256  40.765  51.987  1.00  0.00     0.279 HD
ENDROOT
BRANCH   1  12
HETATM   12  N2  UNL     1      93.412  43.189  49.761  1.00  0.00    -0.286 N 
ATOM     13  H2  UNL     1      93.736  44.135  49.960  1.00  0.00     0.188 HD
BRANCH  12  14
HETATM   14  C4  UNL     1      93.613  42.666  48.609  1.00  0.00     0.135 A 
HETATM   15  C3  UNL     1      92.900  42.963  47.475  1.00  0.00     0.070 A 
HETATM   16  C2  UNL     1      93.430  42.191  46.472  1.00  0.00     0.113 A 
HETATM   17  N1  UNL     1      94.430  41.449  46.969  1.00  0.00    -0.306 N 
HETATM   18  C1  UNL     1      95.243  40.497  46.200  1.00  0.00     0.177 C 
HETATM   19  N6  UNL     1      94.528  41.743  48.243  1.00  0.00    -0.283 N 
ATOM     20  H6  UNL     1      95.209  41.326  48.877  1.00  0.00     0.189 HD
ENDBRANCH  12  14
ENDBRANCH   1  12
TORSDOF 2
ENDMDL
MODEL 2
REMARK VINA RESULT: -5.457990261      1.021      1.333
REMARK  2 active torsions:
REMARK  status: ('A' for Active; 'I' for Inactive)
REMARK    1  A    between atoms: C4_5  and  N2_6 
REMARK    2  A    between atoms: N2_6  and  N3_8 
REMARK       I    between atoms: N3_8  and  C5_10 
REMARK       I    between atoms: C5_10  and  N4_11 
REMARK       I    between atoms: C5_10  and  N5_15 
ROOT
HETATM    1  N3  UNL     1      92.752  42.414  50.353  1.00  0.00    -0.282 N 
ATOM      2  H3  UNL     1      93.326  41.758  50.881  1.00  0.00     0.184 HD
HETATM    3  C5  UNL     1      91.358  42.574  50.712  1.00  0.00     0.494 C 
HETATM    4  N4  UNL     1      91.194  43.987  51.074  1.00  0.00    -0.032 N 
ATOM      5  H41 UNL     1      90.212  44.099  51.327  1.00  0.00     0.279 HD
ATOM      6  H42 UNL     1      91.503  44.632  50.346  1.00  0.00     0.279 HD
ATOM      7  H43 UNL     1      91.840  44.299  51.799  1.00  0.00     0.279 HD
HETATM    8  N5  UNL     1      91.048  41.799  51.876  1.00  0.00    -0.032 N 
ATOM      9  H51 UNL     1      90.066  41.911  52.130  1.00  0.00     0.279 HD
ATOM     10  H52 UNL     1      91.668  42.020  52.655  1.00  0.00     0.279 HD
ATOM     11  H53 UNL     1      91.300  40.818  51.756  1.00  0.00     0.279 HD
ENDROOT
BRANCH   1  12
HETATM   12  N2  UNL     1      93.334  43.130  49.307  1.00  0.00    -0.286 N 
ATOM     13  H2  UNL     1      93.397  44.146  49.352  1.00  0.00     0.188 HD
BRANCH  12  14
HETATM   14  C4  UNL     1      93.790  42.498  48.290  1.00  0.00     0.135 A 
HETATM   15  C3  UNL     1      94.589  41.384  48.348  1.00  0.00     0.070 A 
HETATM   16  C2  UNL     1      94.848  41.025  47.049  1.00  0.00     0.113 A 
HETATM   17  N1  UNL     1      94.232  41.885  46.224  1.00  0.00    -0.306 N 
HETATM   18  C1  UNL     1      94.274  41.828  44.757  1.00  0.00     0.177 C 
HETATM   19  N6  UNL     1      93.606  42.756  46.977  1.00  0.00    -0.283 N 
ATOM     20  H6  UNL     1      93.049  43.531  46.617  1.00  0.00     0.189 HD
ENDBRANCH  12  14
ENDBRANCH   1  12
TORSDOF 2
ENDMDL
MODEL 3
REMARK VINA RESULT: -5.022293336      1.924      5.577
REMARK  2 active torsions:
REMARK  status: ('A' for Active; 'I' for Inactive)
REMARK    1  A    between atoms: C4_5  and  N2_6 
REMARK    2  A    between atoms: N2_6  and  N3_8 
REMARK       I    between atoms: N3_8  and  C5_10 
REMARK       I    between atoms: C5_10  and  N4_11 
REMARK       I    between atoms: C5_10  and  N5_15 
ROOT
HETATM    1  N3  UNL     1      95.140  40.461  45.890  1.00  0.00    -0.282 N 
ATOM      2  H3  UNL     1      94.256  40.585  45.397  1.00  0.00     0.184 HD
HETATM    3  C5  UNL     1      96.272  39.909  45.173  1.00  0.00     0.494 C 
HETATM    4  N4  UNL     1      97.323  40.931  45.230  1.00  0.00    -0.032 N 
ATOM      5  H41 UNL     1      98.120  40.542  44.725  1.00  0.00     0.279 HD
ATOM      6  H42 UNL     1      97.549  41.231  46.179  1.00  0.00     0.279 HD
ATOM      7  H43 UNL     1      97.025  41.842  44.881  1.00  0.00     0.279 HD
HETATM    8  N5  UNL     1      95.944  39.714  43.793  1.00  0.00    -0.032 N 
ATOM      9  H51 UNL     1      96.740  39.325  43.288  1.00  0.00     0.279 HD
ATOM     10  H52 UNL     1      95.602  40.571  43.360  1.00  0.00     0.279 HD
ATOM     11  H53 UNL     1      95.106  39.142  43.679  1.00  0.00     0.279 HD
ENDROOT
BRANCH   1  12
HETATM   12  N2  UNL     1      95.221  40.828  47.232  1.00  0.00    -0.286 N 
ATOM     13  H2  UNL     1      95.968  40.463  47.822  1.00  0.00     0.188 HD
BRANCH  12  14
HETATM   14  C4  UNL     1      94.348  41.630  47.719  1.00  0.00     0.135 A 
HETATM   15  C3  UNL     1      93.371  42.265  46.994  1.00  0.00     0.070 A 
HETATM   16  C2  UNL     1      92.656  43.022  47.887  1.00  0.00     0.113 A 
HETATM   17  N1  UNL     1      93.172  42.858  49.114  1.00  0.00    -0.306 N 
HETATM   18  C1  UNL     1      92.674  43.506  50.335  1.00  0.00     0.177 C 
HETATM   19  N6  UNL     1      94.178  42.027  48.998  1.00  0.00    -0.283 N 
ATOM     20  H6  UNL     1      94.760  41.718  49.777  1.00  0.00     0.189 HD
ENDBRANCH  12  14
ENDBRANCH   1  12
TORSDOF 2
ENDMDL
MODEL 4
REMARK VINA RESULT: -4.874227105      2.475      6.100
REMARK  2 active torsions:
REMARK  status: ('A' for Active; 'I' for Inactive)
REMARK    1  A    between atoms: C4_5  and  N2_6 
REMARK    2  A    between atoms: N2_6  and  N3_8 
REMARK       I    between atoms: N3_8  and  C5_10 
REMARK       I    between atoms: C5_10  and  N4_11 
REMARK       I    between atoms: C5_10  and  N5_15 
ROOT
HETATM    1  N3  UNL     1      96.946  40.673  45.496  1.00  0.00    -0.282 N 
ATOM      2  H3  UNL     1      97.815  40.380  45.942  1.00  0.00     0.184 HD
HETATM    3  C5  UNL     1      97.007  41.562  44.355  1.00  0.00     0.494 C 
HETATM    4  N4  UNL     1      96.377  40.838  43.245  1.00  0.00    -0.032 N 
ATOM      5  H41 UNL     1      96.421  41.465  42.441  1.00  0.00     0.279 HD
ATOM      6  H42 UNL     1      95.434  40.511  43.455  1.00  0.00     0.279 HD
ATOM      7  H43 UNL     1      96.791  39.922  43.069  1.00  0.00     0.279 HD
HETATM    8  N5  UNL     1      98.369  41.808  43.983  1.00  0.00    -0.032 N 
ATOM      9  H51 UNL     1      98.412  42.435  43.179  1.00  0.00     0.279 HD
ATOM     10  H52 UNL     1      98.878  40.941  43.816  1.00  0.00     0.279 HD
ATOM     11  H53 UNL     1      98.918  42.158  44.768  1.00  0.00     0.279 HD
ENDROOT
BRANCH   1  12
HETATM   12  N2  UNL     1      95.736  40.203  46.005  1.00  0.00    -0.286 N 
ATOM     13  H2  UNL     1      95.452  39.236  45.848  1.00  0.00     0.188 HD
BRANCH  12  14
HETATM   14  C4  UNL     1      94.984  40.996  46.673  1.00  0.00     0.135 A 
HETATM   15  C3  UNL     1      94.072  41.863  46.127  1.00  0.00     0.070 A 
HETATM   16  C2  UNL     1      93.484  42.520  47.178  1.00  0.00     0.113 A 
HETATM   17  N1  UNL     1      94.013  42.074  48.327  1.00  0.00    -0.306 N 
HETATM   18  C1  UNL     1      93.638  42.539  49.669  1.00  0.00     0.177 C 
HETATM   19  N6  UNL     1      94.904  41.167  48.010  1.00  0.00    -0.283 N 
ATOM     20  H6  UNL     1      95.467  40.655  48.689  1.00  0.00     0.189 HD
ENDBRANCH  12  14
ENDBRANCH   1  12
TORSDOF 2
ENDMDL
MODEL 5
REMARK VINA RESULT: -4.824146970      1.129      1.677
REMARK  2 active torsions:
REMARK  status: ('A' for Active; 'I' for Inactive)
REMARK    1  A    between atoms: C4_5  and  N2_6 
REMARK    2  A    between atoms: N2_6  and  N3_8 
REMARK       I    between atoms: N3_8  and  C5_10 
REMARK       I    between atoms: C5_10  and  N4_11 
REMARK       I    between atoms: C5_10  and  N5_15 
ROOT
HETATM    1  N3  UNL     1      93.130  43.071  49.378  1.00  0.00    -0.282 N 
ATOM      2  H3  UNL     1      92.818  43.693  48.632  1.00  0.00     0.184 HD
HETATM    3  C5  UNL     1      92.654  43.300  50.727  1.00  0.00     0.494 C 
HETATM    4  N4  UNL     1      91.944  42.076  51.116  1.00  0.00    -0.032 N 
ATOM      5  H41 UNL     1      91.609  42.238  52.067  1.00  0.00     0.279 HD
ATOM      6  H42 UNL     1      92.508  41.231  51.021  1.00  0.00     0.279 HD
ATOM      7  H43 UNL     1      91.207  41.807  50.464  1.00  0.00     0.279 HD
HETATM    8  N5  UNL     1      91.700  44.369  50.747  1.00  0.00    -0.032 N 
ATOM      9  H51 UNL     1      91.365  44.530  51.697  1.00  0.00     0.279 HD
ATOM     10  H52 UNL     1      90.932  44.204  50.097  1.00  0.00     0.279 HD
ATOM     11  H53 UNL     1      92.075  45.219  50.327  1.00  0.00     0.279 HD
ENDROOT
BRANCH   1  12
HETATM   12  N2  UNL     1      94.001  42.028  49.066  1.00  0.00    -0.286 N 
ATOM     13  H2  UNL     1      94.417  41.467  49.808  1.00  0.00     0.188 HD
BRANCH  12  14
HETATM   14  C4  UNL     1      94.273  41.782  47.839  1.00  0.00     0.135 A 
HETATM   15  C3  UNL     1      93.729  42.439  46.764  1.00  0.00     0.070 A 
HETATM   16  C2  UNL     1      94.284  41.875  45.643  1.00  0.00     0.113 A 
HETATM   17  N1  UNL     1      95.137  40.908  46.014  1.00  0.00    -0.306 N 
HETATM   18  C1  UNL     1      95.925  40.076  45.095  1.00  0.00     0.177 C 
HETATM   19  N6  UNL     1      95.121  40.866  47.324  1.00  0.00    -0.283 N 
ATOM     20  H6  UNL     1      95.678  40.220  47.884  1.00  0.00     0.189 HD
ENDBRANCH  12  14
ENDBRANCH   1  12
TORSDOF 2
ENDMDL
