MODEL 1
REMARK VINA RESULT: -6.691556232      0.000      0.000
REMARK  7 active torsions:
REMARK  status: ('A' for Active; 'I' for Inactive)
REMARK    1  A    between atoms: C2_2  and  C3_3 
REMARK    2  A    between atoms: C3_3  and  C5_5 
REMARK    3  A    between atoms: C5_5  and  N1_7 
REMARK    4  A    between atoms: N1_7  and  C7_10 
REMARK    5  A    between atoms: C7_10  and  C8_11 
REMARK    6  A    between atoms: C8_11  and  N2_12 
REMARK    7  A    between atoms: N2_12  and  C9_14 
ROOT
HETATM    1  C7  UNL     1      34.961  10.309 106.313  1.00  0.00     0.277 C 
ENDROOT
BRANCH   1   2
HETATM    2  N1  UNL     1      34.770  11.423 107.259  1.00  0.00    -0.067 N 
ATOM      3  H12 UNL     1      35.176  12.303 106.941  1.00  0.00     0.278 HD
ATOM      4  H11 UNL     1      35.323  11.333 108.111  1.00  0.00     0.278 HD
BRANCH   2   5
HETATM    5  C5  UNL     1      33.326  11.500 107.504  1.00  0.00     0.185 C 
HETATM    6  C6  UNL     1      32.573  10.448 106.828  1.00  0.00     0.040 C 
BRANCH   5   7
HETATM    7  C3  UNL     1      32.970  11.921 108.877  1.00  0.00     0.011 C 
HETATM    8  C4  UNL     1      33.441  10.939 109.942  1.00  0.00     0.012 C 
BRANCH   7   9
HETATM    9  C2  UNL     1      31.585  12.358 109.107  1.00  0.00     0.002 C 
HETATM   10  C1  UNL     1      31.149  12.829 110.433  1.00  0.00     0.005 C 
ENDBRANCH   7   9
ENDBRANCH   5   7
ENDBRANCH   2   5
ENDBRANCH   1   2
BRANCH   1  11
HETATM   11  C8  UNL     1      36.260   9.624 106.485  1.00  0.00     0.083 C 
BRANCH  11  12
HETATM   12  N2  UNL     1      36.282   8.368 107.057  1.00  0.00    -0.396 N 
ATOM     13  H2  UNL     1      37.153   7.843 106.979  1.00  0.00     0.159 HD
BRANCH  12  14
HETATM   14  C9  UNL     1      35.241   7.751 107.724  1.00  0.00     0.080 C 
HETATM   15  C10 UNL     1      34.425   6.680 107.079  1.00  0.00     0.025 C 
HETATM   16  C11 UNL     1      33.278   6.385 108.038  1.00  0.00     0.002 C 
HETATM   17  C12 UNL     1      33.182   7.333 109.186  1.00  0.00     0.000 C 
HETATM   18  C13 UNL     1      34.437   7.465 110.008  1.00  0.00     0.002 C 
HETATM   19  C14 UNL     1      35.621   7.211 109.106  1.00  0.00     0.025 C 
ENDBRANCH  12  14
ENDBRANCH  11  12
ENDBRANCH   1  11
TORSDOF 7
ENDMDL
MODEL 2
REMARK VINA RESULT: -6.590196685      1.552      5.423
REMARK  7 active torsions:
REMARK  status: ('A' for Active; 'I' for Inactive)
REMARK    1  A    between atoms: C2_2  and  C3_3 
REMARK    2  A    between atoms: C3_3  and  C5_5 
REMARK    3  A    between atoms: C5_5  and  N1_7 
REMARK    4  A    between atoms: N1_7  and  C7_10 
REMARK    5  A    between atoms: C7_10  and  C8_11 
REMARK    6  A    between atoms: C8_11  and  N2_12 
REMARK    7  A    between atoms: N2_12  and  C9_14 
ROOT
HETATM    1  C7  UNL     1      34.652  10.507 107.707  1.00  0.00     0.277 C 
ENDROOT
BRANCH   1   2
HETATM    2  N1  UNL     1      34.204   9.713 108.866  1.00  0.00    -0.067 N 
ATOM      3  H12 UNL     1      33.834  10.280 109.629  1.00  0.00     0.278 HD
ATOM      4  H11 UNL     1      34.970   9.288 109.388  1.00  0.00     0.278 HD
BRANCH   2   5
HETATM    5  C5  UNL     1      33.242   8.740 108.339  1.00  0.00     0.185 C 
HETATM    6  C6  UNL     1      32.889   8.981 106.944  1.00  0.00     0.040 C 
BRANCH   5   7
HETATM    7  C3  UNL     1      33.444   7.363 108.840  1.00  0.00     0.011 C 
HETATM    8  C4  UNL     1      34.740   7.198 109.623  1.00  0.00     0.012 C 
BRANCH   7   9
HETATM    9  C2  UNL     1      33.236   6.263 107.886  1.00  0.00     0.002 C 
HETATM   10  C1  UNL     1      34.374   5.623 107.205  1.00  0.00     0.005 C 
ENDBRANCH   7   9
ENDBRANCH   5   7
ENDBRANCH   2   5
ENDBRANCH   1   2
BRANCH   1  11
HETATM   11  C8  UNL     1      34.327  11.944 107.834  1.00  0.00     0.083 C 
BRANCH  11  12
HETATM   12  N2  UNL     1      33.578  12.366 108.914  1.00  0.00    -0.396 N 
ATOM     13  H2  UNL     1      34.082  12.539 109.783  1.00  0.00     0.159 HD
BRANCH  12  14
HETATM   14  C9  UNL     1      32.213  12.578 108.934  1.00  0.00     0.080 C 
HETATM   15  C10 UNL     1      31.368  12.351 107.723  1.00  0.00     0.025 C 
HETATM   16  C11 UNL     1      29.976  12.861 108.075  1.00  0.00     0.002 C 
HETATM   17  C12 UNL     1      29.902  13.586 109.377  1.00  0.00     0.000 C 
HETATM   18  C13 UNL     1      30.414  12.814 110.564  1.00  0.00     0.002 C 
HETATM   19  C14 UNL     1      31.490  11.870 110.084  1.00  0.00     0.025 C 
ENDBRANCH  12  14
ENDBRANCH  11  12
ENDBRANCH   1  11
TORSDOF 7
ENDMDL
MODEL 3
REMARK VINA RESULT: -6.561682612      0.977      1.300
REMARK  7 active torsions:
REMARK  status: ('A' for Active; 'I' for Inactive)
REMARK    1  A    between atoms: C2_2  and  C3_3 
REMARK    2  A    between atoms: C3_3  and  C5_5 
REMARK    3  A    between atoms: C5_5  and  N1_7 
REMARK    4  A    between atoms: N1_7  and  C7_10 
REMARK    5  A    between atoms: C7_10  and  C8_11 
REMARK    6  A    between atoms: C8_11  and  N2_12 
REMARK    7  A    between atoms: N2_12  and  C9_14 
ROOT
HETATM    1  C7  UNL     1      33.869  10.340 105.713  1.00  0.00     0.277 C 
ENDROOT
BRANCH   1   2
HETATM    2  N1  UNL     1      34.201  11.113 106.924  1.00  0.00    -0.067 N 
ATOM      3  H12 UNL     1      35.006  11.728 106.806  1.00  0.00     0.278 HD
ATOM      4  H11 UNL     1      34.590  10.544 107.676  1.00  0.00     0.278 HD
BRANCH   2   5
HETATM    5  C5  UNL     1      32.972  11.820 107.300  1.00  0.00     0.185 C 
HETATM    6  C6  UNL     1      31.833  11.476 106.456  1.00  0.00     0.040 C 
BRANCH   5   7
HETATM    7  C3  UNL     1      32.806  12.002 108.758  1.00  0.00     0.011 C 
HETATM    8  C4  UNL     1      33.440  10.884 109.574  1.00  0.00     0.012 C 
BRANCH   7   9
HETATM    9  C2  UNL     1      31.459  12.340 109.243  1.00  0.00     0.002 C 
HETATM   10  C1  UNL     1      31.251  12.857 110.606  1.00  0.00     0.005 C 
ENDBRANCH   7   9
ENDBRANCH   5   7
ENDBRANCH   2   5
ENDBRANCH   1   2
BRANCH   1  11
HETATM   11  C8  UNL     1      34.853   9.276 105.421  1.00  0.00     0.083 C 
BRANCH  11  12
HETATM   12  N2  UNL     1      34.622   8.003 105.902  1.00  0.00    -0.396 N 
ATOM     13  H2  UNL     1      34.548   7.257 105.210  1.00  0.00     0.159 HD
BRANCH  12  14
HETATM   14  C9  UNL     1      34.482   7.639 107.227  1.00  0.00     0.080 C 
HETATM   15  C10 UNL     1      33.139   7.412 107.838  1.00  0.00     0.025 C 
HETATM   16  C11 UNL     1      33.379   7.215 109.330  1.00  0.00     0.002 C 
HETATM   17  C12 UNL     1      34.779   7.490 109.765  1.00  0.00     0.000 C 
HETATM   18  C13 UNL     1      35.837   6.712 109.031  1.00  0.00     0.002 C 
HETATM   19  C14 UNL     1      35.335   6.432 107.635  1.00  0.00     0.025 C 
ENDBRANCH  12  14
ENDBRANCH  11  12
ENDBRANCH   1  11
TORSDOF 7
ENDMDL
MODEL 4
REMARK VINA RESULT: -6.449233342      1.159      1.712
REMARK  7 active torsions:
REMARK  status: ('A' for Active; 'I' for Inactive)
REMARK    1  A    between atoms: C2_2  and  C3_3 
REMARK    2  A    between atoms: C3_3  and  C5_5 
REMARK    3  A    between atoms: C5_5  and  N1_7 
REMARK    4  A    between atoms: N1_7  and  C7_10 
REMARK    5  A    between atoms: C7_10  and  C8_11 
REMARK    6  A    between atoms: C8_11  and  N2_12 
REMARK    7  A    between atoms: N2_12  and  C9_14 
ROOT
HETATM    1  C7  UNL     1      34.592  11.089 108.096  1.00  0.00     0.277 C 
ENDROOT
BRANCH   1   2
HETATM    2  N1  UNL     1      33.462  11.886 107.585  1.00  0.00    -0.067 N 
ATOM      3  H12 UNL     1      33.306  11.774 106.583  1.00  0.00     0.278 HD
ATOM      4  H11 UNL     1      33.645  12.889 107.569  1.00  0.00     0.278 HD
BRANCH   2   5
HETATM    5  C5  UNL     1      32.304  11.515 108.405  1.00  0.00     0.185 C 
HETATM    6  C6  UNL     1      32.562  10.373 109.276  1.00  0.00     0.040 C 
BRANCH   5   7
HETATM    7  C3  UNL     1      31.511  12.668 108.883  1.00  0.00     0.011 C 
HETATM    8  C4  UNL     1      31.315  12.669 110.393  1.00  0.00     0.012 C 
BRANCH   7   9
HETATM    9  C2  UNL     1      30.263  12.968 108.167  1.00  0.00     0.002 C 
HETATM   10  C1  UNL     1      30.137  12.711 106.722  1.00  0.00     0.005 C 
ENDBRANCH   7   9
ENDBRANCH   5   7
ENDBRANCH   2   5
ENDBRANCH   1   2
BRANCH   1  11
HETATM   11  C8  UNL     1      35.479  10.594 107.022  1.00  0.00     0.083 C 
BRANCH  11  12
HETATM   12  N2  UNL     1      35.562   9.235 106.796  1.00  0.00    -0.396 N 
ATOM     13  H2  UNL     1      36.210   8.927 106.071  1.00  0.00     0.159 HD
BRANCH  12  14
HETATM   14  C9  UNL     1      34.854   8.249 107.457  1.00  0.00     0.080 C 
HETATM   15  C10 UNL     1      34.163   7.153 106.716  1.00  0.00     0.025 C 
HETATM   16  C11 UNL     1      33.351   6.386 107.752  1.00  0.00     0.002 C 
HETATM   17  C12 UNL     1      33.314   7.028 109.097  1.00  0.00     0.000 C 
HETATM   18  C13 UNL     1      34.663   7.315 109.701  1.00  0.00     0.002 C 
HETATM   19  C14 UNL     1      35.641   7.562 108.578  1.00  0.00     0.025 C 
ENDBRANCH  12  14
ENDBRANCH  11  12
ENDBRANCH   1  11
TORSDOF 7
ENDMDL
MODEL 5
REMARK VINA RESULT: -6.388407204      1.498      5.284
REMARK  7 active torsions:
REMARK  status: ('A' for Active; 'I' for Inactive)
REMARK    1  A    between atoms: C2_2  and  C3_3 
REMARK    2  A    between atoms: C3_3  and  C5_5 
REMARK    3  A    between atoms: C5_5  and  N1_7 
REMARK    4  A    between atoms: N1_7  and  C7_10 
REMARK    5  A    between atoms: C7_10  and  C8_11 
REMARK    6  A    between atoms: C8_11  and  N2_12 
REMARK    7  A    between atoms: N2_12  and  C9_14 
ROOT
HETATM    1  C7  UNL     1      35.158  10.593 107.348  1.00  0.00     0.277 C 
ENDROOT
BRANCH   1   2
HETATM    2  N1  UNL     1      34.177   9.732 106.663  1.00  0.00    -0.067 N 
ATOM      3  H12 UNL     1      34.193   9.825 105.647  1.00  0.00     0.278 HD
ATOM      4  H11 UNL     1      33.211  10.027 106.798  1.00  0.00     0.278 HD
BRANCH   2   5
HETATM    5  C5  UNL     1      34.444   8.368 107.131  1.00  0.00     0.185 C 
HETATM    6  C6  UNL     1      35.808   8.185 107.614  1.00  0.00     0.040 C 
BRANCH   5   7
HETATM    7  C3  UNL     1      33.303   7.738 107.830  1.00  0.00     0.011 C 
HETATM    8  C4  UNL     1      33.035   8.345 109.200  1.00  0.00     0.012 C 
BRANCH   7   9
HETATM    9  C2  UNL     1      33.265   6.268 107.864  1.00  0.00     0.002 C 
HETATM   10  C1  UNL     1      32.963   5.488 106.651  1.00  0.00     0.005 C 
ENDBRANCH   7   9
ENDBRANCH   5   7
ENDBRANCH   2   5
ENDBRANCH   1   2
BRANCH   1  11
HETATM   11  C8  UNL     1      34.607  11.918 107.707  1.00  0.00     0.083 C 
BRANCH  11  12
HETATM   12  N2  UNL     1      33.820  12.031 108.835  1.00  0.00    -0.396 N 
ATOM     13  H2  UNL     1      34.276  11.869 109.732  1.00  0.00     0.159 HD
BRANCH  12  14
HETATM   14  C9  UNL     1      32.474  12.341 108.868  1.00  0.00     0.080 C 
HETATM   15  C10 UNL     1      31.599  12.158 107.673  1.00  0.00     0.025 C 
HETATM   16  C11 UNL     1      30.252  12.773 108.033  1.00  0.00     0.002 C 
HETATM   17  C12 UNL     1      30.248  13.521 109.323  1.00  0.00     0.000 C 
HETATM   18  C13 UNL     1      30.720  12.733 110.516  1.00  0.00     0.002 C 
HETATM   19  C14 UNL     1      31.718  11.705 110.039  1.00  0.00     0.025 C 
ENDBRANCH  12  14
ENDBRANCH  11  12
ENDBRANCH   1  11
TORSDOF 7
ENDMDL
