MODEL 1
REMARK VINA RESULT: -10.789141524      0.000      0.000
REMARK  10 active torsions:
REMARK  status: ('A' for Active; 'I' for Inactive)
REMARK    1  A    between atoms: C3_3  and  C4_4 
REMARK    2  A    between atoms: C6_6  and  C7_7 
REMARK    3  A    between atoms: C8_8  and  C9_9 
REMARK    4  A    between atoms: C10_10  and  C11_11 
REMARK    5  A    between atoms: C12_12  and  C13_13 
REMARK    6  A    between atoms: C14_14  and  C15_15 
REMARK    7  A    between atoms: C16_16  and  C17_17 
REMARK    8  A    between atoms: C18_18  and  O1_19 
REMARK    9  A    between atoms: C21_23  and  N1_24 
REMARK   10  A    between atoms: N1_24  and  N2_26 
REMARK       I    between atoms: N2_26  and  C22_28 
ROOT
HETATM    1  C17 UNL     1      20.292  52.469  36.775  1.00  0.00     0.073 A 
HETATM    2  C18 UNL     1      21.624  52.397  37.066  1.00  0.00     0.092 A 
HETATM    3  C19 UNL     1      22.423  51.275  36.805  1.00  0.00     0.025 A 
HETATM    4  C20 UNL     1      23.860  51.297  37.109  1.00  0.00     0.056 C 
HETATM    5  C21 UNL     1      21.812  50.190  36.230  1.00  0.00     0.174 A 
HETATM    6  O2  UNL     1      20.492  50.225  35.936  1.00  0.00    -0.255 OA
HETATM    7  C23 UNL     1      19.800  51.258  36.180  1.00  0.00     0.302 A 
HETATM    8  O3  UNL     1      18.570  51.220  35.865  1.00  0.00    -0.259 OA
ENDROOT
BRANCH   1   9
HETATM    9  C16 UNL     1      19.371  53.506  36.935  1.00  0.00     0.020 C 
HETATM   10  C15 UNL     1      19.002  54.625  36.452  1.00  0.00     0.002 C 
BRANCH  10  11
HETATM   11  C14 UNL     1      17.831  55.176  37.206  1.00  0.00     0.009 C 
HETATM   12  C13 UNL     1      16.912  55.997  36.922  1.00  0.00     0.065 C 
BRANCH  12  13
HETATM   13  C12 UNL     1      15.983  56.149  38.017  1.00  0.00    -0.074 C 
HETATM   14  C11 UNL     1      15.205  56.309  38.906  1.00  0.00    -0.074 C 
BRANCH  14  15
HETATM   15  C10 UNL     1      14.340  56.370  39.987  1.00  0.00     0.065 C 
HETATM   16  C9  UNL     1      13.909  57.631  40.391  1.00  0.00     0.009 C 
BRANCH  16  17
HETATM   17  C8  UNL     1      14.484  58.718  39.588  1.00  0.00     0.002 C 
HETATM   18  C7  UNL     1      13.962  59.508  38.769  1.00  0.00     0.013 C 
BRANCH  18  19
HETATM   19  C6  UNL     1      12.734  59.825  38.163  1.00  0.00    -0.019 A 
HETATM   20  C5  UNL     1      11.601  60.438  38.753  1.00  0.00     0.042 A 
HETATM   21  C4  UNL     1      10.572  60.442  37.750  1.00  0.00     0.032 A 
HETATM   22  N5  UNL     1      11.108  59.891  36.674  1.00  0.00    -0.365 N 
HETATM   23  C24 UNL     1      12.357  59.521  36.873  1.00  0.00     0.100 A 
ATOM     24  H5  UNL     1      10.612  59.767  35.791  1.00  0.00     0.165 HD
BRANCH  21  25
HETATM   25  C3  UNL     1       9.201  60.788  38.051  1.00  0.00     0.025 C 
HETATM   26  C2  UNL     1       8.317  59.907  38.439  1.00  0.00    -0.029 C 
HETATM   27  C1  UNL     1       6.899  60.209  38.725  1.00  0.00     0.036 C 
ENDBRANCH  21  25
ENDBRANCH  18  19
ENDBRANCH  16  17
ENDBRANCH  14  15
ENDBRANCH  12  13
ENDBRANCH  10  11
ENDBRANCH   1   9
BRANCH   2  28
HETATM   28  O1  UNL     1      22.300  53.509  37.667  1.00  0.00    -0.359 OA
ATOM     29  H1  UNL     1      22.666  53.437  38.542  1.00  0.00     0.217 HD
ENDBRANCH   2  28
BRANCH   5  30
HETATM   30  N1  UNL     1      22.511  49.004  35.929  1.00  0.00    -0.277 N 
ATOM     31  H1  UNL     1      23.098  48.543  36.623  1.00  0.00     0.189 HD
BRANCH  30  32
HETATM   32  N2  UNL     1      22.362  48.477  34.614  1.00  0.00    -0.272 N 
HETATM   33  C22 UNL     1      22.922  49.182  33.509  1.00  0.00     0.200 C 
HETATM   34  N3  UNL     1      22.285  49.243  32.396  1.00  0.00    -0.372 N 
HETATM   35  N4  UNL     1      24.191  49.764  33.704  1.00  0.00    -0.062 NA
ATOM     36  H32 UNL     1      21.367  48.821  32.255  1.00  0.00     0.158 HD
ATOM     37  H31 UNL     1      22.686  49.747  31.606  1.00  0.00     0.158 HD
ATOM     38  H2  UNL     1      21.859  47.602  34.464  1.00  0.00     0.189 HD
ENDBRANCH  30  32
ENDBRANCH   5  30
TORSDOF 10
ENDMDL
MODEL 2
REMARK VINA RESULT: -10.768268199      1.510      2.425
REMARK  10 active torsions:
REMARK  status: ('A' for Active; 'I' for Inactive)
REMARK    1  A    between atoms: C3_3  and  C4_4 
REMARK    2  A    between atoms: C6_6  and  C7_7 
REMARK    3  A    between atoms: C8_8  and  C9_9 
REMARK    4  A    between atoms: C10_10  and  C11_11 
REMARK    5  A    between atoms: C12_12  and  C13_13 
REMARK    6  A    between atoms: C14_14  and  C15_15 
REMARK    7  A    between atoms: C16_16  and  C17_17 
REMARK    8  A    between atoms: C18_18  and  O1_19 
REMARK    9  A    between atoms: C21_23  and  N1_24 
REMARK   10  A    between atoms: N1_24  and  N2_26 
REMARK       I    between atoms: N2_26  and  C22_28 
ROOT
HETATM    1  C17 UNL     1      19.372  51.513  36.408  1.00  0.00     0.073 A 
HETATM    2  C18 UNL     1      19.128  50.668  35.363  1.00  0.00     0.092 A 
HETATM    3  C19 UNL     1      20.131  50.020  34.630  1.00  0.00     0.025 A 
HETATM    4  C20 UNL     1      19.781  49.091  33.546  1.00  0.00     0.056 C 
HETATM    5  C21 UNL     1      21.431  50.267  34.992  1.00  0.00     0.174 A 
HETATM    6  O2  UNL     1      21.708  51.104  36.017  1.00  0.00    -0.255 OA
HETATM    7  C23 UNL     1      20.776  51.669  36.663  1.00  0.00     0.302 A 
HETATM    8  O3  UNL     1      21.114  52.433  37.620  1.00  0.00    -0.259 OA
ENDROOT
BRANCH   1   9
HETATM    9  C16 UNL     1      18.501  52.203  37.254  1.00  0.00     0.020 C 
HETATM   10  C15 UNL     1      17.748  52.069  38.271  1.00  0.00     0.002 C 
BRANCH  10  11
HETATM   11  C14 UNL     1      17.104  53.370  38.639  1.00  0.00     0.009 C 
HETATM   12  C13 UNL     1      16.583  54.311  37.973  1.00  0.00     0.065 C 
BRANCH  12  13
HETATM   13  C12 UNL     1      16.053  55.338  38.838  1.00  0.00    -0.074 C 
HETATM   14  C11 UNL     1      15.613  56.160  39.581  1.00  0.00    -0.074 C 
BRANCH  14  15
HETATM   15  C10 UNL     1      15.117  57.208  40.340  1.00  0.00     0.065 C 
HETATM   16  C9  UNL     1      13.962  57.838  39.884  1.00  0.00     0.009 C 
BRANCH  16  17
HETATM   17  C8  UNL     1      13.465  57.278  38.620  1.00  0.00     0.002 C 
HETATM   18  C7  UNL     1      12.609  57.699  37.808  1.00  0.00     0.013 C 
BRANCH  18  19
HETATM   19  C6  UNL     1      11.710  58.759  37.594  1.00  0.00    -0.019 A 
HETATM   20  C5  UNL     1      10.614  59.151  38.400  1.00  0.00     0.042 A 
HETATM   21  C4  UNL     1       9.949  60.213  37.696  1.00  0.00     0.032 A 
HETATM   22  N5  UNL     1      10.646  60.409  36.589  1.00  0.00    -0.365 N 
HETATM   23  C24 UNL     1      11.672  59.587  36.493  1.00  0.00     0.100 A 
ATOM     24  H5  UNL     1      10.416  61.114  35.890  1.00  0.00     0.165 HD
BRANCH  21  25
HETATM   25  C3  UNL     1       8.657  60.720  38.101  1.00  0.00     0.025 C 
HETATM   26  C2  UNL     1       7.688  59.944  38.508  1.00  0.00    -0.029 C 
HETATM   27  C1  UNL     1       6.343  60.415  38.899  1.00  0.00     0.036 C 
ENDBRANCH  21  25
ENDBRANCH  18  19
ENDBRANCH  16  17
ENDBRANCH  14  15
ENDBRANCH  12  13
ENDBRANCH  10  11
ENDBRANCH   1   9
BRANCH   2  28
HETATM   28  O1  UNL     1      17.784  50.385  34.953  1.00  0.00    -0.359 OA
ATOM     29  H1  UNL     1      17.565  50.309  34.031  1.00  0.00     0.217 HD
ENDBRANCH   2  28
BRANCH   5  30
HETATM   30  N1  UNL     1      22.523  49.678  34.323  1.00  0.00    -0.277 N 
ATOM     31  H1  UNL     1      22.673  48.670  34.337  1.00  0.00     0.189 HD
BRANCH  30  32
HETATM   32  N2  UNL     1      23.408  50.551  33.627  1.00  0.00    -0.272 N 
HETATM   33  C22 UNL     1      23.707  50.298  32.257  1.00  0.00     0.200 C 
HETATM   34  N3  UNL     1      24.898  50.487  31.814  1.00  0.00    -0.372 N 
HETATM   35  N4  UNL     1      22.641  49.868  31.442  1.00  0.00    -0.062 NA
ATOM     36  H32 UNL     1      25.670  50.798  32.404  1.00  0.00     0.158 HD
ATOM     37  H31 UNL     1      25.112  50.306  30.834  1.00  0.00     0.158 HD
ATOM     38  H2  UNL     1      23.823  51.351  34.105  1.00  0.00     0.189 HD
ENDBRANCH  30  32
ENDBRANCH   5  30
TORSDOF 10
ENDMDL
MODEL 3
REMARK VINA RESULT: -10.666768361      1.748      2.895
REMARK  10 active torsions:
REMARK  status: ('A' for Active; 'I' for Inactive)
REMARK    1  A    between atoms: C3_3  and  C4_4 
REMARK    2  A    between atoms: C6_6  and  C7_7 
REMARK    3  A    between atoms: C8_8  and  C9_9 
REMARK    4  A    between atoms: C10_10  and  C11_11 
REMARK    5  A    between atoms: C12_12  and  C13_13 
REMARK    6  A    between atoms: C14_14  and  C15_15 
REMARK    7  A    between atoms: C16_16  and  C17_17 
REMARK    8  A    between atoms: C18_18  and  O1_19 
REMARK    9  A    between atoms: C21_23  and  N1_24 
REMARK   10  A    between atoms: N1_24  and  N2_26 
REMARK       I    between atoms: N2_26  and  C22_28 
ROOT
HETATM    1  C17 UNL     1      20.844  53.124  36.785  1.00  0.00     0.073 A 
HETATM    2  C18 UNL     1      21.081  52.019  36.019  1.00  0.00     0.092 A 
HETATM    3  C19 UNL     1      22.248  51.246  36.101  1.00  0.00     0.025 A 
HETATM    4  C20 UNL     1      22.405  50.044  35.270  1.00  0.00     0.056 C 
HETATM    5  C21 UNL     1      23.201  51.643  37.004  1.00  0.00     0.174 A 
HETATM    6  O2  UNL     1      23.001  52.738  37.773  1.00  0.00    -0.255 OA
HETATM    7  C23 UNL     1      21.931  53.411  37.677  1.00  0.00     0.302 A 
HETATM    8  O3  UNL     1      21.810  54.419  38.440  1.00  0.00    -0.259 OA
ENDROOT
BRANCH   1   9
HETATM    9  C16 UNL     1      19.738  53.975  36.852  1.00  0.00     0.020 C 
HETATM   10  C15 UNL     1      19.087  54.854  36.202  1.00  0.00     0.002 C 
BRANCH  10  11
HETATM   11  C14 UNL     1      17.903  55.334  36.983  1.00  0.00     0.009 C 
HETATM   12  C13 UNL     1      16.941  56.115  36.728  1.00  0.00     0.065 C 
BRANCH  12  13
HETATM   13  C12 UNL     1      16.024  56.203  37.839  1.00  0.00    -0.074 C 
HETATM   14  C11 UNL     1      15.251  56.308  38.741  1.00  0.00    -0.074 C 
BRANCH  14  15
HETATM   15  C10 UNL     1      14.407  56.310  39.840  1.00  0.00     0.065 C 
HETATM   16  C9  UNL     1      13.977  57.548  40.313  1.00  0.00     0.009 C 
BRANCH  16  17
HETATM   17  C8  UNL     1      14.532  58.676  39.554  1.00  0.00     0.002 C 
HETATM   18  C7  UNL     1      13.996  59.485  38.763  1.00  0.00     0.013 C 
BRANCH  18  19
HETATM   19  C6  UNL     1      12.763  59.800  38.166  1.00  0.00    -0.019 A 
HETATM   20  C5  UNL     1      11.640  60.428  38.757  1.00  0.00     0.042 A 
HETATM   21  C4  UNL     1      10.600  60.422  37.765  1.00  0.00     0.032 A 
HETATM   22  N5  UNL     1      11.122  59.852  36.692  1.00  0.00    -0.365 N 
HETATM   23  C24 UNL     1      12.371  59.478  36.884  1.00  0.00     0.100 A 
ATOM     24  H5  UNL     1      10.616  59.717  35.817  1.00  0.00     0.165 HD
BRANCH  21  25
HETATM   25  C3  UNL     1       9.234  60.779  38.074  1.00  0.00     0.025 C 
HETATM   26  C2  UNL     1       8.336  59.901  38.435  1.00  0.00    -0.029 C 
HETATM   27  C1  UNL     1       6.922  60.216  38.729  1.00  0.00     0.036 C 
ENDBRANCH  21  25
ENDBRANCH  18  19
ENDBRANCH  16  17
ENDBRANCH  14  15
ENDBRANCH  12  13
ENDBRANCH  10  11
ENDBRANCH   1   9
BRANCH   2  28
HETATM   28  O1  UNL     1      20.111  51.572  35.063  1.00  0.00    -0.359 OA
ATOM     29  H1  UNL     1      19.622  50.770  35.209  1.00  0.00     0.217 HD
ENDBRANCH   2  28
BRANCH   5  30
HETATM   30  N1  UNL     1      24.416  50.949  37.169  1.00  0.00    -0.277 N 
ATOM     31  H1  UNL     1      25.209  51.111  36.549  1.00  0.00     0.189 HD
BRANCH  30  32
HETATM   32  N2  UNL     1      24.490  50.012  38.240  1.00  0.00    -0.272 N 
HETATM   33  C22 UNL     1      25.314  50.299  39.366  1.00  0.00     0.200 C 
HETATM   34  N3  UNL     1      25.990  49.360  39.924  1.00  0.00    -0.372 N 
HETATM   35  N4  UNL     1      25.316  51.630  39.830  1.00  0.00    -0.062 NA
ATOM     36  H32 UNL     1      25.989  48.396  39.588  1.00  0.00     0.158 HD
ATOM     37  H31 UNL     1      26.580  49.565  40.730  1.00  0.00     0.158 HD
ATOM     38  H2  UNL     1      23.958  49.142  38.200  1.00  0.00     0.189 HD
ENDBRANCH  30  32
ENDBRANCH   5  30
TORSDOF 10
ENDMDL
MODEL 4
REMARK VINA RESULT: -10.395766589      1.707      2.139
REMARK  10 active torsions:
REMARK  status: ('A' for Active; 'I' for Inactive)
REMARK    1  A    between atoms: C3_3  and  C4_4 
REMARK    2  A    between atoms: C6_6  and  C7_7 
REMARK    3  A    between atoms: C8_8  and  C9_9 
REMARK    4  A    between atoms: C10_10  and  C11_11 
REMARK    5  A    between atoms: C12_12  and  C13_13 
REMARK    6  A    between atoms: C14_14  and  C15_15 
REMARK    7  A    between atoms: C16_16  and  C17_17 
REMARK    8  A    between atoms: C18_18  and  O1_19 
REMARK    9  A    between atoms: C21_23  and  N1_24 
REMARK   10  A    between atoms: N1_24  and  N2_26 
REMARK       I    between atoms: N2_26  and  C22_28 
ROOT
HETATM    1  C17 UNL     1      19.950  51.486  35.875  1.00  0.00     0.073 A 
HETATM    2  C18 UNL     1      21.217  51.277  35.411  1.00  0.00     0.092 A 
HETATM    3  C19 UNL     1      21.565  50.249  34.523  1.00  0.00     0.025 A 
HETATM    4  C20 UNL     1      22.946  50.120  34.038  1.00  0.00     0.056 C 
HETATM    5  C21 UNL     1      20.562  49.408  34.112  1.00  0.00     0.174 A 
HETATM    6  O2  UNL     1      19.297  49.585  34.558  1.00  0.00    -0.255 OA
HETATM    7  C23 UNL     1      19.016  50.528  35.357  1.00  0.00     0.302 A 
HETATM    8  O3  UNL     1      17.805  50.636  35.723  1.00  0.00    -0.259 OA
ENDROOT
BRANCH   1   9
HETATM    9  C16 UNL     1      19.434  52.468  36.723  1.00  0.00     0.020 C 
HETATM   10  C15 UNL     1      19.759  53.333  37.598  1.00  0.00     0.002 C 
BRANCH  10  11
HETATM   11  C14 UNL     1      18.560  54.090  38.079  1.00  0.00     0.009 C 
HETATM   12  C13 UNL     1      17.365  54.189  37.677  1.00  0.00     0.065 C 
BRANCH  12  13
HETATM   13  C12 UNL     1      16.583  55.035  38.547  1.00  0.00    -0.074 C 
HETATM   14  C11 UNL     1      15.908  55.733  39.240  1.00  0.00    -0.074 C 
BRANCH  14  15
HETATM   15  C10 UNL     1      15.228  56.538  40.138  1.00  0.00     0.065 C 
HETATM   16  C9  UNL     1      14.094  57.198  39.673  1.00  0.00     0.009 C 
BRANCH  16  17
HETATM   17  C8  UNL     1      13.818  56.935  38.255  1.00  0.00     0.002 C 
HETATM   18  C7  UNL     1      13.066  57.513  37.437  1.00  0.00     0.013 C 
BRANCH  18  19
HETATM   19  C6  UNL     1      12.148  58.572  37.331  1.00  0.00    -0.019 A 
HETATM   20  C5  UNL     1      11.118  58.929  38.234  1.00  0.00     0.042 A 
HETATM   21  C4  UNL     1      10.394  60.010  37.620  1.00  0.00     0.032 A 
HETATM   22  N5  UNL     1      11.000  60.247  36.469  1.00  0.00    -0.365 N 
HETATM   23  C24 UNL     1      12.019  59.437  36.265  1.00  0.00     0.100 A 
ATOM     24  H5  UNL     1      10.711  60.974  35.814  1.00  0.00     0.165 HD
BRANCH  21  25
HETATM   25  C3  UNL     1       9.137  60.494  38.144  1.00  0.00     0.025 C 
HETATM   26  C2  UNL     1       8.119  59.710  38.379  1.00  0.00    -0.029 C 
HETATM   27  C1  UNL     1       6.805  60.165  38.882  1.00  0.00     0.036 C 
ENDBRANCH  21  25
ENDBRANCH  18  19
ENDBRANCH  16  17
ENDBRANCH  14  15
ENDBRANCH  12  13
ENDBRANCH  10  11
ENDBRANCH   1   9
BRANCH   2  28
HETATM   28  O1  UNL     1      22.294  52.132  35.817  1.00  0.00    -0.359 OA
ATOM     29  H1  UNL     1      23.163  51.778  35.964  1.00  0.00     0.217 HD
ENDBRANCH   2  28
BRANCH   5  30
HETATM   30  N1  UNL     1      20.793  48.337  33.227  1.00  0.00    -0.277 N 
ATOM     31  H1  UNL     1      20.718  48.456  32.218  1.00  0.00     0.189 HD
BRANCH  30  32
HETATM   32  N2  UNL     1      21.136  47.080  33.803  1.00  0.00    -0.272 N 
HETATM   33  C22 UNL     1      21.454  45.983  32.951  1.00  0.00     0.200 C 
HETATM   34  N3  UNL     1      21.059  44.799  33.254  1.00  0.00    -0.372 N 
HETATM   35  N4  UNL     1      22.228  46.269  31.809  1.00  0.00    -0.062 NA
ATOM     36  H32 UNL     1      20.498  44.592  34.081  1.00  0.00     0.158 HD
ATOM     37  H31 UNL     1      21.286  44.014  32.644  1.00  0.00     0.158 HD
ATOM     38  H2  UNL     1      21.155  46.966  34.817  1.00  0.00     0.189 HD
ENDBRANCH  30  32
ENDBRANCH   5  30
TORSDOF 10
ENDMDL
MODEL 5
REMARK VINA RESULT: -10.353932232      3.935      6.153
REMARK  10 active torsions:
REMARK  status: ('A' for Active; 'I' for Inactive)
REMARK    1  A    between atoms: C3_3  and  C4_4 
REMARK    2  A    between atoms: C6_6  and  C7_7 
REMARK    3  A    between atoms: C8_8  and  C9_9 
REMARK    4  A    between atoms: C10_10  and  C11_11 
REMARK    5  A    between atoms: C12_12  and  C13_13 
REMARK    6  A    between atoms: C14_14  and  C15_15 
REMARK    7  A    between atoms: C16_16  and  C17_17 
REMARK    8  A    between atoms: C18_18  and  O1_19 
REMARK    9  A    between atoms: C21_23  and  N1_24 
REMARK   10  A    between atoms: N1_24  and  N2_26 
REMARK       I    between atoms: N2_26  and  C22_28 
ROOT
HETATM    1  C17 UNL     1      21.557  51.172  35.492  1.00  0.00     0.073 A 
HETATM    2  C18 UNL     1      22.867  50.819  35.645  1.00  0.00     0.092 A 
HETATM    3  C19 UNL     1      23.400  49.589  35.234  1.00  0.00     0.025 A 
HETATM    4  C20 UNL     1      24.832  49.305  35.396  1.00  0.00     0.056 C 
HETATM    5  C21 UNL     1      22.536  48.694  34.653  1.00  0.00     0.174 A 
HETATM    6  O2  UNL     1      21.231  49.010  34.493  1.00  0.00    -0.255 OA
HETATM    7  C23 UNL     1      20.783  50.134  34.870  1.00  0.00     0.302 A 
HETATM    8  O3  UNL     1      19.549  50.362  34.677  1.00  0.00    -0.259 OA
ENDROOT
BRANCH   1   9
HETATM    9  C16 UNL     1      20.880  52.351  35.809  1.00  0.00     0.020 C 
HETATM   10  C15 UNL     1      21.000  53.463  36.418  1.00  0.00     0.002 C 
BRANCH  10  11
HETATM   11  C14 UNL     1      19.755  54.285  36.287  1.00  0.00     0.009 C 
HETATM   12  C13 UNL     1      19.515  55.454  35.869  1.00  0.00     0.065 C 
BRANCH  12  13
HETATM   13  C12 UNL     1      18.103  55.752  35.915  1.00  0.00    -0.074 C 
HETATM   14  C11 UNL     1      16.946  56.035  35.957  1.00  0.00    -0.074 C 
BRANCH  14  15
HETATM   15  C10 UNL     1      15.574  56.229  35.989  1.00  0.00     0.065 C 
HETATM   16  C9  UNL     1      14.957  56.226  37.237  1.00  0.00     0.009 C 
BRANCH  16  17
HETATM   17  C8  UNL     1      15.895  55.985  38.341  1.00  0.00     0.002 C 
HETATM   18  C7  UNL     1      16.341  54.923  38.832  1.00  0.00     0.013 C 
BRANCH  18  19
HETATM   19  C6  UNL     1      16.260  53.525  38.710  1.00  0.00    -0.019 A 
HETATM   20  C5  UNL     1      16.771  52.708  37.673  1.00  0.00     0.042 A 
HETATM   21  C4  UNL     1      16.332  51.368  37.956  1.00  0.00     0.032 A 
HETATM   22  N5  UNL     1      15.647  51.439  39.085  1.00  0.00    -0.365 N 
HETATM   23  C24 UNL     1      15.582  52.670  39.552  1.00  0.00     0.100 A 
ATOM     24  H5  UNL     1      15.217  50.635  39.541  1.00  0.00     0.165 HD
BRANCH  21  25
HETATM   25  C3  UNL     1      16.473  50.291  37.003  1.00  0.00     0.025 C 
HETATM   26  C2  UNL     1      15.773  49.190  37.070  1.00  0.00    -0.029 C 
HETATM   27  C1  UNL     1      15.907  48.050  36.138  1.00  0.00     0.036 C 
ENDBRANCH  21  25
ENDBRANCH  18  19
ENDBRANCH  16  17
ENDBRANCH  14  15
ENDBRANCH  12  13
ENDBRANCH  10  11
ENDBRANCH   1   9
BRANCH   2  28
HETATM   28  O1  UNL     1      23.801  51.724  36.248  1.00  0.00    -0.359 OA
ATOM     29  H1  UNL     1      24.639  51.412  36.568  1.00  0.00     0.217 HD
ENDBRANCH   2  28
BRANCH   5  30
HETATM   30  N1  UNL     1      22.955  47.425  34.207  1.00  0.00    -0.277 N 
ATOM     31  H1  UNL     1      23.934  47.233  33.996  1.00  0.00     0.189 HD
BRANCH  30  32
HETATM   32  N2  UNL     1      21.954  46.422  34.065  1.00  0.00    -0.272 N 
HETATM   33  C22 UNL     1      21.484  46.081  32.764  1.00  0.00     0.200 C 
HETATM   34  N3  UNL     1      20.239  45.829  32.576  1.00  0.00    -0.372 N 
HETATM   35  N4  UNL     1      22.448  46.015  31.737  1.00  0.00    -0.062 NA
ATOM     36  H32 UNL     1      19.542  45.877  33.319  1.00  0.00     0.158 HD
ATOM     37  H31 UNL     1      19.903  45.585  31.644  1.00  0.00     0.158 HD
ATOM     38  H2  UNL     1      21.577  45.951  34.888  1.00  0.00     0.189 HD
ENDBRANCH  30  32
ENDBRANCH   5  30
TORSDOF 10
ENDMDL
