MODEL 1
REMARK VINA RESULT: -10.310886075      0.000      0.000
REMARK  15 active torsions:
REMARK  status: ('A' for Active; 'I' for Inactive)
REMARK    1  A    between atoms: C3_3  and  C4_4 
REMARK    2  A    between atoms: C4_4  and  C5_5 
REMARK    3  A    between atoms: C6_6  and  C7_7 
REMARK    4  A    between atoms: C7_7  and  C8_8 
REMARK    5  A    between atoms: C9_9  and  C10_10 
REMARK    6  A    between atoms: C11_11  and  C12_12 
REMARK    7  A    between atoms: C13_13  and  C14_14 
REMARK    8  A    between atoms: C14_14  and  C21_28 
REMARK    9  A    between atoms: C15_15  and  C16_16 
REMARK   10  A    between atoms: N1_18  and  C18_20 
REMARK   11  A    between atoms: C18_20  and  C19_21 
REMARK   12  A    between atoms: C19_21  and  N3_25 
REMARK   13  A    between atoms: C23_30  and  O1_31 
REMARK   14  A    between atoms: C25_34  and  O2_35 
REMARK   15  A    between atoms: C26_37  and  O3_38 
ROOT
HETATM    1  C14 UNL     1      17.323  54.504  37.154  1.00  0.00    -0.021 C 
HETATM    2  C15 UNL     1      18.610  54.789  36.945  1.00  0.00     0.036 C 
ENDROOT
BRANCH   1   3
HETATM    3  C13 UNL     1      16.407  55.604  36.987  1.00  0.00     0.012 C 
HETATM    4  C12 UNL     1      15.662  56.230  37.814  1.00  0.00     0.001 C 
BRANCH   4   5
HETATM    5  C11 UNL     1      15.409  56.144  39.223  1.00  0.00     0.000 C 
HETATM    6  C10 UNL     1      15.003  57.156  39.940  1.00  0.00    -0.000 C 
BRANCH   6   7
HETATM    7  C9  UNL     1      14.759  58.464  39.438  1.00  0.00    -0.004 C 
HETATM    8  C8  UNL     1      13.664  58.778  38.786  1.00  0.00    -0.023 C 
BRANCH   8   9
HETATM    9  C7  UNL     1      12.569  57.877  38.483  1.00  0.00     0.054 C 
BRANCH   9  10
HETATM   10  C6  UNL     1      11.362  58.760  38.211  1.00  0.00    -0.027 C 
HETATM   11  C5  UNL     1      11.443  59.664  37.272  1.00  0.00    -0.027 C 
BRANCH  11  12
HETATM   12  C4  UNL     1      10.312  60.576  36.935  1.00  0.00     0.053 C 
BRANCH  12  13
HETATM   13  C3  UNL     1       9.958  61.446  38.074  1.00  0.00    -0.027 C 
HETATM   14  C2  UNL     1       8.861  61.206  38.762  1.00  0.00    -0.035 C 
HETATM   15  C1  UNL     1       7.959  60.058  38.407  1.00  0.00     0.036 C 
ENDBRANCH  12  13
ENDBRANCH  11  12
ENDBRANCH   9  10
ENDBRANCH   8   9
ENDBRANCH   6   7
ENDBRANCH   4   5
ENDBRANCH   1   3
BRANCH   1  16
HETATM   16  C21 UNL     1      16.870  53.191  37.535  1.00  0.00     0.013 A 
HETATM   17  C22 UNL     1      16.437  52.885  38.822  1.00  0.00     0.051 A 
HETATM   18  C23 UNL     1      16.094  51.617  39.189  1.00  0.00     0.069 A 
HETATM   19  C24 UNL     1      16.178  50.611  38.262  1.00  0.00     0.076 A 
HETATM   20  C25 UNL     1      16.610  50.885  36.965  1.00  0.00     0.102 A 
HETATM   21  C26 UNL     1      16.959  52.164  36.587  1.00  0.00     0.110 A 
BRANCH  18  22
HETATM   22  O1  UNL     1      15.672  51.403  40.496  1.00  0.00    -0.361 OA
ATOM     23  H1  UNL     1      16.084  50.705  40.993  1.00  0.00     0.217 HD
ENDBRANCH  18  22
BRANCH  20  24
HETATM   24  O2  UNL     1      16.674  49.824  36.073  1.00  0.00    -0.358 OA
ATOM     25  H2  UNL     1      17.400  49.809  35.460  1.00  0.00     0.217 HD
ENDBRANCH  20  24
BRANCH  21  26
HETATM   26  O3  UNL     1      17.387  52.431  35.299  1.00  0.00    -0.357 OA
ATOM     27  H3  UNL     1      17.144  51.858  34.581  1.00  0.00     0.217 HD
ENDBRANCH  21  26
ENDBRANCH   1  16
BRANCH   2  28
HETATM   28  C16 UNL     1      19.786  54.003  37.005  1.00  0.00     0.002 C 
HETATM   29  C17 UNL     1      20.809  53.852  38.039  1.00  0.00     0.068 C 
HETATM   30  N1  UNL     1      19.997  53.248  35.925  1.00  0.00    -0.386 N 
ATOM     31  H1  UNL     1      19.322  53.288  35.161  1.00  0.00     0.159 HD
BRANCH  30  32
HETATM   32  C18 UNL     1      21.118  52.395  35.796  1.00  0.00     0.195 C 
BRANCH  32  33
HETATM   33  C19 UNL     1      20.708  50.977  35.645  1.00  0.00     0.088 C 
HETATM   34  N2  UNL     1      21.366  50.060  36.247  1.00  0.00    -0.388 N 
ATOM     35  H22 UNL     1      22.166  50.317  36.826  1.00  0.00     0.157 HD
ATOM     36  H21 UNL     1      21.084  49.085  36.143  1.00  0.00     0.157 HD
BRANCH  33  37
HETATM   37  N3  UNL     1      19.599  50.620  34.841  1.00  0.00    -0.383 N 
HETATM   38  C20 UNL     1      19.745  49.611  33.812  1.00  0.00     0.147 C 
ATOM     39  H3  UNL     1      18.697  51.072  34.987  1.00  0.00     0.160 HD
ENDBRANCH  33  37
ENDBRANCH  32  33
ENDBRANCH  30  32
ENDBRANCH   2  28
TORSDOF 15
ENDMDL
MODEL 2
REMARK VINA RESULT: -10.170951676      0.861      1.087
REMARK  15 active torsions:
REMARK  status: ('A' for Active; 'I' for Inactive)
REMARK    1  A    between atoms: C3_3  and  C4_4 
REMARK    2  A    between atoms: C4_4  and  C5_5 
REMARK    3  A    between atoms: C6_6  and  C7_7 
REMARK    4  A    between atoms: C7_7  and  C8_8 
REMARK    5  A    between atoms: C9_9  and  C10_10 
REMARK    6  A    between atoms: C11_11  and  C12_12 
REMARK    7  A    between atoms: C13_13  and  C14_14 
REMARK    8  A    between atoms: C14_14  and  C21_28 
REMARK    9  A    between atoms: C15_15  and  C16_16 
REMARK   10  A    between atoms: N1_18  and  C18_20 
REMARK   11  A    between atoms: C18_20  and  C19_21 
REMARK   12  A    between atoms: C19_21  and  N3_25 
REMARK   13  A    between atoms: C23_30  and  O1_31 
REMARK   14  A    between atoms: C25_34  and  O2_35 
REMARK   15  A    between atoms: C26_37  and  O3_38 
ROOT
HETATM    1  C14 UNL     1      17.093  54.354  36.665  1.00  0.00    -0.021 C 
HETATM    2  C15 UNL     1      18.362  54.753  36.553  1.00  0.00     0.036 C 
ENDROOT
BRANCH   1   3
HETATM    3  C13 UNL     1      16.102  55.295  36.204  1.00  0.00     0.012 C 
HETATM    4  C12 UNL     1      15.534  56.286  36.773  1.00  0.00     0.001 C 
BRANCH   4   5
HETATM    5  C11 UNL     1      15.617  56.904  38.066  1.00  0.00     0.000 C 
HETATM    6  C10 UNL     1      14.574  57.143  38.813  1.00  0.00    -0.000 C 
BRANCH   6   7
HETATM    7  C9  UNL     1      13.232  56.831  38.460  1.00  0.00    -0.004 C 
HETATM    8  C8  UNL     1      12.496  57.619  37.711  1.00  0.00    -0.023 C 
BRANCH   8   9
HETATM    9  C7  UNL     1      12.918  58.885  37.143  1.00  0.00     0.054 C 
BRANCH   9  10
HETATM   10  C6  UNL     1      11.867  59.901  37.559  1.00  0.00    -0.027 C 
HETATM   11  C5  UNL     1      11.772  60.227  38.820  1.00  0.00    -0.027 C 
BRANCH  11  12
HETATM   12  C4  UNL     1      10.772  61.213  39.321  1.00  0.00     0.053 C 
BRANCH  12  13
HETATM   13  C3  UNL     1       9.889  61.689  38.238  1.00  0.00    -0.027 C 
HETATM   14  C2  UNL     1       8.790  61.023  37.952  1.00  0.00    -0.035 C 
HETATM   15  C1  UNL     1       8.416  59.781  38.710  1.00  0.00     0.036 C 
ENDBRANCH  12  13
ENDBRANCH  11  12
ENDBRANCH   9  10
ENDBRANCH   8   9
ENDBRANCH   6   7
ENDBRANCH   4   5
ENDBRANCH   1   3
BRANCH   1  16
HETATM   16  C21 UNL     1      16.726  53.078  37.222  1.00  0.00     0.013 A 
HETATM   17  C22 UNL     1      16.231  52.931  38.515  1.00  0.00     0.051 A 
HETATM   18  C23 UNL     1      15.970  51.708  39.057  1.00  0.00     0.069 A 
HETATM   19  C24 UNL     1      16.203  50.585  38.306  1.00  0.00     0.076 A 
HETATM   20  C25 UNL     1      16.700  50.698  37.008  1.00  0.00     0.102 A 
HETATM   21  C26 UNL     1      16.966  51.932  36.454  1.00  0.00     0.110 A 
BRANCH  18  22
HETATM   22  O1  UNL     1      15.476  51.655  40.356  1.00  0.00    -0.361 OA
ATOM     23  H1  UNL     1      14.536  51.591  40.477  1.00  0.00     0.217 HD
ENDBRANCH  18  22
BRANCH  20  24
HETATM   24  O2  UNL     1      16.915  49.525  36.299  1.00  0.00    -0.358 OA
ATOM     25  H2  UNL     1      16.711  48.705  36.734  1.00  0.00     0.217 HD
ENDBRANCH  20  24
BRANCH  21  26
HETATM   26  O3  UNL     1      17.460  52.039  35.166  1.00  0.00    -0.357 OA
ATOM     27  H3  UNL     1      18.052  51.382  34.820  1.00  0.00     0.217 HD
ENDBRANCH  21  26
ENDBRANCH   1  16
BRANCH   2  28
HETATM   28  C16 UNL     1      19.591  54.134  36.882  1.00  0.00     0.002 C 
HETATM   29  C17 UNL     1      20.447  54.228  38.065  1.00  0.00     0.068 C 
HETATM   30  N1  UNL     1      20.052  53.299  35.949  1.00  0.00    -0.386 N 
ATOM     31  H1  UNL     1      19.507  53.169  35.097  1.00  0.00     0.159 HD
BRANCH  30  32
HETATM   32  C18 UNL     1      21.265  52.586  36.094  1.00  0.00     0.195 C 
BRANCH  32  33
HETATM   33  C19 UNL     1      21.292  51.377  35.235  1.00  0.00     0.088 C 
HETATM   34  N2  UNL     1      22.388  51.017  34.681  1.00  0.00    -0.388 N 
ATOM     35  H22 UNL     1      23.232  51.568  34.840  1.00  0.00     0.157 HD
ATOM     36  H21 UNL     1      22.406  50.186  34.091  1.00  0.00     0.157 HD
BRANCH  33  37
HETATM   37  N3  UNL     1      20.121  50.612  35.014  1.00  0.00    -0.383 N 
HETATM   38  C20 UNL     1      20.033  49.738  33.862  1.00  0.00     0.147 C 
ATOM     39  H3  UNL     1      19.340  50.675  35.667  1.00  0.00     0.160 HD
ENDBRANCH  33  37
ENDBRANCH  32  33
ENDBRANCH  30  32
ENDBRANCH   2  28
TORSDOF 15
ENDMDL
MODEL 3
REMARK VINA RESULT: -9.687170644      0.832      1.372
REMARK  15 active torsions:
REMARK  status: ('A' for Active; 'I' for Inactive)
REMARK    1  A    between atoms: C3_3  and  C4_4 
REMARK    2  A    between atoms: C4_4  and  C5_5 
REMARK    3  A    between atoms: C6_6  and  C7_7 
REMARK    4  A    between atoms: C7_7  and  C8_8 
REMARK    5  A    between atoms: C9_9  and  C10_10 
REMARK    6  A    between atoms: C11_11  and  C12_12 
REMARK    7  A    between atoms: C13_13  and  C14_14 
REMARK    8  A    between atoms: C14_14  and  C21_28 
REMARK    9  A    between atoms: C15_15  and  C16_16 
REMARK   10  A    between atoms: N1_18  and  C18_20 
REMARK   11  A    between atoms: C18_20  and  C19_21 
REMARK   12  A    between atoms: C19_21  and  N3_25 
REMARK   13  A    between atoms: C23_30  and  O1_31 
REMARK   14  A    between atoms: C25_34  and  O2_35 
REMARK   15  A    between atoms: C26_37  and  O3_38 
ROOT
HETATM    1  C14 UNL     1      17.922  54.469  36.322  1.00  0.00    -0.021 C 
HETATM    2  C15 UNL     1      19.246  54.624  36.249  1.00  0.00     0.036 C 
ENDROOT
BRANCH   1   3
HETATM    3  C13 UNL     1      17.138  55.552  35.781  1.00  0.00     0.012 C 
HETATM    4  C12 UNL     1      15.940  55.933  36.002  1.00  0.00     0.001 C 
BRANCH   4   5
HETATM    5  C11 UNL     1      14.871  55.494  36.852  1.00  0.00     0.000 C 
HETATM    6  C10 UNL     1      14.716  55.909  38.079  1.00  0.00    -0.000 C 
BRANCH   6   7
HETATM    7  C9  UNL     1      15.566  56.839  38.737  1.00  0.00    -0.004 C 
HETATM    8  C8  UNL     1      15.111  57.758  39.557  1.00  0.00    -0.023 C 
BRANCH   8   9
HETATM    9  C7  UNL     1      13.719  57.965  39.909  1.00  0.00     0.054 C 
BRANCH   9  10
HETATM   10  C6  UNL     1      13.207  59.050  38.976  1.00  0.00    -0.027 C 
HETATM   11  C5  UNL     1      12.323  58.733  38.069  1.00  0.00    -0.027 C 
BRANCH  11  12
HETATM   12  C4  UNL     1      11.764  59.730  37.110  1.00  0.00     0.053 C 
BRANCH  12  13
HETATM   13  C3  UNL     1      10.288  59.717  37.112  1.00  0.00    -0.027 C 
HETATM   14  C2  UNL     1       9.629  60.590  37.845  1.00  0.00    -0.035 C 
HETATM   15  C1  UNL     1      10.355  61.603  38.683  1.00  0.00     0.036 C 
ENDBRANCH  12  13
ENDBRANCH  11  12
ENDBRANCH   9  10
ENDBRANCH   8   9
ENDBRANCH   6   7
ENDBRANCH   4   5
ENDBRANCH   1   3
BRANCH   1  16
HETATM   16  C21 UNL     1      17.307  53.308  36.911  1.00  0.00     0.013 A 
HETATM   17  C22 UNL     1      16.846  53.281  38.224  1.00  0.00     0.051 A 
HETATM   18  C23 UNL     1      16.345  52.148  38.793  1.00  0.00     0.069 A 
HETATM   19  C24 UNL     1      16.294  50.997  38.050  1.00  0.00     0.076 A 
HETATM   20  C25 UNL     1      16.750  50.991  36.732  1.00  0.00     0.102 A 
HETATM   21  C26 UNL     1      17.257  52.134  36.150  1.00  0.00     0.110 A 
BRANCH  18  22
HETATM   22  O1  UNL     1      15.906  52.212  40.111  1.00  0.00    -0.361 OA
ATOM     23  H1  UNL     1      15.501  51.440  40.489  1.00  0.00     0.217 HD
ENDBRANCH  18  22
BRANCH  20  24
HETATM   24  O2  UNL     1      16.672  49.795  36.032  1.00  0.00    -0.358 OA
ATOM     25  H2  UNL     1      16.720  48.990  36.533  1.00  0.00     0.217 HD
ENDBRANCH  20  24
BRANCH  21  26
HETATM   26  O3  UNL     1      17.708  52.122  34.843  1.00  0.00    -0.357 OA
ATOM     27  H3  UNL     1      17.108  51.952  34.126  1.00  0.00     0.217 HD
ENDBRANCH  21  26
ENDBRANCH   1  16
BRANCH   2  28
HETATM   28  C16 UNL     1      20.328  53.808  36.655  1.00  0.00     0.002 C 
HETATM   29  C17 UNL     1      21.176  53.830  37.847  1.00  0.00     0.068 C 
HETATM   30  N1  UNL     1      20.625  52.826  35.802  1.00  0.00    -0.386 N 
ATOM     31  H1  UNL     1      20.072  52.736  34.949  1.00  0.00     0.159 HD
BRANCH  30  32
HETATM   32  C18 UNL     1      21.674  51.905  36.031  1.00  0.00     0.195 C 
BRANCH  32  33
HETATM   33  C19 UNL     1      21.188  50.504  35.989  1.00  0.00     0.088 C 
HETATM   34  N2  UNL     1      21.888  49.575  36.521  1.00  0.00    -0.388 N 
ATOM     35  H22 UNL     1      22.774  49.811  36.969  1.00  0.00     0.157 HD
ATOM     36  H21 UNL     1      21.554  48.612  36.493  1.00  0.00     0.157 HD
BRANCH  33  37
HETATM   37  N3  UNL     1      19.959  50.176  35.367  1.00  0.00    -0.383 N 
HETATM   38  C20 UNL     1      19.949  49.633  34.024  1.00  0.00     0.147 C 
ATOM     39  H3  UNL     1      19.081  50.322  35.865  1.00  0.00     0.160 HD
ENDBRANCH  33  37
ENDBRANCH  32  33
ENDBRANCH  30  32
ENDBRANCH   2  28
TORSDOF 15
ENDMDL
MODEL 4
REMARK VINA RESULT: -9.424553633      1.720      3.053
REMARK  15 active torsions:
REMARK  status: ('A' for Active; 'I' for Inactive)
REMARK    1  A    between atoms: C3_3  and  C4_4 
REMARK    2  A    between atoms: C4_4  and  C5_5 
REMARK    3  A    between atoms: C6_6  and  C7_7 
REMARK    4  A    between atoms: C7_7  and  C8_8 
REMARK    5  A    between atoms: C9_9  and  C10_10 
REMARK    6  A    between atoms: C11_11  and  C12_12 
REMARK    7  A    between atoms: C13_13  and  C14_14 
REMARK    8  A    between atoms: C14_14  and  C21_28 
REMARK    9  A    between atoms: C15_15  and  C16_16 
REMARK   10  A    between atoms: N1_18  and  C18_20 
REMARK   11  A    between atoms: C18_20  and  C19_21 
REMARK   12  A    between atoms: C19_21  and  N3_25 
REMARK   13  A    between atoms: C23_30  and  O1_31 
REMARK   14  A    between atoms: C25_34  and  O2_35 
REMARK   15  A    between atoms: C26_37  and  O3_38 
ROOT
HETATM    1  C14 UNL     1      19.892  53.628  36.855  1.00  0.00    -0.021 C 
HETATM    2  C15 UNL     1      21.137  53.253  36.555  1.00  0.00     0.036 C 
ENDROOT
BRANCH   1   3
HETATM    3  C13 UNL     1      19.674  55.051  36.941  1.00  0.00     0.012 C 
HETATM    4  C12 UNL     1      18.774  55.809  36.444  1.00  0.00     0.001 C 
BRANCH   4   5
HETATM    5  C11 UNL     1      17.616  55.611  35.621  1.00  0.00     0.000 C 
HETATM    6  C10 UNL     1      16.395  55.689  36.074  1.00  0.00    -0.000 C 
BRANCH   6   7
HETATM    7  C9  UNL     1      16.043  55.975  37.423  1.00  0.00    -0.004 C 
HETATM    8  C8  UNL     1      14.881  56.482  37.758  1.00  0.00    -0.023 C 
BRANCH   8   9
HETATM    9  C7  UNL     1      13.807  56.821  36.844  1.00  0.00     0.054 C 
BRANCH   9  10
HETATM   10  C6  UNL     1      12.686  57.381  37.703  1.00  0.00    -0.027 C 
HETATM   11  C5  UNL     1      12.118  58.501  37.345  1.00  0.00    -0.027 C 
BRANCH  11  12
HETATM   12  C4  UNL     1      11.011  59.126  38.125  1.00  0.00     0.053 C 
BRANCH  12  13
HETATM   13  C3  UNL     1      11.518  60.142  39.068  1.00  0.00    -0.027 C 
HETATM   14  C2  UNL     1      10.960  61.335  39.106  1.00  0.00    -0.035 C 
HETATM   15  C1  UNL     1       9.812  61.681  38.201  1.00  0.00     0.036 C 
ENDBRANCH  12  13
ENDBRANCH  11  12
ENDBRANCH   9  10
ENDBRANCH   8   9
ENDBRANCH   6   7
ENDBRANCH   4   5
ENDBRANCH   1   3
BRANCH   1  16
HETATM   16  C21 UNL     1      18.833  52.682  37.095  1.00  0.00     0.013 A 
HETATM   17  C22 UNL     1      18.519  51.658  36.206  1.00  0.00     0.051 A 
HETATM   18  C23 UNL     1      17.458  50.824  36.405  1.00  0.00     0.069 A 
HETATM   19  C24 UNL     1      16.675  51.000  37.516  1.00  0.00     0.076 A 
HETATM   20  C25 UNL     1      16.962  52.018  38.425  1.00  0.00     0.102 A 
HETATM   21  C26 UNL     1      18.033  52.864  38.229  1.00  0.00     0.110 A 
BRANCH  18  22
HETATM   22  O1  UNL     1      17.219  49.828  35.465  1.00  0.00    -0.361 OA
ATOM     23  H1  UNL     1      16.903  50.086  34.607  1.00  0.00     0.217 HD
ENDBRANCH  18  22
BRANCH  20  24
HETATM   24  O2  UNL     1      16.131  52.144  39.529  1.00  0.00    -0.358 OA
ATOM     25  H2  UNL     1      15.458  52.814  39.498  1.00  0.00     0.217 HD
ENDBRANCH  20  24
BRANCH  21  26
HETATM   26  O3  UNL     1      18.313  53.873  39.134  1.00  0.00    -0.357 OA
ATOM     27  H3  UNL     1      17.658  54.154  39.762  1.00  0.00     0.217 HD
ENDBRANCH  21  26
ENDBRANCH   1  16
BRANCH   2  28
HETATM   28  C16 UNL     1      21.738  51.984  36.380  1.00  0.00     0.002 C 
HETATM   29  C17 UNL     1      22.275  51.017  37.338  1.00  0.00     0.068 C 
HETATM   30  N1  UNL     1      21.820  51.585  35.110  1.00  0.00    -0.386 N 
ATOM     31  H1  UNL     1      21.458  52.199  34.381  1.00  0.00     0.159 HD
BRANCH  30  32
HETATM   32  C18 UNL     1      22.390  50.346  34.733  1.00  0.00     0.195 C 
BRANCH  32  33
HETATM   33  C19 UNL     1      21.466  49.560  33.879  1.00  0.00     0.088 C 
HETATM   34  N2  UNL     1      20.346  49.164  34.355  1.00  0.00    -0.388 N 
ATOM     35  H22 UNL     1      20.103  49.396  35.319  1.00  0.00     0.157 HD
ATOM     36  H21 UNL     1      19.711  48.624  33.768  1.00  0.00     0.157 HD
BRANCH  33  37
HETATM   37  N3  UNL     1      21.803  49.238  32.542  1.00  0.00    -0.383 N 
HETATM   38  C20 UNL     1      23.015  49.768  31.953  1.00  0.00     0.147 C 
ATOM     39  H3  UNL     1      21.192  48.633  31.994  1.00  0.00     0.160 HD
ENDBRANCH  33  37
ENDBRANCH  32  33
ENDBRANCH  30  32
ENDBRANCH   2  28
TORSDOF 15
ENDMDL
MODEL 5
REMARK VINA RESULT: -9.421371345      1.055      1.995
REMARK  15 active torsions:
REMARK  status: ('A' for Active; 'I' for Inactive)
REMARK    1  A    between atoms: C3_3  and  C4_4 
REMARK    2  A    between atoms: C4_4  and  C5_5 
REMARK    3  A    between atoms: C6_6  and  C7_7 
REMARK    4  A    between atoms: C7_7  and  C8_8 
REMARK    5  A    between atoms: C9_9  and  C10_10 
REMARK    6  A    between atoms: C11_11  and  C12_12 
REMARK    7  A    between atoms: C13_13  and  C14_14 
REMARK    8  A    between atoms: C14_14  and  C21_28 
REMARK    9  A    between atoms: C15_15  and  C16_16 
REMARK   10  A    between atoms: N1_18  and  C18_20 
REMARK   11  A    between atoms: C18_20  and  C19_21 
REMARK   12  A    between atoms: C19_21  and  N3_25 
REMARK   13  A    between atoms: C23_30  and  O1_31 
REMARK   14  A    between atoms: C25_34  and  O2_35 
REMARK   15  A    between atoms: C26_37  and  O3_38 
ROOT
HETATM    1  C14 UNL     1      17.128  54.057  36.614  1.00  0.00    -0.021 C 
HETATM    2  C15 UNL     1      18.369  54.527  36.475  1.00  0.00     0.036 C 
ENDROOT
BRANCH   1   3
HETATM    3  C13 UNL     1      16.078  54.918  36.128  1.00  0.00     0.012 C 
HETATM    4  C12 UNL     1      15.587  56.006  36.581  1.00  0.00     0.001 C 
BRANCH   4   5
HETATM    5  C11 UNL     1      15.841  56.843  37.717  1.00  0.00     0.000 C 
HETATM    6  C10 UNL     1      14.921  57.179  38.579  1.00  0.00    -0.000 C 
BRANCH   6   7
HETATM    7  C9  UNL     1      13.560  56.771  38.517  1.00  0.00    -0.004 C 
HETATM    8  C8  UNL     1      12.653  57.433  37.838  1.00  0.00    -0.023 C 
BRANCH   8   9
HETATM    9  C7  UNL     1      12.884  58.641  37.070  1.00  0.00     0.054 C 
BRANCH   9  10
HETATM   10  C6  UNL     1      11.843  59.643  37.542  1.00  0.00    -0.027 C 
HETATM   11  C5  UNL     1      11.845  60.008  38.796  1.00  0.00    -0.027 C 
BRANCH  11  12
HETATM   12  C4  UNL     1      10.863  60.985  39.350  1.00  0.00     0.053 C 
BRANCH  12  13
HETATM   13  C3  UNL     1      10.066  61.619  38.281  1.00  0.00    -0.027 C 
HETATM   14  C2  UNL     1       8.886  61.126  37.966  1.00  0.00    -0.035 C 
HETATM   15  C1  UNL     1       8.333  59.924  38.679  1.00  0.00     0.036 C 
ENDBRANCH  12  13
ENDBRANCH  11  12
ENDBRANCH   9  10
ENDBRANCH   8   9
ENDBRANCH   6   7
ENDBRANCH   4   5
ENDBRANCH   1   3
BRANCH   1  16
HETATM   16  C21 UNL     1      16.843  52.782  37.220  1.00  0.00     0.013 A 
HETATM   17  C22 UNL     1      16.981  51.574  36.541  1.00  0.00     0.051 A 
HETATM   18  C23 UNL     1      16.626  50.383  37.101  1.00  0.00     0.069 A 
HETATM   19  C24 UNL     1      16.115  50.372  38.373  1.00  0.00     0.076 A 
HETATM   20  C25 UNL     1      15.964  51.565  39.079  1.00  0.00     0.102 A 
HETATM   21  C26 UNL     1      16.321  52.773  38.519  1.00  0.00     0.110 A 
BRANCH  18  22
HETATM   22  O1  UNL     1      16.798  49.226  36.350  1.00  0.00    -0.361 OA
ATOM     23  H1  UNL     1      17.516  49.196  35.727  1.00  0.00     0.217 HD
ENDBRANCH  18  22
BRANCH  20  24
HETATM   24  O2  UNL     1      15.441  51.488  40.363  1.00  0.00    -0.358 OA
ATOM     25  H2  UNL     1      16.035  51.248  41.065  1.00  0.00     0.217 HD
ENDBRANCH  20  24
BRANCH  21  26
HETATM   26  O3  UNL     1      16.168  53.954  39.224  1.00  0.00    -0.357 OA
ATOM     27  H3  UNL     1      15.442  54.066  39.827  1.00  0.00     0.217 HD
ENDBRANCH  21  26
ENDBRANCH   1  16
BRANCH   2  28
HETATM   28  C16 UNL     1      19.636  53.996  36.815  1.00  0.00     0.002 C 
HETATM   29  C17 UNL     1      20.541  54.265  37.933  1.00  0.00     0.068 C 
HETATM   30  N1  UNL     1      20.087  53.069  35.968  1.00  0.00    -0.386 N 
ATOM     31  H1  UNL     1      19.510  52.816  35.167  1.00  0.00     0.159 HD
BRANCH  30  32
HETATM   32  C18 UNL     1      21.334  52.421  36.137  1.00  0.00     0.195 C 
BRANCH  32  33
HETATM   33  C19 UNL     1      21.409  51.169  35.346  1.00  0.00     0.088 C 
HETATM   34  N2  UNL     1      22.403  50.971  34.565  1.00  0.00    -0.388 N 
ATOM     35  H22 UNL     1      23.133  51.680  34.498  1.00  0.00     0.157 HD
ATOM     36  H21 UNL     1      22.454  50.110  34.021  1.00  0.00     0.157 HD
BRANCH  33  37
HETATM   37  N3  UNL     1      20.395  50.185  35.439  1.00  0.00    -0.383 N 
HETATM   38  C20 UNL     1      19.703  49.742  34.246  1.00  0.00     0.147 C 
ATOM     39  H3  UNL     1      20.152  49.788  36.346  1.00  0.00     0.160 HD
ENDBRANCH  33  37
ENDBRANCH  32  33
ENDBRANCH  30  32
ENDBRANCH   2  28
TORSDOF 15
ENDMDL
