MODEL 1
REMARK VINA RESULT: -5.842274259      0.000      0.000
REMARK  5 active torsions:
REMARK  status: ('A' for Active; 'I' for Inactive)
REMARK    1  A    between atoms: N1_5  and  C5_6 
REMARK    2  A    between atoms: C5_6  and  C6_7 
REMARK    3  A    between atoms: C6_7  and  C7_8 
REMARK    4  A    between atoms: N2_12  and  C9_13 
REMARK    5  A    between atoms: C9_13  and  C10_14 
ROOT
HETATM    1  C1  UNL     1      14.000 -15.365  21.382  1.00  0.00     0.037 C 
HETATM    2  C2  UNL     1      13.593 -13.997  20.866  1.00  0.00     0.059 C 
HETATM    3  C3  UNL     1      12.452 -14.211  19.891  1.00  0.00     0.037 C 
HETATM    4  C4  UNL     1      14.773 -13.373  20.191  1.00  0.00     0.153 C 
HETATM    5  N1  UNL     1      14.882 -11.965  20.365  1.00  0.00    -0.355 N 
HETATM    6  C8  UNL     1      13.840 -11.220  21.008  1.00  0.00     0.188 C 
HETATM    7  S1  UNL     1      13.781  -9.587  21.002  1.00  0.00    -0.039 SA
HETATM    8  N2  UNL     1      12.796 -11.938  21.692  1.00  0.00    -0.260 N 
HETATM    9  N3  UNL     1      13.078 -13.258  21.988  1.00  0.00    -0.125 NA
ENDROOT
BRANCH   5  10
HETATM   10  C5  UNL     1      16.052 -11.258  19.894  1.00  0.00     0.126 C 
BRANCH  10  11
HETATM   11  C6  UNL     1      17.238 -12.174  19.720  1.00  0.00     0.031 C 
BRANCH  11  12
HETATM   12  C7  UNL     1      18.382 -11.663  20.578  1.00  0.00     0.086 C 
HETATM   13 BR1  UNL     1      20.084 -12.078  19.736  1.00  0.00    -0.096 Br
ENDBRANCH  11  12
ENDBRANCH  10  11
ENDBRANCH   5  10
BRANCH   8  14
HETATM   14  C9  UNL     1      11.572 -11.235  22.001  1.00  0.00     0.260 C 
BRANCH  14  15
HETATM   15  C10 UNL     1      11.341 -11.034  23.433  1.00  0.00     0.193 C 
HETATM   16  O1  UNL     1      10.651 -11.858  24.068  1.00  0.00    -0.647 OA
HETATM   17  O2  UNL     1      11.878  -9.951  24.082  1.00  0.00    -0.647 OA
ENDBRANCH  14  15
ENDBRANCH   8  14
TORSDOF 5
ENDMDL
MODEL 2
REMARK VINA RESULT: -5.626893993      3.384      4.823
REMARK  5 active torsions:
REMARK  status: ('A' for Active; 'I' for Inactive)
REMARK    1  A    between atoms: N1_5  and  C5_6 
REMARK    2  A    between atoms: C5_6  and  C6_7 
REMARK    3  A    between atoms: C6_7  and  C7_8 
REMARK    4  A    between atoms: N2_12  and  C9_13 
REMARK    5  A    between atoms: C9_13  and  C10_14 
ROOT
HETATM    1  C1  UNL     1      16.131 -11.971  16.923  1.00  0.00     0.037 C 
HETATM    2  C2  UNL     1      15.737 -12.276  18.356  1.00  0.00     0.059 C 
HETATM    3  C3  UNL     1      16.941 -11.970  19.224  1.00  0.00     0.037 C 
HETATM    4  C4  UNL     1      15.357 -13.721  18.447  1.00  0.00     0.153 C 
HETATM    5  N1  UNL     1      14.288 -13.999  19.343  1.00  0.00    -0.355 N 
HETATM    6  C8  UNL     1      13.750 -12.974  20.190  1.00  0.00     0.188 C 
HETATM    7  S1  UNL     1      12.716 -13.286  21.416  1.00  0.00    -0.039 SA
HETATM    8  N2  UNL     1      14.136 -11.607  19.953  1.00  0.00    -0.260 N 
HETATM    9  N3  UNL     1      14.692 -11.353  18.713  1.00  0.00    -0.125 NA
ENDROOT
BRANCH   5  10
HETATM   10  C5  UNL     1      13.721 -15.328  19.416  1.00  0.00     0.126 C 
BRANCH  10  11
HETATM   11  C6  UNL     1      14.105 -16.175  18.229  1.00  0.00     0.031 C 
BRANCH  11  12
HETATM   12  C7  UNL     1      12.903 -17.000  17.805  1.00  0.00     0.086 C 
HETATM   13 BR1  UNL     1      11.306 -16.372  18.718  1.00  0.00    -0.096 Br
ENDBRANCH  11  12
ENDBRANCH  10  11
ENDBRANCH   5  10
BRANCH   8  14
HETATM   14  C9  UNL     1      13.917 -10.642  21.005  1.00  0.00     0.260 C 
BRANCH  14  15
HETATM   15  C10 UNL     1      12.831  -9.697  20.734  1.00  0.00     0.193 C 
HETATM   16  O1  UNL     1      12.954  -8.866  19.811  1.00  0.00    -0.647 OA
HETATM   17  O2  UNL     1      11.682  -9.718  21.483  1.00  0.00    -0.647 OA
ENDBRANCH  14  15
ENDBRANCH   8  14
TORSDOF 5
ENDMDL
MODEL 3
REMARK VINA RESULT: -5.488526909      3.199      4.678
REMARK  5 active torsions:
REMARK  status: ('A' for Active; 'I' for Inactive)
REMARK    1  A    between atoms: N1_5  and  C5_6 
REMARK    2  A    between atoms: C5_6  and  C6_7 
REMARK    3  A    between atoms: C6_7  and  C7_8 
REMARK    4  A    between atoms: N2_12  and  C9_13 
REMARK    5  A    between atoms: C9_13  and  C10_14 
ROOT
HETATM    1  C1  UNL     1      16.271 -11.892  16.962  1.00  0.00     0.037 C 
HETATM    2  C2  UNL     1      15.805 -12.222  18.368  1.00  0.00     0.059 C 
HETATM    3  C3  UNL     1      16.978 -11.973  19.295  1.00  0.00     0.037 C 
HETATM    4  C4  UNL     1      15.381 -13.657  18.404  1.00  0.00     0.153 C 
HETATM    5  N1  UNL     1      14.266 -13.926  19.245  1.00  0.00    -0.355 N 
HETATM    6  C8  UNL     1      13.720 -12.908  20.094  1.00  0.00     0.188 C 
HETATM    7  S1  UNL     1      12.625 -13.220  21.266  1.00  0.00    -0.039 SA
HETATM    8  N2  UNL     1      14.155 -11.547  19.911  1.00  0.00    -0.260 N 
HETATM    9  N3  UNL     1      14.772 -11.278  18.704  1.00  0.00    -0.125 NA
ENDROOT
BRANCH   5  10
HETATM   10  C5  UNL     1      13.659 -15.239  19.258  1.00  0.00     0.126 C 
BRANCH  10  11
HETATM   11  C6  UNL     1      14.532 -16.261  19.941  1.00  0.00     0.031 C 
BRANCH  11  12
HETATM   12  C7  UNL     1      13.754 -16.884  21.086  1.00  0.00     0.086 C 
HETATM   13 BR1  UNL     1      11.870 -17.010  20.625  1.00  0.00    -0.096 Br
ENDBRANCH  11  12
ENDBRANCH  10  11
ENDBRANCH   5  10
BRANCH   8  14
HETATM   14  C9  UNL     1      13.916 -10.603  20.978  1.00  0.00     0.260 C 
BRANCH  14  15
HETATM   15  C10 UNL     1      12.812  -9.675  20.721  1.00  0.00     0.193 C 
HETATM   16  O1  UNL     1      12.894  -8.868  19.772  1.00  0.00    -0.647 OA
HETATM   17  O2  UNL     1      11.690  -9.687  21.511  1.00  0.00    -0.647 OA
ENDBRANCH  14  15
ENDBRANCH   8  14
TORSDOF 5
ENDMDL
MODEL 4
REMARK VINA RESULT: -5.479470434      2.571      4.155
REMARK  5 active torsions:
REMARK  status: ('A' for Active; 'I' for Inactive)
REMARK    1  A    between atoms: N1_5  and  C5_6 
REMARK    2  A    between atoms: C5_6  and  C6_7 
REMARK    3  A    between atoms: C6_7  and  C7_8 
REMARK    4  A    between atoms: N2_12  and  C9_13 
REMARK    5  A    between atoms: C9_13  and  C10_14 
ROOT
HETATM    1  C1  UNL     1      16.273 -11.800  16.887  1.00  0.00     0.037 C 
HETATM    2  C2  UNL     1      15.838 -12.189  18.288  1.00  0.00     0.059 C 
HETATM    3  C3  UNL     1      17.013 -11.923  19.208  1.00  0.00     0.037 C 
HETATM    4  C4  UNL     1      15.468 -13.639  18.286  1.00  0.00     0.153 C 
HETATM    5  N1  UNL     1      14.375 -13.974  19.132  1.00  0.00    -0.355 N 
HETATM    6  C8  UNL     1      13.803 -13.003  20.018  1.00  0.00     0.188 C 
HETATM    7  S1  UNL     1      12.736 -13.391  21.192  1.00  0.00    -0.039 SA
HETATM    8  N2  UNL     1      14.184 -11.622  19.870  1.00  0.00    -0.260 N 
HETATM    9  N3  UNL     1      14.775 -11.295  18.664  1.00  0.00    -0.125 NA
ENDROOT
BRANCH   5  10
HETATM   10  C5  UNL     1      13.818 -15.309  19.112  1.00  0.00     0.126 C 
BRANCH  10  11
HETATM   11  C6  UNL     1      14.866 -16.366  19.353  1.00  0.00     0.031 C 
BRANCH  11  12
HETATM   12  C7  UNL     1      15.164 -16.432  20.841  1.00  0.00     0.086 C 
HETATM   13 BR1  UNL     1      16.913 -15.668  21.207  1.00  0.00    -0.096 Br
ENDBRANCH  11  12
ENDBRANCH  10  11
ENDBRANCH   5  10
BRANCH   8  14
HETATM   14  C9  UNL     1      13.924 -10.720  20.968  1.00  0.00     0.260 C 
BRANCH  14  15
HETATM   15  C10 UNL     1      12.852  -9.756  20.710  1.00  0.00     0.193 C 
HETATM   16  O1  UNL     1      12.983  -8.919  19.793  1.00  0.00    -0.647 OA
HETATM   17  O2  UNL     1      11.707  -9.766  21.465  1.00  0.00    -0.647 OA
ENDBRANCH  14  15
ENDBRANCH   8  14
TORSDOF 5
ENDMDL
MODEL 5
REMARK VINA RESULT: -5.440025876      4.009      5.638
REMARK  5 active torsions:
REMARK  status: ('A' for Active; 'I' for Inactive)
REMARK    1  A    between atoms: N1_5  and  C5_6 
REMARK    2  A    between atoms: C5_6  and  C6_7 
REMARK    3  A    between atoms: C6_7  and  C7_8 
REMARK    4  A    between atoms: N2_12  and  C9_13 
REMARK    5  A    between atoms: C9_13  and  C10_14 
ROOT
HETATM    1  C1  UNL     1      11.862 -11.288  22.081  1.00  0.00     0.037 C 
HETATM    2  C2  UNL     1      12.962 -11.873  21.214  1.00  0.00     0.059 C 
HETATM    3  C3  UNL     1      13.260 -10.857  20.130  1.00  0.00     0.037 C 
HETATM    4  C4  UNL     1      12.472 -13.160  20.630  1.00  0.00     0.153 C 
HETATM    5  N1  UNL     1      13.465 -14.172  20.505  1.00  0.00    -0.355 N 
HETATM    6  C8  UNL     1      14.843 -13.890  20.779  1.00  0.00     0.188 C 
HETATM    7  S1  UNL     1      16.054 -14.920  20.402  1.00  0.00    -0.039 SA
HETATM    8  N2  UNL     1      15.181 -12.643  21.415  1.00  0.00    -0.260 N 
HETATM    9  N3  UNL     1      14.134 -11.991  22.040  1.00  0.00    -0.125 NA
ENDROOT
BRANCH   5  10
HETATM   10  C5  UNL     1      13.098 -15.510  20.097  1.00  0.00     0.126 C 
BRANCH  10  11
HETATM   11  C6  UNL     1      12.545 -16.322  21.242  1.00  0.00     0.031 C 
BRANCH  11  12
HETATM   12  C7  UNL     1      11.446 -17.228  20.715  1.00  0.00     0.086 C 
HETATM   13 BR1  UNL     1      11.012 -16.755  18.881  1.00  0.00    -0.096 Br
ENDBRANCH  11  12
ENDBRANCH  10  11
ENDBRANCH   5  10
BRANCH   8  14
HETATM   14  C9  UNL     1      16.551 -12.189  21.347  1.00  0.00     0.260 C 
BRANCH  14  15
HETATM   15  C10 UNL     1      16.915 -11.572  20.069  1.00  0.00     0.193 C 
HETATM   16  O1  UNL     1      16.315 -10.546  19.688  1.00  0.00    -0.647 OA
HETATM   17  O2  UNL     1      17.908 -12.110  19.291  1.00  0.00    -0.647 OA
ENDBRANCH  14  15
ENDBRANCH   8  14
TORSDOF 5
ENDMDL
