MODEL 1
REMARK VINA RESULT: -9.166884998      0.000      0.000
REMARK  2 active torsions:
REMARK  status: ('A' for Active; 'I' for Inactive)
REMARK    1  A    between atoms: C3_5  and  C4_6 
REMARK    2  A    between atoms: C5_16  and  C6_17 
REMARK       I    between atoms: C6_17  and  N6_19 
ROOT
HETATM    1  C1  UNL     1      51.689  -6.961  42.925  1.00  0.00     0.070 C 
HETATM    2  C2  UNL     1      52.291  -8.312  43.259  1.00  0.00     0.029 A 
HETATM    3  N1  UNL     1      51.593  -9.406  43.224  1.00  0.00    -0.350 N 
ATOM      4  H1  UNL     1      50.606  -9.375  42.966  1.00  0.00     0.166 HD
HETATM    5  C3  UNL     1      52.160 -10.557  43.522  1.00  0.00     0.122 A 
HETATM    6  S1  UNL     1      53.760 -10.103  43.875  1.00  0.00    -0.061 SA
HETATM    7  C5  UNL     1      53.614  -8.419  43.615  1.00  0.00     0.097 A 
ENDROOT
BRANCH   7   8
HETATM    8  C6  UNL     1      54.612  -7.343  43.730  1.00  0.00     0.267 C 
HETATM    9  O1  UNL     1      54.938  -6.874  44.842  1.00  0.00    -0.267 OA
HETATM   10  N6  UNL     1      55.218  -6.822  42.563  1.00  0.00    -0.291 N 
HETATM   11  C7  UNL     1      54.940  -5.649  42.101  1.00  0.00     0.218 A 
ATOM     12  H6  UNL     1      55.901  -7.394  42.068  1.00  0.00     0.172 HD
HETATM   13  N7  UNL     1      54.102  -4.548  42.426  1.00  0.00    -0.255 N 
HETATM   14  N9  UNL     1      55.379  -4.894  40.989  1.00  0.00    -0.255 N 
HETATM   15  N8  UNL     1      54.511  -3.884  41.419  1.00  0.00    -0.237 N 
ATOM     16  H7  UNL     1      53.434  -4.362  43.173  1.00  0.00     0.191 HD
ATOM     17  H8  UNL     1      54.287  -2.957  41.058  1.00  0.00     0.208 HD
ATOM     18  H9  UNL     1      56.035  -5.026  40.219  1.00  0.00     0.191 HD
ENDBRANCH   7   8
BRANCH   5  19
HETATM   19  C4  UNL     1      51.509 -11.864  43.528  1.00  0.00     0.171 A 
HETATM   20  N2  UNL     1      52.040 -13.046  43.899  1.00  0.00    -0.266 N 
HETATM   21  N3  UNL     1      51.106 -13.970  43.748  1.00  0.00    -0.227 N 
ATOM     22  H2  UNL     1      52.991 -13.200  44.236  1.00  0.00     0.190 HD
HETATM   23  N4  UNL     1      49.997 -13.425  43.294  1.00  0.00    -0.227 N 
ATOM     24  H3  UNL     1      51.228 -14.962  43.953  1.00  0.00     0.210 HD
HETATM   25  N5  UNL     1      50.247 -12.135  43.161  1.00  0.00    -0.266 N 
ATOM     26  H4  UNL     1      49.120 -13.904  43.087  1.00  0.00     0.210 HD
ATOM     27  H5  UNL     1      49.576 -11.444  42.826  1.00  0.00     0.190 HD
ENDBRANCH   5  19
TORSDOF 2
ENDMDL
MODEL 2
REMARK VINA RESULT: -9.113050201      3.572      8.048
REMARK  2 active torsions:
REMARK  status: ('A' for Active; 'I' for Inactive)
REMARK    1  A    between atoms: C3_5  and  C4_6 
REMARK    2  A    between atoms: C5_16  and  C6_17 
REMARK       I    between atoms: C6_17  and  N6_19 
ROOT
HETATM    1  C1  UNL     1      50.998  -4.203  41.730  1.00  0.00     0.070 C 
HETATM    2  C2  UNL     1      52.414  -4.113  42.264  1.00  0.00     0.029 A 
HETATM    3  N1  UNL     1      53.056  -2.986  42.329  1.00  0.00    -0.350 N 
ATOM      4  H1  UNL     1      52.609  -2.125  42.014  1.00  0.00     0.166 HD
HETATM    5  C3  UNL     1      54.285  -2.956  42.801  1.00  0.00     0.122 A 
HETATM    6  S1  UNL     1      54.577  -4.587  43.181  1.00  0.00    -0.061 SA
HETATM    7  C5  UNL     1      53.070  -5.238  42.703  1.00  0.00     0.097 A 
ENDROOT
BRANCH   7   8
HETATM    8  C6  UNL     1      52.572  -6.623  42.735  1.00  0.00     0.267 C 
HETATM    9  O1  UNL     1      51.554  -6.933  43.390  1.00  0.00    -0.267 OA
HETATM   10  N6  UNL     1      53.254  -7.630  42.013  1.00  0.00    -0.291 N 
HETATM   11  C7  UNL     1      53.959  -8.543  42.592  1.00  0.00     0.218 A 
ATOM     12  H6  UNL     1      53.186  -7.635  40.996  1.00  0.00     0.172 HD
HETATM   13  N7  UNL     1      54.331  -8.925  43.909  1.00  0.00    -0.255 N 
HETATM   14  N9  UNL     1      54.726  -9.640  42.136  1.00  0.00    -0.255 N 
HETATM   15  N8  UNL     1      55.016  -9.908  43.478  1.00  0.00    -0.237 N 
ATOM     16  H7  UNL     1      54.128  -8.556  44.838  1.00  0.00     0.191 HD
ATOM     17  H8  UNL     1      55.572 -10.626  43.941  1.00  0.00     0.208 HD
ATOM     18  H9  UNL     1      54.961 -10.051  41.233  1.00  0.00     0.191 HD
ENDBRANCH   7   8
BRANCH   5  19
HETATM   19  C4  UNL     1      55.131  -1.773  42.935  1.00  0.00     0.171 A 
HETATM   20  N2  UNL     1      54.816  -0.498  42.631  1.00  0.00    -0.266 N 
HETATM   21  N3  UNL     1      55.872   0.251  42.905  1.00  0.00    -0.227 N 
ATOM     22  H2  UNL     1      53.926  -0.170  42.257  1.00  0.00     0.190 HD
HETATM   23  N4  UNL     1      56.850  -0.496  43.372  1.00  0.00    -0.227 N 
ATOM     24  H3  UNL     1      55.920   1.261  42.773  1.00  0.00     0.210 HD
HETATM   25  N5  UNL     1      56.393  -1.735  43.390  1.00  0.00    -0.266 N 
ATOM     26  H4  UNL     1      57.776  -0.180  43.662  1.00  0.00     0.210 HD
ATOM     27  H5  UNL     1      56.924  -2.547  43.704  1.00  0.00     0.190 HD
ENDBRANCH   5  19
TORSDOF 2
ENDMDL
MODEL 3
REMARK VINA RESULT: -8.968326553      3.623      8.366
REMARK  2 active torsions:
REMARK  status: ('A' for Active; 'I' for Inactive)
REMARK    1  A    between atoms: C3_5  and  C4_6 
REMARK    2  A    between atoms: C5_16  and  C6_17 
REMARK       I    between atoms: C6_17  and  N6_19 
ROOT
HETATM    1  C1  UNL     1      54.994  -5.887  45.036  1.00  0.00     0.070 C 
HETATM    2  C2  UNL     1      54.714  -4.835  43.981  1.00  0.00     0.029 A 
HETATM    3  N1  UNL     1      55.254  -3.656  44.022  1.00  0.00    -0.350 N 
ATOM      4  H1  UNL     1      55.890  -3.412  44.782  1.00  0.00     0.166 HD
HETATM    5  C3  UNL     1      54.982  -2.775  43.082  1.00  0.00     0.122 A 
HETATM    6  S1  UNL     1      53.909  -3.626  42.075  1.00  0.00    -0.061 SA
HETATM    7  C5  UNL     1      53.866  -5.104  42.932  1.00  0.00     0.097 A 
ENDROOT
BRANCH   7   8
HETATM    8  C6  UNL     1      53.132  -6.350  42.656  1.00  0.00     0.267 C 
HETATM    9  O1  UNL     1      51.979  -6.537  43.098  1.00  0.00    -0.267 OA
HETATM   10  N6  UNL     1      53.739  -7.362  41.877  1.00  0.00    -0.291 N 
HETATM   11  C7  UNL     1      54.161  -8.471  42.386  1.00  0.00     0.218 A 
ATOM     12  H6  UNL     1      53.848  -7.211  40.874  1.00  0.00     0.172 HD
HETATM   13  N7  UNL     1      54.227  -9.102  43.657  1.00  0.00    -0.255 N 
HETATM   14  N9  UNL     1      54.788  -9.625  41.861  1.00  0.00    -0.255 N 
HETATM   15  N8  UNL     1      54.791 -10.133  43.166  1.00  0.00    -0.237 N 
ATOM     16  H7  UNL     1      53.936  -8.834  44.597  1.00  0.00     0.191 HD
ATOM     17  H8  UNL     1      55.123 -11.006  43.573  1.00  0.00     0.208 HD
ATOM     18  H9  UNL     1      55.099  -9.945  40.944  1.00  0.00     0.191 HD
ENDBRANCH   7   8
BRANCH   5  19
HETATM   19  C4  UNL     1      55.509  -1.415  42.994  1.00  0.00     0.171 A 
HETATM   20  N2  UNL     1      54.919  -0.338  42.439  1.00  0.00    -0.266 N 
HETATM   21  N3  UNL     1      55.744   0.686  42.577  1.00  0.00    -0.227 N 
ATOM     22  H2  UNL     1      54.001  -0.317  41.993  1.00  0.00     0.190 HD
HETATM   23  N4  UNL     1      56.840   0.306  43.199  1.00  0.00    -0.227 N 
ATOM     24  H3  UNL     1      55.557   1.634  42.248  1.00  0.00     0.210 HD
HETATM   25  N5  UNL     1      56.693  -0.982  43.453  1.00  0.00    -0.266 N 
ATOM     26  H4  UNL     1      57.642   0.890  43.436  1.00  0.00     0.210 HD
ATOM     27  H5  UNL     1      57.382  -1.563  43.930  1.00  0.00     0.190 HD
ENDBRANCH   5  19
TORSDOF 2
ENDMDL
MODEL 4
REMARK VINA RESULT: -8.863514564      1.840      2.319
REMARK  2 active torsions:
REMARK  status: ('A' for Active; 'I' for Inactive)
REMARK    1  A    between atoms: C3_5  and  C4_6 
REMARK    2  A    between atoms: C5_16  and  C6_17 
REMARK       I    between atoms: C6_17  and  N6_19 
ROOT
HETATM    1  C1  UNL     1      54.583  -8.038  42.227  1.00  0.00     0.070 C 
HETATM    2  C2  UNL     1      53.222  -8.575  42.623  1.00  0.00     0.029 A 
HETATM    3  N1  UNL     1      53.003  -9.844  42.789  1.00  0.00    -0.350 N 
ATOM      4  H1  UNL     1      53.759 -10.515  42.651  1.00  0.00     0.166 HD
HETATM    5  C3  UNL     1      51.803 -10.264  43.134  1.00  0.00     0.122 A 
HETATM    6  S1  UNL     1      50.918  -8.817  43.237  1.00  0.00    -0.061 SA
HETATM    7  C5  UNL     1      52.164  -7.721  42.823  1.00  0.00     0.097 A 
ENDROOT
BRANCH   7   8
HETATM    8  C6  UNL     1      52.147  -6.254  42.700  1.00  0.00     0.267 C 
HETATM    9  O1  UNL     1      51.782  -5.694  41.645  1.00  0.00    -0.267 OA
HETATM   10  N6  UNL     1      52.552  -5.456  43.795  1.00  0.00    -0.291 N 
HETATM   11  C7  UNL     1      53.668  -4.807  43.806  1.00  0.00     0.218 A 
ATOM     12  H6  UNL     1      51.939  -5.389  44.607  1.00  0.00     0.172 HD
HETATM   13  N7  UNL     1      54.788  -4.602  42.956  1.00  0.00    -0.255 N 
HETATM   14  N9  UNL     1      54.310  -3.957  44.736  1.00  0.00    -0.255 N 
HETATM   15  N8  UNL     1      55.350  -3.839  43.807  1.00  0.00    -0.237 N 
ATOM     16  H7  UNL     1      55.043  -4.936  42.027  1.00  0.00     0.191 HD
ATOM     17  H8  UNL     1      56.233  -3.329  43.811  1.00  0.00     0.208 HD
ATOM     18  H9  UNL     1      54.106  -3.593  45.667  1.00  0.00     0.191 HD
ENDBRANCH   7   8
BRANCH   5  19
HETATM   19  C4  UNL     1      51.404 -11.652  43.355  1.00  0.00     0.171 A 
HETATM   20  N2  UNL     1      52.149 -12.651  43.869  1.00  0.00    -0.266 N 
HETATM   21  N3  UNL     1      51.399 -13.739  43.891  1.00  0.00    -0.227 N 
ATOM     22  H2  UNL     1      53.117 -12.580  44.183  1.00  0.00     0.190 HD
HETATM   23  N4  UNL     1      50.201 -13.476  43.411  1.00  0.00    -0.227 N 
ATOM     24  H3  UNL     1      51.704 -14.651  44.231  1.00  0.00     0.210 HD
HETATM   25  N5  UNL     1      50.208 -12.196  43.084  1.00  0.00    -0.266 N 
ATOM     26  H4  UNL     1      49.424 -14.130  43.312  1.00  0.00     0.210 HD
ATOM     27  H5  UNL     1      49.416 -11.694  42.682  1.00  0.00     0.190 HD
ENDBRANCH   5  19
TORSDOF 2
ENDMDL
MODEL 5
REMARK VINA RESULT: -8.851196739      1.635      2.041
REMARK  2 active torsions:
REMARK  status: ('A' for Active; 'I' for Inactive)
REMARK    1  A    between atoms: C3_5  and  C4_6 
REMARK    2  A    between atoms: C5_16  and  C6_17 
REMARK       I    between atoms: C6_17  and  N6_19 
ROOT
HETATM    1  C1  UNL     1      54.702  -7.686  43.968  1.00  0.00     0.070 C 
HETATM    2  C2  UNL     1      53.456  -8.497  43.667  1.00  0.00     0.029 A 
HETATM    3  N1  UNL     1      53.403  -9.778  43.867  1.00  0.00    -0.350 N 
ATOM      4  H1  UNL     1      54.215 -10.272  44.239  1.00  0.00     0.166 HD
HETATM    5  C3  UNL     1      52.298 -10.441  43.591  1.00  0.00     0.122 A 
HETATM    6  S1  UNL     1      51.266  -9.219  43.016  1.00  0.00    -0.061 SA
HETATM    7  C5  UNL     1      52.330  -7.889  43.164  1.00  0.00     0.097 A 
ENDROOT
BRANCH   7   8
HETATM    8  C6  UNL     1      52.133  -6.465  42.849  1.00  0.00     0.267 C 
HETATM    9  O1  UNL     1      51.030  -6.033  42.452  1.00  0.00    -0.267 OA
HETATM   10  N6  UNL     1      53.210  -5.559  42.995  1.00  0.00    -0.291 N 
HETATM   11  C7  UNL     1      53.826  -5.044  41.984  1.00  0.00     0.218 A 
ATOM     12  H6  UNL     1      53.512  -5.304  43.935  1.00  0.00     0.172 HD
HETATM   13  N7  UNL     1      53.770  -5.094  40.566  1.00  0.00    -0.255 N 
HETATM   14  N9  UNL     1      54.902  -4.139  41.838  1.00  0.00    -0.255 N 
HETATM   15  N8  UNL     1      54.741  -4.278  40.455  1.00  0.00    -0.237 N 
ATOM     16  H7  UNL     1      53.182  -5.590  39.897  1.00  0.00     0.191 HD
ATOM     17  H8  UNL     1      55.224  -3.874  39.652  1.00  0.00     0.208 HD
ATOM     18  H9  UNL     1      55.519  -3.619  42.461  1.00  0.00     0.191 HD
ENDBRANCH   7   8
BRANCH   5  19
HETATM   19  C4  UNL     1      52.086 -11.875  43.762  1.00  0.00     0.171 A 
HETATM   20  N2  UNL     1      52.974 -12.794  44.191  1.00  0.00    -0.266 N 
HETATM   21  N3  UNL     1      52.367 -13.968  44.194  1.00  0.00    -0.227 N 
ATOM     22  H2  UNL     1      53.941 -12.615  44.464  1.00  0.00     0.190 HD
HETATM   23  N4  UNL     1      51.123 -13.838  43.782  1.00  0.00    -0.227 N 
ATOM     24  H3  UNL     1      52.800 -14.848  44.474  1.00  0.00     0.210 HD
HETATM   25  N5  UNL     1      50.954 -12.554  43.518  1.00  0.00    -0.266 N 
ATOM     26  H4  UNL     1      50.429 -14.580  43.686  1.00  0.00     0.210 HD
ATOM     27  H5  UNL     1      50.087 -12.139  43.178  1.00  0.00     0.190 HD
ENDBRANCH   5  19
TORSDOF 2
ENDMDL
