MODEL 1
REMARK VINA RESULT: -7.620108162      0.000      0.000
REMARK  2 active torsions:
REMARK  status: ('A' for Active; 'I' for Inactive)
REMARK    1  A    between atoms: C2_2  and  C3_3 
REMARK    2  A    between atoms: C10_10  and  C11_11 
ROOT
HETATM    1  C3  UNL     1      -5.600  -2.454  20.974  1.00  0.00    -0.039 C 
HETATM    2  C4  UNL     1      -4.489  -3.428  21.241  1.00  0.00     0.010 C 
HETATM    3  C5  UNL     1      -4.320  -4.258  19.971  1.00  0.00     0.005 C 
HETATM    4  C6  UNL     1      -5.358  -3.713  18.993  1.00  0.00    -0.013 C 
HETATM    5  C7  UNL     1      -4.853  -2.939  17.887  1.00  0.00     0.009 C 
HETATM    6  C8  UNL     1      -4.363  -1.578  17.956  1.00  0.00    -0.012 C 
HETATM    7  C9  UNL     1      -5.311  -0.503  18.362  1.00  0.00     0.021 C 
HETATM    8  C10 UNL     1      -4.602  -0.448  19.686  1.00  0.00     0.017 C 
HETATM    9  C12 UNL     1      -3.460  -1.161  19.045  1.00  0.00     0.021 C 
HETATM   10  C13 UNL     1      -5.271  -1.061  20.821  1.00  0.00     0.026 C 
HETATM   11  C14 UNL     1      -6.371  -3.149  19.908  1.00  0.00     0.014 C 
ENDROOT
BRANCH   8  12
HETATM   12  C11 UNL     1      -4.300   0.983  20.033  1.00  0.00     0.095 C 
HETATM   13  N1  UNL     1      -3.127   1.297  20.454  1.00  0.00    -0.390 N 
ATOM     14  H12 UNL     1      -2.423   0.565  20.544  1.00  0.00     0.157 HD
ATOM     15  H11 UNL     1      -2.921   2.268  20.690  1.00  0.00     0.157 HD
HETATM   16  N2  UNL     1      -5.271   1.992  19.909  1.00  0.00    -0.087 NA
ENDBRANCH   8  12
BRANCH   1  17
HETATM   17  C2  UNL     1      -6.503  -2.506  22.236  1.00  0.00     0.005 C 
HETATM   18  C1  UNL     1      -7.842  -3.102  21.905  1.00  0.00     0.006 C 
ENDBRANCH   1  17
TORSDOF 2
ENDMDL
MODEL 2
REMARK VINA RESULT: -5.467344340      1.251      1.485
REMARK  2 active torsions:
REMARK  status: ('A' for Active; 'I' for Inactive)
REMARK    1  A    between atoms: C2_2  and  C3_3 
REMARK    2  A    between atoms: C10_10  and  C11_11 
ROOT
HETATM    1  C3  UNL     1      -5.103  -1.458  20.364  1.00  0.00    -0.039 C 
HETATM    2  C4  UNL     1      -4.157  -2.591  20.090  1.00  0.00     0.010 C 
HETATM    3  C5  UNL     1      -4.530  -3.152  18.721  1.00  0.00     0.005 C 
HETATM    4  C6  UNL     1      -5.701  -2.298  18.241  1.00  0.00    -0.013 C 
HETATM    5  C7  UNL     1      -5.425  -1.376  17.168  1.00  0.00     0.009 C 
HETATM    6  C8  UNL     1      -4.703  -0.127  17.286  1.00  0.00    -0.012 C 
HETATM    7  C9  UNL     1      -5.276   0.945  18.148  1.00  0.00     0.021 C 
HETATM    8  C10 UNL     1      -4.202   0.640  19.153  1.00  0.00     0.017 C 
HETATM    9  C12 UNL     1      -3.454  -0.054  18.067  1.00  0.00     0.021 C 
HETATM   10  C13 UNL     1      -4.594  -0.112  20.334  1.00  0.00     0.026 C 
HETATM   11  C14 UNL     1      -6.273  -1.820  19.517  1.00  0.00     0.014 C 
ENDROOT
BRANCH   8  12
HETATM   12  C11 UNL     1      -3.558   1.921  19.604  1.00  0.00     0.095 C 
HETATM   13  N1  UNL     1      -2.888   1.941  20.700  1.00  0.00    -0.390 N 
ATOM     14  H12 UNL     1      -2.806   1.083  21.244  1.00  0.00     0.157 HD
ATOM     15  H11 UNL     1      -2.451   2.811  21.006  1.00  0.00     0.157 HD
HETATM   16  N2  UNL     1      -3.670   3.105  18.854  1.00  0.00    -0.087 NA
ENDBRANCH   8  12
BRANCH   1  17
HETATM   17  C2  UNL     1      -5.577  -1.664  21.828  1.00  0.00     0.005 C 
HETATM   18  C1  UNL     1      -6.540  -2.814  21.918  1.00  0.00     0.006 C 
ENDBRANCH   1  17
TORSDOF 2
ENDMDL
MODEL 3
REMARK VINA RESULT: -5.122040673      1.160      3.232
REMARK  2 active torsions:
REMARK  status: ('A' for Active; 'I' for Inactive)
REMARK    1  A    between atoms: C2_2  and  C3_3 
REMARK    2  A    between atoms: C10_10  and  C11_11 
ROOT
HETATM    1  C3  UNL     1      -4.898  -1.974  18.313  1.00  0.00    -0.039 C 
HETATM    2  C4  UNL     1      -6.341  -2.371  18.437  1.00  0.00     0.010 C 
HETATM    3  C5  UNL     1      -6.402  -3.473  19.492  1.00  0.00     0.005 C 
HETATM    4  C6  UNL     1      -4.960  -3.668  19.953  1.00  0.00    -0.013 C 
HETATM    5  C7  UNL     1      -4.638  -3.191  21.275  1.00  0.00     0.009 C 
HETATM    6  C8  UNL     1      -4.458  -1.806  21.657  1.00  0.00    -0.012 C 
HETATM    7  C9  UNL     1      -3.342  -1.038  21.036  1.00  0.00     0.021 C 
HETATM    8  C10 UNL     1      -4.367  -0.308  20.216  1.00  0.00     0.017 C 
HETATM    9  C12 UNL     1      -5.398  -0.770  21.189  1.00  0.00     0.021 C 
HETATM   10  C13 UNL     1      -4.492  -0.689  18.819  1.00  0.00     0.026 C 
HETATM   11  C14 UNL     1      -4.197  -3.202  18.777  1.00  0.00     0.014 C 
ENDROOT
BRANCH   8  12
HETATM   12  C11 UNL     1      -4.100   1.170  20.279  1.00  0.00     0.095 C 
HETATM   13  N1  UNL     1      -2.923   1.587  20.580  1.00  0.00    -0.390 N 
ATOM     14  H12 UNL     1      -2.190   0.904  20.771  1.00  0.00     0.157 HD
ATOM     15  H11 UNL     1      -2.741   2.590  20.623  1.00  0.00     0.157 HD
HETATM   16  N2  UNL     1      -5.109   2.112  20.016  1.00  0.00    -0.087 NA
ENDBRANCH   8  12
BRANCH   1  17
HETATM   17  C2  UNL     1      -4.624  -1.896  16.786  1.00  0.00     0.005 C 
HETATM   18  C1  UNL     1      -4.180  -0.515  16.397  1.00  0.00     0.006 C 
ENDBRANCH   1  17
TORSDOF 2
ENDMDL
MODEL 4
REMARK VINA RESULT: -4.870057403      1.590      2.819
REMARK  2 active torsions:
REMARK  status: ('A' for Active; 'I' for Inactive)
REMARK    1  A    between atoms: C2_2  and  C3_3 
REMARK    2  A    between atoms: C10_10  and  C11_11 
ROOT
HETATM    1  C3  UNL     1      -6.019  -2.956  19.587  1.00  0.00    -0.039 C 
HETATM    2  C4  UNL     1      -7.059  -2.609  20.613  1.00  0.00     0.010 C 
HETATM    3  C5  UNL     1      -6.364  -2.647  21.971  1.00  0.00     0.005 C 
HETATM    4  C6  UNL     1      -4.913  -3.015  21.670  1.00  0.00    -0.013 C 
HETATM    5  C7  UNL     1      -3.938  -1.963  21.825  1.00  0.00     0.009 C 
HETATM    6  C8  UNL     1      -3.733  -0.855  20.915  1.00  0.00    -0.012 C 
HETATM    7  C9  UNL     1      -3.288  -1.153  19.525  1.00  0.00     0.021 C 
HETATM    8  C10 UNL     1      -4.676  -0.811  19.062  1.00  0.00     0.017 C 
HETATM    9  C12 UNL     1      -4.883  -0.115  20.364  1.00  0.00     0.021 C 
HETATM   10  C13 UNL     1      -5.547  -1.919  18.707  1.00  0.00     0.026 C 
HETATM   11  C14 UNL     1      -5.041  -3.740  20.390  1.00  0.00     0.014 C 
ENDROOT
BRANCH   8  12
HETATM   12  C11 UNL     1      -4.597   0.121  17.886  1.00  0.00     0.095 C 
HETATM   13  N1  UNL     1      -4.193  -0.325  16.751  1.00  0.00    -0.390 N 
ATOM     14  H12 UNL     1      -3.933  -1.307  16.671  1.00  0.00     0.157 HD
ATOM     15  H11 UNL     1      -4.140   0.308  15.952  1.00  0.00     0.157 HD
HETATM   16  N2  UNL     1      -4.956   1.476  17.995  1.00  0.00    -0.087 NA
ENDBRANCH   8  12
BRANCH   1  17
HETATM   17  C2  UNL     1      -6.699  -3.987  18.646  1.00  0.00     0.005 C 
HETATM   18  C1  UNL     1      -7.266  -5.133  19.436  1.00  0.00     0.006 C 
ENDBRANCH   1  17
TORSDOF 2
ENDMDL
MODEL 5
REMARK VINA RESULT: -4.837963776      1.172      3.194
REMARK  2 active torsions:
REMARK  status: ('A' for Active; 'I' for Inactive)
REMARK    1  A    between atoms: C2_2  and  C3_3 
REMARK    2  A    between atoms: C10_10  and  C11_11 
ROOT
HETATM    1  C3  UNL     1      -4.923  -2.868  18.576  1.00  0.00    -0.039 C 
HETATM    2  C4  UNL     1      -6.354  -3.263  18.799  1.00  0.00     0.010 C 
HETATM    3  C5  UNL     1      -6.415  -3.928  20.171  1.00  0.00     0.005 C 
HETATM    4  C6  UNL     1      -4.985  -3.884  20.704  1.00  0.00    -0.013 C 
HETATM    5  C7  UNL     1      -4.729  -2.960  21.782  1.00  0.00     0.009 C 
HETATM    6  C8  UNL     1      -4.612  -1.522  21.657  1.00  0.00    -0.012 C 
HETATM    7  C9  UNL     1      -3.502  -0.969  20.832  1.00  0.00     0.021 C 
HETATM    8  C10 UNL     1      -4.521  -0.620  19.786  1.00  0.00     0.017 C 
HETATM    9  C12 UNL     1      -5.571  -0.760  20.835  1.00  0.00     0.021 C 
HETATM   10  C13 UNL     1      -4.581  -1.470  18.609  1.00  0.00     0.026 C 
HETATM   11  C14 UNL     1      -4.196  -3.823  19.457  1.00  0.00     0.014 C 
ENDROOT
BRANCH   8  12
HETATM   12  C11 UNL     1      -4.309   0.798  19.333  1.00  0.00     0.095 C 
HETATM   13  N1  UNL     1      -3.705   1.023  18.221  1.00  0.00    -0.390 N 
ATOM     14  H12 UNL     1      -3.380   0.231  17.667  1.00  0.00     0.157 HD
ATOM     15  H11 UNL     1      -3.561   1.985  17.913  1.00  0.00     0.157 HD
HETATM   16  N2  UNL     1      -4.757   1.890  20.096  1.00  0.00    -0.087 NA
ENDBRANCH   8  12
BRANCH   1  17
HETATM   17  C2  UNL     1      -4.595  -3.316  17.126  1.00  0.00     0.005 C 
HETATM   18  C1  UNL     1      -4.208  -2.136  16.280  1.00  0.00     0.006 C 
ENDBRANCH   1  17
TORSDOF 2
ENDMDL
