MODEL 1
REMARK VINA RESULT: -6.025809168      0.000      0.000
REMARK  1 active torsions:
REMARK  status: ('A' for Active; 'I' for Inactive)
REMARK       I    between atoms: C1_2  and  N2_4 
REMARK    1  A    between atoms: N2_4  and  N3_6 
REMARK       I    between atoms: N3_6  and  C2_8 
REMARK       I    between atoms: C2_8  and  N4_10 
ROOT
HETATM    1  N3  UNL     1      -2.365  27.100  26.242  1.00  0.00    -0.246 N 
ATOM      2  H3  UNL     1      -3.239  27.526  25.935  1.00  0.00     0.192 HD
HETATM    3  C2  UNL     1      -2.275  26.476  27.511  1.00  0.00     0.356 C 
HETATM    4  O2  UNL     1      -1.148  25.960  27.834  1.00  0.00    -0.244 OA
HETATM    5  N4  UNL     1      -3.376  26.414  28.398  1.00  0.00    -0.226 N 
HETATM    6  C3  UNL     1      -3.390  25.805  29.701  1.00  0.00     0.176 C 
HETATM    7  C4  UNL     1      -4.863  25.552  29.916  1.00  0.00     0.163 C 
HETATM    8  N5  UNL     1      -5.479  26.468  28.992  1.00  0.00    -0.320 N 
ATOM      9  H5  UNL     1      -6.469  26.714  29.004  1.00  0.00     0.181 HD
HETATM   10  N6  UNL     1      -4.644  26.933  28.160  1.00  0.00    -0.241 N 
ATOM     11  H6  UNL     1      -4.870  27.596  27.419  1.00  0.00     0.208 HD
ENDROOT
BRANCH   1  12
HETATM   12  N2  UNL     1      -1.241  27.122  25.425  1.00  0.00    -0.250 N 
HETATM   13  C1  UNL     1      -1.321  26.959  24.018  1.00  0.00     0.347 C 
HETATM   14  N1  UNL     1      -0.200  26.978  23.183  1.00  0.00    -0.038 NA
HETATM   15  O1  UNL     1      -2.461  26.789  23.517  1.00  0.00    -0.249 OA
ATOM     16  H2  UNL     1      -0.325  27.261  25.852  1.00  0.00     0.191 HD
ENDBRANCH   1  12
TORSDOF 1
ENDMDL
MODEL 2
REMARK VINA RESULT: -5.820593758      2.179      2.253
REMARK  1 active torsions:
REMARK  status: ('A' for Active; 'I' for Inactive)
REMARK       I    between atoms: C1_2  and  N2_4 
REMARK    1  A    between atoms: N2_4  and  N3_6 
REMARK       I    between atoms: N3_6  and  C2_8 
REMARK       I    between atoms: C2_8  and  N4_10 
ROOT
HETATM    1  N3  UNL     1      -1.820  27.112  26.164  1.00  0.00    -0.246 N 
ATOM      2  H3  UNL     1      -1.532  27.650  26.981  1.00  0.00     0.192 HD
HETATM    3  C2  UNL     1      -3.179  26.765  25.971  1.00  0.00     0.356 C 
HETATM    4  O2  UNL     1      -3.471  26.090  24.923  1.00  0.00    -0.244 OA
HETATM    5  N4  UNL     1      -4.189  27.143  26.888  1.00  0.00    -0.226 N 
HETATM    6  C3  UNL     1      -5.592  26.844  26.786  1.00  0.00     0.176 C 
HETATM    7  C4  UNL     1      -6.207  27.907  27.665  1.00  0.00     0.163 C 
HETATM    8  N5  UNL     1      -5.103  28.304  28.499  1.00  0.00    -0.320 N 
ATOM      9  H5  UNL     1      -5.199  28.864  29.346  1.00  0.00     0.181 HD
HETATM   10  N6  UNL     1      -3.996  27.875  28.055  1.00  0.00    -0.241 N 
ATOM     11  H6  UNL     1      -3.091  28.043  28.493  1.00  0.00     0.208 HD
ENDROOT
BRANCH   1  12
HETATM   12  N2  UNL     1      -0.884  26.705  25.220  1.00  0.00    -0.250 N 
HETATM   13  C1  UNL     1      -0.467  27.542  24.153  1.00  0.00     0.347 C 
HETATM   14  N1  UNL     1       0.472  27.147  23.196  1.00  0.00    -0.038 NA
HETATM   15  O1  UNL     1      -0.977  28.688  24.081  1.00  0.00    -0.249 OA
ATOM     16  H2  UNL     1      -0.482  25.771  25.297  1.00  0.00     0.191 HD
ENDBRANCH   1  12
TORSDOF 1
ENDMDL
MODEL 3
REMARK VINA RESULT: -5.808207912      1.796      2.085
REMARK  1 active torsions:
REMARK  status: ('A' for Active; 'I' for Inactive)
REMARK       I    between atoms: C1_2  and  N2_4 
REMARK    1  A    between atoms: N2_4  and  N3_6 
REMARK       I    between atoms: N3_6  and  C2_8 
REMARK       I    between atoms: C2_8  and  N4_10 
ROOT
HETATM    1  N3  UNL     1      -1.344  26.709  26.120  1.00  0.00    -0.246 N 
ATOM      2  H3  UNL     1      -0.533  26.776  26.735  1.00  0.00     0.192 HD
HETATM    3  C2  UNL     1      -2.654  26.659  26.657  1.00  0.00     0.356 C 
HETATM    4  O2  UNL     1      -3.627  26.577  25.829  1.00  0.00    -0.244 OA
HETATM    5  N4  UNL     1      -2.897  26.698  28.051  1.00  0.00    -0.226 N 
HETATM    6  C3  UNL     1      -4.182  26.654  28.696  1.00  0.00     0.176 C 
HETATM    7  C4  UNL     1      -3.880  27.265  30.044  1.00  0.00     0.163 C 
HETATM    8  N5  UNL     1      -2.454  27.099  30.153  1.00  0.00    -0.320 N 
ATOM      9  H5  UNL     1      -1.930  27.218  31.021  1.00  0.00     0.181 HD
HETATM   10  N6  UNL     1      -1.927  26.787  29.044  1.00  0.00    -0.241 N 
ATOM     11  H6  UNL     1      -0.931  26.624  28.900  1.00  0.00     0.208 HD
ENDROOT
BRANCH   1  12
HETATM   12  N2  UNL     1      -1.183  26.667  24.740  1.00  0.00    -0.250 N 
HETATM   13  C1  UNL     1      -0.429  27.637  24.032  1.00  0.00     0.347 C 
HETATM   14  N1  UNL     1      -0.259  27.607  22.645  1.00  0.00    -0.038 NA
HETATM   15  O1  UNL     1       0.103  28.559  24.700  1.00  0.00    -0.249 OA
ATOM     16  H2  UNL     1      -1.624  25.910  24.217  1.00  0.00     0.191 HD
ENDBRANCH   1  12
TORSDOF 1
ENDMDL
MODEL 4
REMARK VINA RESULT: -5.655197351      2.515      5.595
REMARK  1 active torsions:
REMARK  status: ('A' for Active; 'I' for Inactive)
REMARK       I    between atoms: C1_2  and  N2_4 
REMARK    1  A    between atoms: N2_4  and  N3_6 
REMARK       I    between atoms: N3_6  and  C2_8 
REMARK       I    between atoms: C2_8  and  N4_10 
ROOT
HETATM    1  N3  UNL     1      -2.624  26.914  25.982  1.00  0.00    -0.246 N 
ATOM      2  H3  UNL     1      -2.150  26.895  26.885  1.00  0.00     0.192 HD
HETATM    3  C2  UNL     1      -1.908  27.216  24.798  1.00  0.00     0.356 C 
HETATM    4  O2  UNL     1      -2.565  27.222  23.699  1.00  0.00    -0.244 OA
HETATM    5  N4  UNL     1      -0.522  27.501  24.810  1.00  0.00    -0.226 N 
HETATM    6  C3  UNL     1       0.295  27.818  23.669  1.00  0.00     0.176 C 
HETATM    7  C4  UNL     1       1.679  27.480  24.167  1.00  0.00     0.163 C 
HETATM    8  N5  UNL     1       1.517  27.513  25.597  1.00  0.00    -0.320 N 
ATOM      9  H5  UNL     1       2.292  27.527  26.261  1.00  0.00     0.181 HD
HETATM   10  N6  UNL     1       0.295  27.524  25.934  1.00  0.00    -0.241 N 
ATOM     11  H6  UNL     1      -0.042  27.546  26.897  1.00  0.00     0.208 HD
ENDROOT
BRANCH   1  12
HETATM   12  N2  UNL     1      -3.985  26.644  25.893  1.00  0.00    -0.250 N 
HETATM   13  C1  UNL     1      -4.947  27.316  26.689  1.00  0.00     0.347 C 
HETATM   14  N1  UNL     1      -6.318  27.055  26.610  1.00  0.00    -0.038 NA
HETATM   15  O1  UNL     1      -4.529  28.183  27.497  1.00  0.00    -0.249 OA
ATOM     16  H2  UNL     1      -4.303  25.936  25.230  1.00  0.00     0.191 HD
ENDBRANCH   1  12
TORSDOF 1
ENDMDL
MODEL 5
REMARK VINA RESULT: -5.649111481      2.362      5.716
REMARK  1 active torsions:
REMARK  status: ('A' for Active; 'I' for Inactive)
REMARK       I    between atoms: C1_2  and  N2_4 
REMARK    1  A    between atoms: N2_4  and  N3_6 
REMARK       I    between atoms: N3_6  and  C2_8 
REMARK       I    between atoms: C2_8  and  N4_10 
ROOT
HETATM    1  N3  UNL     1      -1.035  26.098  27.329  1.00  0.00    -0.246 N 
ATOM      2  H3  UNL     1      -0.190  26.597  27.606  1.00  0.00     0.192 HD
HETATM    3  C2  UNL     1      -1.611  26.308  26.052  1.00  0.00     0.356 C 
HETATM    4  O2  UNL     1      -2.671  25.648  25.768  1.00  0.00    -0.244 OA
HETATM    5  N4  UNL     1      -1.049  27.206  25.113  1.00  0.00    -0.226 N 
HETATM    6  C3  UNL     1      -1.552  27.491  23.796  1.00  0.00     0.176 C 
HETATM    7  C4  UNL     1      -0.327  28.033  23.099  1.00  0.00     0.163 C 
HETATM    8  N5  UNL     1       0.507  28.440  24.200  1.00  0.00    -0.320 N 
ATOM      9  H5  UNL     1       1.332  29.033  24.104  1.00  0.00     0.181 HD
HETATM   10  N6  UNL     1       0.095  27.974  25.304  1.00  0.00    -0.241 N 
ATOM     11  H6  UNL     1       0.539  28.139  26.207  1.00  0.00     0.208 HD
ENDROOT
BRANCH   1  12
HETATM   12  N2  UNL     1      -1.643  25.200  28.198  1.00  0.00    -0.250 N 
HETATM   13  C1  UNL     1      -1.710  25.422  29.598  1.00  0.00     0.347 C 
HETATM   14  N1  UNL     1      -2.317  24.528  30.484  1.00  0.00    -0.038 NA
HETATM   15  O1  UNL     1      -1.193  26.478  30.043  1.00  0.00    -0.249 OA
ATOM     16  H2  UNL     1      -2.056  24.349  27.816  1.00  0.00     0.191 HD
ENDBRANCH   1  12
TORSDOF 1
ENDMDL
