MODEL 1
REMARK VINA RESULT: -7.555631446      0.000      0.000
REMARK  4 active torsions:
REMARK  status: ('A' for Active; 'I' for Inactive)
REMARK    1  A    between atoms: C2_4  and  N2_5 
REMARK    2  A    between atoms: C2_4  and  C9_24 
REMARK    3  A    between atoms: N2_5  and  N3_7 
REMARK    4  A    between atoms: N3_7  and  C3_9 
REMARK       I    between atoms: N4_13  and  C7_14 
REMARK       I    between atoms: N6_16  and  C8_18 
ROOT
HETATM    1  C3  UNL     1      -1.720  26.174  30.890  1.00  0.00     0.266 C 
HETATM    2  C4  UNL     1      -2.572  27.299  31.345  1.00  0.00     0.059 C 
HETATM    3  C5  UNL     1      -1.856  28.536  31.760  1.00  0.00     0.027 C 
HETATM    4  C6  UNL     1      -0.568  28.337  32.483  1.00  0.00     0.159 C 
HETATM    5  N4  UNL     1      -0.168  26.956  32.350  1.00  0.00    -0.227 N 
HETATM    6  C7  UNL     1       0.424  26.236  33.419  1.00  0.00     0.217 C 
HETATM    7  N5  UNL     1      -0.246  25.980  34.638  1.00  0.00    -0.061 NA
HETATM    8  N6  UNL     1       1.648  25.789  33.270  1.00  0.00    -0.303 N 
ATOM      9  H6  UNL     1       2.153  25.960  32.401  1.00  0.00     0.171 HD
HETATM   10  C8  UNL     1       2.264  25.072  34.312  1.00  0.00     0.188 C 
HETATM   11  N7  UNL     1       2.555  23.839  34.150  1.00  0.00    -0.373 N 
ATOM     12  H71 UNL     1       3.001  23.319  34.906  1.00  0.00     0.158 HD
ATOM     13  H72 UNL     1       2.340  23.374  33.268  1.00  0.00     0.158 HD
HETATM   14  N8  UNL     1       2.559  25.714  35.530  1.00  0.00    -0.064 NA
HETATM   15  O1  UNL     1      -0.368  26.347  31.174  1.00  0.00    -0.248 OA
ENDROOT
BRANCH   1  16
HETATM   16  N3  UNL     1      -1.862  25.781  29.525  1.00  0.00    -0.304 N 
ATOM     17  H3  UNL     1      -1.882  24.799  29.247  1.00  0.00     0.183 HD
BRANCH  16  18
HETATM   18  N2  UNL     1      -1.972  26.800  28.604  1.00  0.00    -0.291 N 
ATOM     19  H2  UNL     1      -1.297  27.565  28.620  1.00  0.00     0.188 HD
BRANCH  18  20
HETATM   20  C2  UNL     1      -3.002  26.805  27.639  1.00  0.00     0.095 C 
HETATM   21  N1  UNL     1      -2.733  26.828  26.403  1.00  0.00    -0.383 N 
HETATM   22  C1  UNL     1      -1.434  26.850  25.831  1.00  0.00     0.147 C 
ATOM     23  H1  UNL     1      -3.523  26.830  25.757  1.00  0.00     0.160 HD
BRANCH  20  24
HETATM   24  C9  UNL     1      -4.443  26.766  28.021  1.00  0.00     0.058 C 
HETATM   25  C10 UNL     1      -5.268  26.871  26.764  1.00  0.00     0.038 C 
HETATM   26  C11 UNL     1      -6.719  26.901  27.187  1.00  0.00     0.168 C 
HETATM   27  O2  UNL     1      -6.872  26.638  28.538  1.00  0.00    -0.391 OA
HETATM   28  C12 UNL     1      -6.293  27.577  29.362  1.00  0.00     0.168 C 
HETATM   29  C13 UNL     1      -4.864  27.864  28.943  1.00  0.00     0.038 C 
ENDBRANCH  20  24
ENDBRANCH  18  20
ENDBRANCH  16  18
ENDBRANCH   1  16
TORSDOF 4
ENDMDL
MODEL 2
REMARK VINA RESULT: -7.488486635      2.469      7.472
REMARK  4 active torsions:
REMARK  status: ('A' for Active; 'I' for Inactive)
REMARK    1  A    between atoms: C2_4  and  N2_5 
REMARK    2  A    between atoms: C2_4  and  C9_24 
REMARK    3  A    between atoms: N2_5  and  N3_7 
REMARK    4  A    between atoms: N3_7  and  C3_9 
REMARK       I    between atoms: N4_13  and  C7_14 
REMARK       I    between atoms: N6_16  and  C8_18 
ROOT
HETATM    1  C3  UNL     1      -1.181  26.619  31.521  1.00  0.00     0.266 C 
HETATM    2  C4  UNL     1      -2.422  26.172  32.199  1.00  0.00     0.059 C 
HETATM    3  C5  UNL     1      -2.986  24.873  31.741  1.00  0.00     0.027 C 
HETATM    4  C6  UNL     1      -2.881  24.590  30.282  1.00  0.00     0.159 C 
HETATM    5  N4  UNL     1      -1.974  25.543  29.687  1.00  0.00    -0.227 N 
HETATM    6  C7  UNL     1      -2.211  26.113  28.410  1.00  0.00     0.217 C 
HETATM    7  N5  UNL     1      -3.333  26.924  28.124  1.00  0.00    -0.061 NA
HETATM    8  N6  UNL     1      -1.348  25.876  27.449  1.00  0.00    -0.303 N 
ATOM      9  H6  UNL     1      -0.530  25.293  27.629  1.00  0.00     0.171 HD
HETATM   10  C8  UNL     1      -1.554  26.425  26.172  1.00  0.00     0.188 C 
HETATM   11  N7  UNL     1      -0.740  27.298  25.716  1.00  0.00    -0.373 N 
ATOM     12  H71 UNL     1      -0.889  27.697  24.789  1.00  0.00     0.158 HD
ATOM     13  H72 UNL     1       0.057  27.596  26.278  1.00  0.00     0.158 HD
HETATM   14  N8  UNL     1      -2.655  26.013  25.396  1.00  0.00    -0.064 NA
HETATM   15  O1  UNL     1      -0.879  25.891  30.374  1.00  0.00    -0.248 OA
ENDROOT
BRANCH   1  16
HETATM   16  N3  UNL     1      -0.012  26.714  32.335  1.00  0.00    -0.304 N 
ATOM     17  H3  UNL     1       0.763  27.332  32.092  1.00  0.00     0.183 HD
BRANCH  16  18
HETATM   18  N2  UNL     1       0.012  25.925  33.464  1.00  0.00    -0.291 N 
ATOM     19  H2  UNL     1      -0.599  26.155  34.249  1.00  0.00     0.188 HD
BRANCH  18  20
HETATM   20  C2  UNL     1       0.865  24.805  33.555  1.00  0.00     0.095 C 
HETATM   21  N1  UNL     1       2.054  24.928  33.972  1.00  0.00    -0.383 N 
HETATM   22  C1  UNL     1       2.673  26.134  34.388  1.00  0.00     0.147 C 
ATOM     23  H1  UNL     1       2.620  24.079  34.013  1.00  0.00     0.160 HD
BRANCH  20  24
HETATM   24  C9  UNL     1       0.412  23.434  33.184  1.00  0.00     0.058 C 
HETATM   25  C10 UNL     1       1.389  22.441  33.761  1.00  0.00     0.038 C 
HETATM   26  C11 UNL     1       0.945  21.069  33.310  1.00  0.00     0.168 C 
HETATM   27  O2  UNL     1      -0.290  21.101  32.685  1.00  0.00    -0.391 OA
HETATM   28  C12 UNL     1      -0.310  21.829  31.516  1.00  0.00     0.168 C 
HETATM   29  C13 UNL     1       0.324  23.193  31.713  1.00  0.00     0.038 C 
ENDBRANCH  20  24
ENDBRANCH  18  20
ENDBRANCH  16  18
ENDBRANCH   1  16
TORSDOF 4
ENDMDL
MODEL 3
REMARK VINA RESULT: -7.429877899      2.457      7.459
REMARK  4 active torsions:
REMARK  status: ('A' for Active; 'I' for Inactive)
REMARK    1  A    between atoms: C2_4  and  N2_5 
REMARK    2  A    between atoms: C2_4  and  C9_24 
REMARK    3  A    between atoms: N2_5  and  N3_7 
REMARK    4  A    between atoms: N3_7  and  C3_9 
REMARK       I    between atoms: N4_13  and  C7_14 
REMARK       I    between atoms: N6_16  and  C8_18 
ROOT
HETATM    1  C3  UNL     1      -1.214  26.543  31.508  1.00  0.00     0.266 C 
HETATM    2  C4  UNL     1      -2.501  26.216  32.169  1.00  0.00     0.059 C 
HETATM    3  C5  UNL     1      -3.187  24.985  31.692  1.00  0.00     0.027 C 
HETATM    4  C6  UNL     1      -3.095  24.707  30.230  1.00  0.00     0.159 C 
HETATM    5  N4  UNL     1      -2.091  25.570  29.655  1.00  0.00    -0.227 N 
HETATM    6  C7  UNL     1      -2.256  26.173  28.381  1.00  0.00     0.217 C 
HETATM    7  N5  UNL     1      -3.288  27.095  28.094  1.00  0.00    -0.061 NA
HETATM    8  N6  UNL     1      -1.411  25.859  27.427  1.00  0.00    -0.303 N 
ATOM      9  H6  UNL     1      -0.658  25.196  27.608  1.00  0.00     0.171 HD
HETATM   10  C8  UNL     1      -1.547  26.439  26.153  1.00  0.00     0.188 C 
HETATM   11  N7  UNL     1      -0.645  27.230  25.715  1.00  0.00    -0.373 N 
ATOM     12  H71 UNL     1      -0.744  27.651  24.791  1.00  0.00     0.158 HD
ATOM     13  H72 UNL     1       0.172  27.442  26.288  1.00  0.00     0.158 HD
HETATM   14  N8  UNL     1      -2.676  26.147  25.363  1.00  0.00    -0.064 NA
HETATM   15  O1  UNL     1      -0.974  25.799  30.356  1.00  0.00    -0.248 OA
ENDROOT
BRANCH   1  16
HETATM   16  N3  UNL     1      -0.050  26.513  32.334  1.00  0.00    -0.304 N 
ATOM     17  H3  UNL     1       0.717  27.174  32.207  1.00  0.00     0.183 HD
BRANCH  16  18
HETATM   18  N2  UNL     1      -0.019  25.540  33.310  1.00  0.00    -0.291 N 
ATOM     19  H2  UNL     1      -0.748  25.523  34.023  1.00  0.00     0.188 HD
BRANCH  18  20
HETATM   20  C2  UNL     1       1.003  24.567  33.339  1.00  0.00     0.095 C 
HETATM   21  N1  UNL     1       2.134  24.829  33.844  1.00  0.00    -0.383 N 
HETATM   22  C1  UNL     1       2.523  26.064  34.423  1.00  0.00     0.147 C 
ATOM     23  H1  UNL     1       2.830  24.083  33.833  1.00  0.00     0.160 HD
BRANCH  20  24
HETATM   24  C9  UNL     1       0.802  23.192  32.798  1.00  0.00     0.058 C 
HETATM   25  C10 UNL     1      -0.669  23.001  32.529  1.00  0.00     0.038 C 
HETATM   26  C11 UNL     1      -0.850  21.578  32.051  1.00  0.00     0.168 C 
HETATM   27  O2  UNL     1       0.362  20.947  31.822  1.00  0.00    -0.391 OA
HETATM   28  C12 UNL     1       1.138  20.796  32.950  1.00  0.00     0.168 C 
HETATM   29  C13 UNL     1       1.250  22.101  33.714  1.00  0.00     0.038 C 
ENDBRANCH  20  24
ENDBRANCH  18  20
ENDBRANCH  16  18
ENDBRANCH   1  16
TORSDOF 4
ENDMDL
MODEL 4
REMARK VINA RESULT: -7.396488347      1.831      2.037
REMARK  4 active torsions:
REMARK  status: ('A' for Active; 'I' for Inactive)
REMARK    1  A    between atoms: C2_4  and  N2_5 
REMARK    2  A    between atoms: C2_4  and  C9_24 
REMARK    3  A    between atoms: N2_5  and  N3_7 
REMARK    4  A    between atoms: N3_7  and  C3_9 
REMARK       I    between atoms: N4_13  and  C7_14 
REMARK       I    between atoms: N6_16  and  C8_18 
ROOT
HETATM    1  C3  UNL     1      -1.643  25.235  29.819  1.00  0.00     0.266 C 
HETATM    2  C4  UNL     1      -2.128  26.451  30.515  1.00  0.00     0.059 C 
HETATM    3  C5  UNL     1      -1.132  27.163  31.360  1.00  0.00     0.027 C 
HETATM    4  C6  UNL     1      -0.171  26.302  32.108  1.00  0.00     0.159 C 
HETATM    5  N4  UNL     1      -0.255  24.956  31.593  1.00  0.00    -0.227 N 
HETATM    6  C7  UNL     1      -0.184  23.820  32.440  1.00  0.00     0.217 C 
HETATM    7  N5  UNL     1      -1.138  23.550  33.448  1.00  0.00    -0.061 NA
HETATM    8  N6  UNL     1       0.813  22.982  32.280  1.00  0.00    -0.303 N 
ATOM      9  H6  UNL     1       1.515  23.154  31.560  1.00  0.00     0.171 HD
HETATM   10  C8  UNL     1       0.913  21.846  33.103  1.00  0.00     0.188 C 
HETATM   11  N7  UNL     1       0.787  20.681  32.597  1.00  0.00    -0.373 N 
ATOM     12  H71 UNL     1       0.859  19.857  33.194  1.00  0.00     0.158 HD
ATOM     13  H72 UNL     1       0.613  20.573  31.597  1.00  0.00     0.158 HD
HETATM   14  N8  UNL     1       1.153  21.996  34.483  1.00  0.00    -0.064 NA
HETATM   15  O1  UNL     1      -0.404  24.789  30.273  1.00  0.00    -0.248 OA
ENDROOT
BRANCH   1  16
HETATM   16  N3  UNL     1      -1.626  25.283  28.392  1.00  0.00    -0.304 N 
ATOM     17  H3  UNL     1      -1.549  24.437  27.826  1.00  0.00     0.183 HD
BRANCH  16  18
HETATM   18  N2  UNL     1      -1.718  26.534  27.823  1.00  0.00    -0.291 N 
ATOM     19  H2  UNL     1      -0.998  27.229  28.020  1.00  0.00     0.188 HD
BRANCH  18  20
HETATM   20  C2  UNL     1      -2.791  26.871  26.970  1.00  0.00     0.095 C 
HETATM   21  N1  UNL     1      -2.587  27.171  25.758  1.00  0.00    -0.383 N 
HETATM   22  C1  UNL     1      -1.326  27.213  25.109  1.00  0.00     0.147 C 
ATOM     23  H1  UNL     1      -3.405  27.405  25.195  1.00  0.00     0.160 HD
BRANCH  20  24
HETATM   24  C9  UNL     1      -4.205  26.873  27.443  1.00  0.00     0.058 C 
HETATM   25  C10 UNL     1      -5.100  27.116  26.255  1.00  0.00     0.038 C 
HETATM   26  C11 UNL     1      -6.518  27.185  26.775  1.00  0.00     0.168 C 
HETATM   27  O2  UNL     1      -6.601  26.826  28.110  1.00  0.00    -0.391 OA
HETATM   28  C12 UNL     1      -5.921  27.668  28.961  1.00  0.00     0.168 C 
HETATM   29  C13 UNL     1      -4.507  27.915  28.470  1.00  0.00     0.038 C 
ENDBRANCH  20  24
ENDBRANCH  18  20
ENDBRANCH  16  18
ENDBRANCH   1  16
TORSDOF 4
ENDMDL
MODEL 5
REMARK VINA RESULT: -7.368925914      1.292      1.479
REMARK  4 active torsions:
REMARK  status: ('A' for Active; 'I' for Inactive)
REMARK    1  A    between atoms: C2_4  and  N2_5 
REMARK    2  A    between atoms: C2_4  and  C9_24 
REMARK    3  A    between atoms: N2_5  and  N3_7 
REMARK    4  A    between atoms: N3_7  and  C3_9 
REMARK       I    between atoms: N4_13  and  C7_14 
REMARK       I    between atoms: N6_16  and  C8_18 
ROOT
HETATM    1  C3  UNL     1      -1.572  24.889  29.896  1.00  0.00     0.266 C 
HETATM    2  C4  UNL     1      -2.949  24.587  30.357  1.00  0.00     0.059 C 
HETATM    3  C5  UNL     1      -3.523  25.523  31.362  1.00  0.00     0.027 C 
HETATM    4  C6  UNL     1      -2.575  26.049  32.385  1.00  0.00     0.159 C 
HETATM    5  N4  UNL     1      -1.226  25.741  31.972  1.00  0.00    -0.227 N 
HETATM    6  C7  UNL     1      -0.228  25.337  32.895  1.00  0.00     0.217 C 
HETATM    7  N5  UNL     1      -0.321  24.150  33.658  1.00  0.00    -0.061 NA
HETATM    8  N6  UNL     1       0.829  26.100  33.048  1.00  0.00    -0.303 N 
ATOM      9  H6  UNL     1       0.919  26.961  32.510  1.00  0.00     0.171 HD
HETATM   10  C8  UNL     1       1.836  25.728  33.956  1.00  0.00     0.188 C 
HETATM   11  N7  UNL     1       2.999  25.424  33.526  1.00  0.00    -0.373 N 
ATOM     12  H71 UNL     1       3.730  25.154  34.185  1.00  0.00     0.158 HD
ATOM     13  H72 UNL     1       3.198  25.451  32.526  1.00  0.00     0.158 HD
HETATM   14  N8  UNL     1       1.561  25.691  35.337  1.00  0.00    -0.064 NA
HETATM   15  O1  UNL     1      -0.921  25.845  30.672  1.00  0.00    -0.248 OA
ENDROOT
BRANCH   1  16
HETATM   16  N3  UNL     1      -1.423  25.228  28.518  1.00  0.00    -0.304 N 
ATOM     17  H3  UNL     1      -1.098  24.549  27.829  1.00  0.00     0.183 HD
BRANCH  16  18
HETATM   18  N2  UNL     1      -1.741  26.522  28.169  1.00  0.00    -0.291 N 
ATOM     19  H2  UNL     1      -1.178  27.292  28.531  1.00  0.00     0.188 HD
BRANCH  18  20
HETATM   20  C2  UNL     1      -2.832  26.802  27.319  1.00  0.00     0.095 C 
HETATM   21  N1  UNL     1      -2.651  27.063  26.094  1.00  0.00    -0.383 N 
HETATM   22  C1  UNL     1      -1.399  27.111  25.427  1.00  0.00     0.147 C 
ATOM     23  H1  UNL     1      -3.481  27.257  25.533  1.00  0.00     0.160 HD
BRANCH  20  24
HETATM   24  C9  UNL     1      -4.241  26.787  27.809  1.00  0.00     0.058 C 
HETATM   25  C10 UNL     1      -5.156  26.939  26.622  1.00  0.00     0.038 C 
HETATM   26  C11 UNL     1      -6.570  26.993  27.156  1.00  0.00     0.168 C 
HETATM   27  O2  UNL     1      -6.626  26.703  28.509  1.00  0.00    -0.391 OA
HETATM   28  C12 UNL     1      -5.962  27.609  29.305  1.00  0.00     0.168 C 
HETATM   29  C13 UNL     1      -4.563  27.873  28.783  1.00  0.00     0.038 C 
ENDBRANCH  20  24
ENDBRANCH  18  20
ENDBRANCH  16  18
ENDBRANCH   1  16
TORSDOF 4
ENDMDL
