MODEL 1
REMARK VINA RESULT: -6.027269702      0.000      0.000
REMARK  3 active torsions:
REMARK  status: ('A' for Active; 'I' for Inactive)
REMARK    1  A    between atoms: N1_1  and  C1_4 
REMARK    2  A    between atoms: C4_9  and  N3_10 
REMARK       I    between atoms: N3_10  and  C5_12 
REMARK    3  A    between atoms: C5_12  and  C6_14 
ROOT
HETATM    1  C1  UNL     1       1.231  28.933  26.910  1.00  0.00     0.677 A 
HETATM    2  N2  UNL     1       1.538  28.893  25.611  1.00  0.00    -0.202 N 
ATOM      3  H2  UNL     1       2.517  28.999  25.343  1.00  0.00     0.183 HD
HETATM    4  C2  UNL     1       0.631  28.722  24.637  1.00  0.00     0.110 A 
HETATM    5  C3  UNL     1      -0.688  28.581  25.031  1.00  0.00     0.067 A 
HETATM    6  C4  UNL     1      -1.010  28.621  26.368  1.00  0.00     0.125 A 
HETATM    7  N5  UNL     1      -0.054  28.795  27.293  1.00  0.00    -0.177 N 
ATOM      8  H5  UNL     1      -0.299  28.824  28.283  1.00  0.00     0.185 HD
ENDROOT
BRANCH   6   9
HETATM    9  N3  UNL     1      -2.223  28.494  26.779  1.00  0.00    -0.305 N 
HETATM   10  C5  UNL     1      -2.788  27.198  26.920  1.00  0.00     0.312 C 
HETATM   11  O1  UNL     1      -2.390  26.510  27.892  1.00  0.00    -0.262 OA
ATOM     12  H3  UNL     1      -2.776  29.321  27.002  1.00  0.00     0.170 HD
BRANCH  10  13
HETATM   13  C6  UNL     1      -3.780  26.665  26.002  1.00  0.00     0.322 C 
HETATM   14  N4  UNL     1      -5.084  27.218  25.980  1.00  0.00    -0.053 NA
HETATM   15  O2  UNL     1      -3.528  25.722  25.216  1.00  0.00    -0.266 OA
ENDBRANCH  10  13
ENDBRANCH   6   9
BRANCH   1  16
HETATM   16  N1  UNL     1       2.129  29.099  27.817  1.00  0.00    -0.234 N 
ATOM     17  H12 UNL     1       2.039  28.585  28.693  1.00  0.00     0.174 HD
ATOM     18  H11 UNL     1       2.921  29.726  27.682  1.00  0.00     0.174 HD
ENDBRANCH   1  16
TORSDOF 3
ENDMDL
MODEL 2
REMARK VINA RESULT: -5.974742032      2.673      4.483
REMARK  3 active torsions:
REMARK  status: ('A' for Active; 'I' for Inactive)
REMARK    1  A    between atoms: N1_1  and  C1_4 
REMARK    2  A    between atoms: C4_9  and  N3_10 
REMARK       I    between atoms: N3_10  and  C5_12 
REMARK    3  A    between atoms: C5_12  and  C6_14 
ROOT
HETATM    1  C1  UNL     1      -2.618  28.141  29.027  1.00  0.00     0.677 A 
HETATM    2  N2  UNL     1      -3.787  28.078  28.382  1.00  0.00    -0.202 N 
ATOM      3  H2  UNL     1      -4.629  28.360  28.884  1.00  0.00     0.183 HD
HETATM    4  C2  UNL     1      -3.914  27.665  27.112  1.00  0.00     0.110 A 
HETATM    5  C3  UNL     1      -2.755  27.289  26.458  1.00  0.00     0.067 A 
HETATM    6  C4  UNL     1      -1.548  27.352  27.116  1.00  0.00     0.125 A 
HETATM    7  N5  UNL     1      -1.488  27.774  28.388  1.00  0.00    -0.177 N 
ATOM      8  H5  UNL     1      -0.590  27.818  28.871  1.00  0.00     0.185 HD
ENDROOT
BRANCH   6   9
HETATM    9  N3  UNL     1      -0.445  27.012  26.547  1.00  0.00    -0.305 N 
HETATM   10  C5  UNL     1       0.586  27.976  26.374  1.00  0.00     0.312 C 
HETATM   11  O1  UNL     1       1.223  28.313  27.402  1.00  0.00    -0.262 OA
ATOM     12  H3  UNL     1      -0.311  26.055  26.221  1.00  0.00     0.170 HD
BRANCH  10  13
HETATM   13  C6  UNL     1       0.910  28.561  25.085  1.00  0.00     0.322 C 
HETATM   14  N4  UNL     1      -0.022  28.475  24.021  1.00  0.00    -0.053 NA
HETATM   15  O2  UNL     1       1.996  29.147  24.868  1.00  0.00    -0.266 OA
ENDBRANCH  10  13
ENDBRANCH   6   9
BRANCH   1  16
HETATM   16  N1  UNL     1      -2.533  28.542  30.246  1.00  0.00    -0.234 N 
ATOM     17  H12 UNL     1      -2.098  27.927  30.933  1.00  0.00     0.174 HD
ATOM     18  H11 UNL     1      -2.887  29.452  30.539  1.00  0.00     0.174 HD
ENDBRANCH   1  16
TORSDOF 3
ENDMDL
MODEL 3
REMARK VINA RESULT: -5.764016273      2.914      4.953
REMARK  3 active torsions:
REMARK  status: ('A' for Active; 'I' for Inactive)
REMARK    1  A    between atoms: N1_1  and  C1_4 
REMARK    2  A    between atoms: C4_9  and  N3_10 
REMARK       I    between atoms: N3_10  and  C5_12 
REMARK    3  A    between atoms: C5_12  and  C6_14 
ROOT
HETATM    1  C1  UNL     1      -1.494  26.570  26.553  1.00  0.00     0.677 A 
HETATM    2  N2  UNL     1      -2.519  26.449  25.704  1.00  0.00    -0.202 N 
ATOM      3  H2  UNL     1      -3.277  25.811  25.951  1.00  0.00     0.183 HD
HETATM    4  C2  UNL     1      -2.607  27.120  24.546  1.00  0.00     0.110 A 
HETATM    5  C3  UNL     1      -1.566  27.976  24.239  1.00  0.00     0.067 A 
HETATM    6  C4  UNL     1      -0.508  28.105  25.110  1.00  0.00     0.125 A 
HETATM    7  N5  UNL     1      -0.480  27.405  26.254  1.00  0.00    -0.177 N 
ATOM      8  H5  UNL     1       0.307  27.504  26.895  1.00  0.00     0.185 HD
ENDROOT
BRANCH   6   9
HETATM    9  N3  UNL     1       0.482  28.890  24.865  1.00  0.00    -0.305 N 
HETATM   10  C5  UNL     1       1.776  28.568  25.357  1.00  0.00     0.312 C 
HETATM   11  O1  UNL     1       2.381  27.630  24.783  1.00  0.00    -0.262 OA
ATOM     12  H3  UNL     1       0.338  29.740  24.320  1.00  0.00     0.170 HD
BRANCH  10  13
HETATM   13  C6  UNL     1       2.395  29.271  26.467  1.00  0.00     0.322 C 
HETATM   14  N4  UNL     1       2.237  28.778  27.785  1.00  0.00    -0.053 NA
HETATM   15  O2  UNL     1       3.074  30.312  26.307  1.00  0.00    -0.266 OA
ENDBRANCH  10  13
ENDBRANCH   6   9
BRANCH   1  16
HETATM   16  N1  UNL     1      -1.443  25.910  27.657  1.00  0.00    -0.234 N 
ATOM     17  H12 UNL     1      -2.207  25.273  27.880  1.00  0.00     0.174 HD
ATOM     18  H11 UNL     1      -0.665  26.007  28.307  1.00  0.00     0.174 HD
ENDBRANCH   1  16
TORSDOF 3
ENDMDL
MODEL 4
REMARK VINA RESULT: -5.653839977      2.796      4.202
REMARK  3 active torsions:
REMARK  status: ('A' for Active; 'I' for Inactive)
REMARK    1  A    between atoms: N1_1  and  C1_4 
REMARK    2  A    between atoms: C4_9  and  N3_10 
REMARK       I    between atoms: N3_10  and  C5_12 
REMARK    3  A    between atoms: C5_12  and  C6_14 
ROOT
HETATM    1  C1  UNL     1      -2.868  27.923  29.231  1.00  0.00     0.677 A 
HETATM    2  N2  UNL     1      -4.147  27.637  28.973  1.00  0.00    -0.202 N 
ATOM      3  H2  UNL     1      -4.850  27.912  29.660  1.00  0.00     0.183 HD
HETATM    4  C2  UNL     1      -4.559  27.010  27.861  1.00  0.00     0.110 A 
HETATM    5  C3  UNL     1      -3.583  26.650  26.949  1.00  0.00     0.067 A 
HETATM    6  C4  UNL     1      -2.263  26.942  27.209  1.00  0.00     0.125 A 
HETATM    7  N5  UNL     1      -1.917  27.573  28.342  1.00  0.00    -0.177 N 
ATOM      8  H5  UNL     1      -0.937  27.786  28.530  1.00  0.00     0.185 HD
ENDROOT
BRANCH   6   9
HETATM    9  N3  UNL     1      -1.323  26.626  26.390  1.00  0.00    -0.305 N 
HETATM   10  C5  UNL     1      -0.923  27.550  25.386  1.00  0.00     0.312 C 
HETATM   11  O1  UNL     1      -0.256  28.543  25.765  1.00  0.00    -0.262 OA
ATOM     12  H3  UNL     1      -0.867  25.717  26.460  1.00  0.00     0.170 HD
BRANCH  10  13
HETATM   13  C6  UNL     1      -1.254  27.381  23.982  1.00  0.00     0.322 C 
HETATM   14  N4  UNL     1      -2.397  26.627  23.616  1.00  0.00    -0.053 NA
HETATM   15  O2  UNL     1      -0.561  27.879  23.064  1.00  0.00    -0.266 OA
ENDBRANCH  10  13
ENDBRANCH   6   9
BRANCH   1  16
HETATM   16  N1  UNL     1      -2.509  28.527  30.309  1.00  0.00    -0.234 N 
ATOM     17  H12 UNL     1      -3.102  29.273  30.671  1.00  0.00     0.174 HD
ATOM     18  H11 UNL     1      -1.655  28.280  30.807  1.00  0.00     0.174 HD
ENDBRANCH   1  16
TORSDOF 3
ENDMDL
MODEL 5
REMARK VINA RESULT: -5.643488457      1.869      2.506
REMARK  3 active torsions:
REMARK  status: ('A' for Active; 'I' for Inactive)
REMARK    1  A    between atoms: N1_1  and  C1_4 
REMARK    2  A    between atoms: C4_9  and  N3_10 
REMARK       I    between atoms: N3_10  and  C5_12 
REMARK    3  A    between atoms: C5_12  and  C6_14 
ROOT
HETATM    1  C1  UNL     1      -0.390  28.442  24.588  1.00  0.00     0.677 A 
HETATM    2  N2  UNL     1       0.896  28.803  24.620  1.00  0.00    -0.202 N 
ATOM      3  H2  UNL     1       1.390  28.907  23.733  1.00  0.00     0.183 HD
HETATM    4  C2  UNL     1       1.574  29.037  25.754  1.00  0.00     0.110 A 
HETATM    5  C3  UNL     1       0.878  28.888  26.940  1.00  0.00     0.067 A 
HETATM    6  C4  UNL     1      -0.446  28.517  26.913  1.00  0.00     0.125 A 
HETATM    7  N5  UNL     1      -1.068  28.298  25.745  1.00  0.00    -0.177 N 
ATOM      8  H5  UNL     1      -2.050  28.022  25.731  1.00  0.00     0.185 HD
ENDROOT
BRANCH   6   9
HETATM    9  N3  UNL     1      -1.132  28.366  27.992  1.00  0.00    -0.305 N 
HETATM   10  C5  UNL     1      -1.861  27.164  28.203  1.00  0.00     0.312 C 
HETATM   11  O1  UNL     1      -1.192  26.141  28.489  1.00  0.00    -0.262 OA
ATOM     12  H3  UNL     1      -1.152  29.107  28.692  1.00  0.00     0.170 HD
BRANCH  10  13
HETATM   13  C6  UNL     1      -3.307  27.091  28.101  1.00  0.00     0.322 C 
HETATM   14  N4  UNL     1      -3.950  27.519  26.913  1.00  0.00    -0.053 NA
HETATM   15  O2  UNL     1      -4.025  26.659  29.033  1.00  0.00    -0.266 OA
ENDBRANCH  10  13
ENDBRANCH   6   9
BRANCH   1  16
HETATM   16  N1  UNL     1      -1.009  28.227  23.481  1.00  0.00    -0.234 N 
ATOM     17  H12 UNL     1      -0.672  28.687  22.636  1.00  0.00     0.174 HD
ATOM     18  H11 UNL     1      -1.821  27.612  23.428  1.00  0.00     0.174 HD
ENDBRANCH   1  16
TORSDOF 3
ENDMDL
