MODEL 1
REMARK VINA RESULT: -8.408329636      0.000      0.000
REMARK  5 active torsions:
REMARK  status: ('A' for Active; 'I' for Inactive)
REMARK    1  A    between atoms: C2_2  and  C3_3 
REMARK    2  A    between atoms: C2_2  and  N4_17 
REMARK       I    between atoms: C3_3  and  N1_5 
REMARK    3  A    between atoms: N1_5  and  C4_7 
REMARK    4  A    between atoms: C5_13  and  C6_14 
REMARK    5  A    between atoms: C9_26  and  C11_28 
ROOT
HETATM    1  C1  UNL     1      25.198 -19.384  12.831  1.00  0.00     0.043 C 
HETATM    2  C2  UNL     1      25.906 -18.162  12.295  1.00  0.00     0.178 C 
ENDROOT
BRANCH   2   3
HETATM    3  C3  UNL     1      26.994 -17.733  13.229  1.00  0.00     0.246 C 
HETATM    4  O1  UNL     1      27.944 -17.088  12.652  1.00  0.00    -0.271 OA
HETATM    5  N1  UNL     1      27.066 -17.946  14.549  1.00  0.00    -0.308 N 
ATOM      6  H1  UNL     1      26.544 -17.169  14.952  1.00  0.00     0.170 HD
BRANCH   5   7
HETATM    7  C4  UNL     1      27.428 -18.579  15.506  1.00  0.00     0.166 A 
HETATM    8  N2  UNL     1      26.572 -18.996  16.496  1.00  0.00    -0.223 N 
HETATM    9  O2  UNL     1      27.226 -19.646  17.386  1.00  0.00    -0.154 OA
ATOM     10  H2  UNL     1      25.568 -18.816  16.520  1.00  0.00     0.198 HD
HETATM   11  N3  UNL     1      28.479 -19.713  17.087  1.00  0.00    -0.231 N 
HETATM   12  C5  UNL     1      28.654 -19.047  15.899  1.00  0.00     0.178 A 
ATOM     13  H3  UNL     1      29.206 -20.175  17.633  1.00  0.00     0.197 HD
BRANCH  12  14
HETATM   14  C6  UNL     1      29.948 -18.937  15.287  1.00  0.00     0.232 C 
HETATM   15  O3  UNL     1      30.385 -17.836  14.883  1.00  0.00    -0.643 OA
HETATM   16  O4  UNL     1      30.763 -20.029  15.117  1.00  0.00    -0.643 OA
ENDBRANCH  12  14
ENDBRANCH   5   7
ENDBRANCH   2   3
BRANCH   2  17
HETATM   17  N4  UNL     1      25.028 -17.099  11.896  1.00  0.00    -0.306 N 
HETATM   18  C7  UNL     1      24.337 -16.367  12.901  1.00  0.00     0.196 A 
HETATM   19  N5  UNL     1      24.530 -16.691  14.261  1.00  0.00    -0.063 NA
HETATM   20  N6  UNL     1      23.514 -15.390  12.637  1.00  0.00    -0.305 N 
HETATM   21  C8  UNL     1      23.262 -15.001  11.295  1.00  0.00     0.193 A 
ATOM     22  H6  UNL     1      23.048 -14.902  13.401  1.00  0.00     0.171 HD
HETATM   23  N7  UNL     1      22.358 -13.932  11.043  1.00  0.00    -0.063 NA
HETATM   24  N8  UNL     1      23.856 -15.628  10.375  1.00  0.00    -0.329 N 
HETATM   25  C9  UNL     1      24.787 -16.722  10.515  1.00  0.00     0.198 A 
ATOM     26  H8  UNL     1      23.655 -15.327   9.422  1.00  0.00     0.165 HD
HETATM   27  C10 UNL     1      26.106 -16.193   9.928  1.00  0.00     0.076 C 
BRANCH  25  28
HETATM   28  C11 UNL     1      24.379 -17.854   9.654  1.00  0.00     0.224 C 
HETATM   29  O5  UNL     1      23.439 -18.608   9.973  1.00  0.00    -0.645 OA
HETATM   30  O6  UNL     1      25.056 -18.066   8.482  1.00  0.00    -0.645 OA
ENDBRANCH  25  28
ENDBRANCH   2  17
TORSDOF 5
ENDMDL
MODEL 2
REMARK VINA RESULT: -8.184968339      2.199      6.650
REMARK  5 active torsions:
REMARK  status: ('A' for Active; 'I' for Inactive)
REMARK    1  A    between atoms: C2_2  and  C3_3 
REMARK    2  A    between atoms: C2_2  and  N4_17 
REMARK       I    between atoms: C3_3  and  N1_5 
REMARK    3  A    between atoms: N1_5  and  C4_7 
REMARK    4  A    between atoms: C5_13  and  C6_14 
REMARK    5  A    between atoms: C9_26  and  C11_28 
ROOT
HETATM    1  C1  UNL     1      24.880 -18.996  12.260  1.00  0.00     0.043 C 
HETATM    2  C2  UNL     1      25.163 -18.578  13.684  1.00  0.00     0.178 C 
ENDROOT
BRANCH   2   3
HETATM    3  C3  UNL     1      24.536 -17.250  13.976  1.00  0.00     0.246 C 
HETATM    4  O1  UNL     1      24.165 -17.113  15.198  1.00  0.00    -0.271 OA
HETATM    5  N1  UNL     1      24.338 -16.237  13.123  1.00  0.00    -0.308 N 
ATOM      6  H1  UNL     1      25.216 -15.721  13.145  1.00  0.00     0.170 HD
BRANCH   5   7
HETATM    7  C4  UNL     1      23.660 -15.621  12.344  1.00  0.00     0.166 A 
HETATM    8  N2  UNL     1      22.653 -14.771  12.733  1.00  0.00    -0.223 N 
HETATM    9  O2  UNL     1      22.101 -14.253  11.698  1.00  0.00    -0.154 OA
ATOM     10  H2  UNL     1      22.385 -14.581  13.699  1.00  0.00     0.198 HD
HETATM   11  N3  UNL     1      22.652 -14.681  10.614  1.00  0.00    -0.231 N 
HETATM   12  C5  UNL     1      23.649 -15.553  10.975  1.00  0.00     0.178 A 
ATOM     13  H3  UNL     1      22.394 -14.419   9.662  1.00  0.00     0.197 HD
BRANCH  12  14
HETATM   14  C6  UNL     1      24.461 -16.211   9.989  1.00  0.00     0.232 C 
HETATM   15  O3  UNL     1      25.544 -15.716   9.605  1.00  0.00    -0.643 OA
HETATM   16  O4  UNL     1      24.088 -17.407   9.426  1.00  0.00    -0.643 OA
ENDBRANCH  12  14
ENDBRANCH   5   7
ENDBRANCH   2   3
BRANCH   2  17
HETATM   17  N4  UNL     1      26.545 -18.664  14.062  1.00  0.00    -0.306 N 
HETATM   18  C7  UNL     1      27.495 -17.856  13.378  1.00  0.00     0.196 A 
HETATM   19  N5  UNL     1      27.065 -16.985  12.353  1.00  0.00    -0.063 NA
HETATM   20  N6  UNL     1      28.771 -17.871  13.644  1.00  0.00    -0.305 N 
HETATM   21  C8  UNL     1      29.288 -18.719  14.658  1.00  0.00     0.193 A 
ATOM     22  H6  UNL     1      29.404 -17.268  13.119  1.00  0.00     0.171 HD
HETATM   23  N7  UNL     1      30.685 -18.710  14.922  1.00  0.00    -0.063 NA
HETATM   24  N8  UNL     1      28.475 -19.453  15.287  1.00  0.00    -0.329 N 
HETATM   25  C9  UNL     1      27.047 -19.542  15.103  1.00  0.00     0.198 A 
ATOM     26  H8  UNL     1      28.875 -20.052  16.009  1.00  0.00     0.165 HD
HETATM   27  C10 UNL     1      26.449 -19.084  16.442  1.00  0.00     0.076 C 
BRANCH  25  28
HETATM   28  C11 UNL     1      26.642 -20.955  14.933  1.00  0.00     0.224 C 
HETATM   29  O5  UNL     1      26.088 -21.354  13.890  1.00  0.00    -0.645 OA
HETATM   30  O6  UNL     1      26.888 -21.837  15.954  1.00  0.00    -0.645 OA
ENDBRANCH  25  28
ENDBRANCH   2  17
TORSDOF 5
ENDMDL
MODEL 3
REMARK VINA RESULT: -7.752828562      1.143      1.201
REMARK  5 active torsions:
REMARK  status: ('A' for Active; 'I' for Inactive)
REMARK    1  A    between atoms: C2_2  and  C3_3 
REMARK    2  A    between atoms: C2_2  and  N4_17 
REMARK       I    between atoms: C3_3  and  N1_5 
REMARK    3  A    between atoms: N1_5  and  C4_7 
REMARK    4  A    between atoms: C5_13  and  C6_14 
REMARK    5  A    between atoms: C9_26  and  C11_28 
ROOT
HETATM    1  C1  UNL     1      24.742 -19.282  12.066  1.00  0.00     0.043 C 
HETATM    2  C2  UNL     1      25.533 -18.003  11.929  1.00  0.00     0.178 C 
ENDROOT
BRANCH   2   3
HETATM    3  C3  UNL     1      26.544 -17.889  13.028  1.00  0.00     0.246 C 
HETATM    4  O1  UNL     1      27.417 -16.967  12.832  1.00  0.00    -0.271 OA
HETATM    5  N1  UNL     1      26.619 -18.623  14.145  1.00  0.00    -0.308 N 
ATOM      6  H1  UNL     1      25.997 -18.144  14.796  1.00  0.00     0.170 HD
BRANCH   5   7
HETATM    7  C4  UNL     1      27.038 -19.555  14.779  1.00  0.00     0.166 A 
HETATM    8  N2  UNL     1      26.304 -20.691  15.019  1.00  0.00    -0.223 N 
HETATM    9  O2  UNL     1      26.997 -21.513  15.717  1.00  0.00    -0.154 OA
ATOM     10  H2  UNL     1      25.352 -20.855  14.692  1.00  0.00     0.198 HD
HETATM   11  N3  UNL     1      28.164 -21.032  15.980  1.00  0.00    -0.231 N 
HETATM   12  C5  UNL     1      28.235 -19.788  15.404  1.00  0.00     0.178 A 
ATOM     13  H3  UNL     1      28.899 -21.491  16.519  1.00  0.00     0.197 HD
BRANCH  12  14
HETATM   14  C6  UNL     1      29.417 -18.979  15.515  1.00  0.00     0.232 C 
HETATM   15  O3  UNL     1      30.014 -18.847  16.607  1.00  0.00    -0.643 OA
HETATM   16  O4  UNL     1      29.944 -18.317  14.433  1.00  0.00    -0.643 OA
ENDBRANCH  12  14
ENDBRANCH   5   7
ENDBRANCH   2   3
BRANCH   2  17
HETATM   17  N4  UNL     1      24.730 -16.827  11.754  1.00  0.00    -0.306 N 
HETATM   18  C7  UNL     1      24.008 -16.317  12.869  1.00  0.00     0.196 A 
HETATM   19  N5  UNL     1      24.099 -16.967  14.119  1.00  0.00    -0.063 NA
HETATM   20  N6  UNL     1      23.246 -15.261  12.806  1.00  0.00    -0.305 N 
HETATM   21  C8  UNL     1      23.097 -14.549  11.587  1.00  0.00     0.193 A 
ATOM     22  H6  UNL     1      22.754 -14.943  13.641  1.00  0.00     0.171 HD
HETATM   23  N7  UNL     1      22.257 -13.401  11.555  1.00  0.00    -0.063 NA
HETATM   24  N8  UNL     1      23.721 -14.972  10.575  1.00  0.00    -0.329 N 
HETATM   25  C9  UNL     1      24.593 -16.118  10.495  1.00  0.00     0.198 A 
ATOM     26  H8  UNL     1      23.594 -14.441   9.713  1.00  0.00     0.165 HD
HETATM   27  C10 UNL     1      25.968 -15.540  10.122  1.00  0.00     0.076 C 
BRANCH  25  28
HETATM   28  C11 UNL     1      24.192 -16.987   9.366  1.00  0.00     0.224 C 
HETATM   29  O5  UNL     1      23.881 -18.181   9.541  1.00  0.00    -0.645 OA
HETATM   30  O6  UNL     1      24.165 -16.454   8.103  1.00  0.00    -0.645 OA
ENDBRANCH  25  28
ENDBRANCH   2  17
TORSDOF 5
ENDMDL
MODEL 4
REMARK VINA RESULT: -7.387161476      1.728      2.579
REMARK  5 active torsions:
REMARK  status: ('A' for Active; 'I' for Inactive)
REMARK    1  A    between atoms: C2_2  and  C3_3 
REMARK    2  A    between atoms: C2_2  and  N4_17 
REMARK       I    between atoms: C3_3  and  N1_5 
REMARK    3  A    between atoms: N1_5  and  C4_7 
REMARK    4  A    between atoms: C5_13  and  C6_14 
REMARK    5  A    between atoms: C9_26  and  C11_28 
ROOT
HETATM    1  C1  UNL     1      25.535 -19.926  12.707  1.00  0.00     0.043 C 
HETATM    2  C2  UNL     1      26.133 -18.674  12.112  1.00  0.00     0.178 C 
ENDROOT
BRANCH   2   3
HETATM    3  C3  UNL     1      27.090 -18.041  13.074  1.00  0.00     0.246 C 
HETATM    4  O1  UNL     1      28.018 -17.358  12.505  1.00  0.00    -0.271 OA
HETATM    5  N1  UNL     1      27.070 -18.115  14.411  1.00  0.00    -0.308 N 
ATOM      6  H1  UNL     1      26.441 -17.363  14.689  1.00  0.00     0.170 HD
BRANCH   5   7
HETATM    7  C4  UNL     1      27.409 -18.609  15.453  1.00  0.00     0.166 A 
HETATM    8  N2  UNL     1      26.527 -18.913  16.462  1.00  0.00    -0.223 N 
HETATM    9  O2  UNL     1      27.162 -19.426  17.450  1.00  0.00    -0.154 OA
ATOM     10  H2  UNL     1      25.520 -18.755  16.429  1.00  0.00     0.198 HD
HETATM   11  N3  UNL     1      28.425 -19.502  17.204  1.00  0.00    -0.231 N 
HETATM   12  C5  UNL     1      28.629 -18.994  15.944  1.00  0.00     0.178 A 
ATOM     13  H3  UNL     1      29.141 -19.872  17.829  1.00  0.00     0.197 HD
BRANCH  12  14
HETATM   14  C6  UNL     1      29.943 -18.934  15.366  1.00  0.00     0.232 C 
HETATM   15  O3  UNL     1      30.425 -17.854  14.958  1.00  0.00    -0.643 OA
HETATM   16  O4  UNL     1      30.726 -20.055  15.234  1.00  0.00    -0.643 OA
ENDBRANCH  12  14
ENDBRANCH   5   7
ENDBRANCH   2   3
BRANCH   2  17
HETATM   17  N4  UNL     1      25.171 -17.761  11.564  1.00  0.00    -0.306 N 
HETATM   18  C7  UNL     1      25.322 -17.332  10.216  1.00  0.00     0.196 A 
HETATM   19  N5  UNL     1      26.401 -17.814   9.445  1.00  0.00    -0.063 NA
HETATM   20  N6  UNL     1      24.504 -16.500   9.634  1.00  0.00    -0.305 N 
HETATM   21  C8  UNL     1      23.393 -15.967  10.339  1.00  0.00     0.193 A 
ATOM     22  H6  UNL     1      24.664 -16.230   8.664  1.00  0.00     0.171 HD
HETATM   23  N7  UNL     1      22.522 -15.061   9.673  1.00  0.00    -0.063 NA
HETATM   24  N8  UNL     1      23.226 -16.323  11.539  1.00  0.00    -0.329 N 
HETATM   25  C9  UNL     1      24.043 -17.229  12.308  1.00  0.00     0.198 A 
ATOM     26  H8  UNL     1      22.421 -15.923  12.019  1.00  0.00     0.165 HD
HETATM   27  C10 UNL     1      23.109 -18.399  12.658  1.00  0.00     0.076 C 
BRANCH  25  28
HETATM   28  C11 UNL     1      24.423 -16.606  13.596  1.00  0.00     0.224 C 
HETATM   29  O5  UNL     1      25.016 -15.511  13.640  1.00  0.00    -0.645 OA
HETATM   30  O6  UNL     1      24.108 -17.259  14.760  1.00  0.00    -0.645 OA
ENDBRANCH  25  28
ENDBRANCH   2  17
TORSDOF 5
ENDMDL
MODEL 5
REMARK VINA RESULT: -7.287952542      2.641      6.952
REMARK  5 active torsions:
REMARK  status: ('A' for Active; 'I' for Inactive)
REMARK    1  A    between atoms: C2_2  and  C3_3 
REMARK    2  A    between atoms: C2_2  and  N4_17 
REMARK       I    between atoms: C3_3  and  N1_5 
REMARK    3  A    between atoms: N1_5  and  C4_7 
REMARK    4  A    between atoms: C5_13  and  C6_14 
REMARK    5  A    between atoms: C9_26  and  C11_28 
ROOT
HETATM    1  C1  UNL     1      24.937 -19.237  12.161  1.00  0.00     0.043 C 
HETATM    2  C2  UNL     1      25.157 -18.648  13.534  1.00  0.00     0.178 C 
ENDROOT
BRANCH   2   3
HETATM    3  C3  UNL     1      24.500 -17.307  13.642  1.00  0.00     0.246 C 
HETATM    4  O1  UNL     1      24.155 -16.998  14.841  1.00  0.00    -0.271 OA
HETATM    5  N1  UNL     1      24.251 -16.440  12.653  1.00  0.00    -0.308 N 
ATOM      6  H1  UNL     1      25.115 -15.904  12.573  1.00  0.00     0.170 HD
BRANCH   5   7
HETATM    7  C4  UNL     1      23.537 -15.965  11.811  1.00  0.00     0.166 A 
HETATM    8  N2  UNL     1      23.288 -16.577  10.605  1.00  0.00    -0.223 N 
HETATM    9  O2  UNL     1      22.497 -15.849   9.907  1.00  0.00    -0.154 OA
ATOM     10  H2  UNL     1      23.675 -17.474  10.311  1.00  0.00     0.198 HD
HETATM   11  N3  UNL     1      22.175 -14.772  10.539  1.00  0.00    -0.231 N 
HETATM   12  C5  UNL     1      22.813 -14.803  11.755  1.00  0.00     0.178 A 
ATOM     13  H3  UNL     1      21.559 -14.034  10.199  1.00  0.00     0.197 HD
BRANCH  12  14
HETATM   14  C6  UNL     1      22.661 -13.737  12.706  1.00  0.00     0.232 C 
HETATM   15  O3  UNL     1      23.534 -12.849  12.832  1.00  0.00    -0.643 OA
HETATM   16  O4  UNL     1      21.556 -13.644  13.517  1.00  0.00    -0.643 OA
ENDBRANCH  12  14
ENDBRANCH   5   7
ENDBRANCH   2   3
BRANCH   2  17
HETATM   17  N4  UNL     1      26.524 -18.662  13.971  1.00  0.00    -0.306 N 
HETATM   18  C7  UNL     1      27.471 -17.851  13.287  1.00  0.00     0.196 A 
HETATM   19  N5  UNL     1      27.053 -17.047  12.205  1.00  0.00    -0.063 NA
HETATM   20  N6  UNL     1      28.735 -17.803  13.605  1.00  0.00    -0.305 N 
HETATM   21  C8  UNL     1      29.239 -18.582  14.679  1.00  0.00     0.193 A 
ATOM     22  H6  UNL     1      29.366 -17.201  13.077  1.00  0.00     0.171 HD
HETATM   23  N7  UNL     1      30.623 -18.506  14.998  1.00  0.00    -0.063 NA
HETATM   24  N8  UNL     1      28.429 -19.316  15.310  1.00  0.00    -0.329 N 
HETATM   25  C9  UNL     1      27.014 -19.470  15.073  1.00  0.00     0.198 A 
ATOM     26  H8  UNL     1      28.820 -19.864  16.076  1.00  0.00     0.165 HD
HETATM   27  C10 UNL     1      26.343 -18.972  16.364  1.00  0.00     0.076 C 
BRANCH  25  28
HETATM   28  C11 UNL     1      26.669 -20.904  14.957  1.00  0.00     0.224 C 
HETATM   29  O5  UNL     1      26.093 -21.356  13.948  1.00  0.00    -0.645 OA
HETATM   30  O6  UNL     1      26.996 -21.745  15.989  1.00  0.00    -0.645 OA
ENDBRANCH  25  28
ENDBRANCH   2  17
TORSDOF 5
ENDMDL
