MODEL 1
REMARK VINA RESULT: -8.365005265      0.000      0.000
REMARK  10 active torsions:
REMARK  status: ('A' for Active; 'I' for Inactive)
REMARK    1  A    between atoms: C2_6  and  N4_7 
REMARK    2  A    between atoms: N4_7  and  C3_9 
REMARK    3  A    between atoms: C3_9  and  C4_14 
REMARK    4  A    between atoms: N5_10  and  O1_12 
REMARK    5  A    between atoms: C7_17  and  N6_18 
REMARK    6  A    between atoms: N9_27  and  C10_28 
REMARK    7  A    between atoms: C10_28  and  C11_29 
REMARK    8  A    between atoms: C11_29  and  O2_30 
REMARK    9  A    between atoms: C11_29  and  C12_32 
REMARK   10  A    between atoms: C12_32  and  O3_33 
ROOT
HETATM    1  C4  UNL     1      24.706 -16.971  11.994  1.00  0.00     0.084 A 
HETATM    2  C5  UNL     1      25.153 -18.048  11.208  1.00  0.00     0.052 A 
HETATM    3  C6  UNL     1      25.205 -17.614   9.930  1.00  0.00     0.054 A 
HETATM    4  C7  UNL     1      25.578 -18.264   8.751  1.00  0.00     0.113 A 
HETATM    5  N7  UNL     1      25.511 -17.520   7.630  1.00  0.00    -0.338 N 
ATOM      6  H7  UNL     1      25.772 -17.949   6.743  1.00  0.00     0.168 HD
HETATM    7  C8  UNL     1      25.114 -16.234   7.634  1.00  0.00     0.183 A 
HETATM    8  N8  UNL     1      24.753 -15.607   8.787  1.00  0.00    -0.338 N 
ATOM      9  H8  UNL     1      24.455 -14.632   8.779  1.00  0.00     0.168 HD
HETATM   10  C9  UNL     1      24.800 -16.305   9.944  1.00  0.00     0.123 A 
HETATM   11  N9  UNL     1      24.493 -15.911  11.216  1.00  0.00    -0.327 N 
ENDROOT
BRANCH   1  12
HETATM   12  C3  UNL     1      24.535 -17.064  13.432  1.00  0.00     0.167 C 
HETATM   13  N5  UNL     1      23.403 -17.212  14.005  1.00  0.00    -0.251 N 
ATOM     14  H5  UNL     1      22.578 -17.267  13.409  1.00  0.00     0.196 HD
BRANCH  12  15
HETATM   15  N4  UNL     1      25.677 -16.988  14.266  1.00  0.00    -0.170 N 
ATOM     16  H4  UNL     1      25.997 -16.079  14.599  1.00  0.00     0.186 HD
BRANCH  15  17
HETATM   17  C2  UNL     1      26.319 -18.057  14.611  1.00  0.00     0.712 A 
HETATM   18  N3  UNL     1      25.870 -19.339  14.498  1.00  0.00    -0.113 N 
HETATM   19  N2  UNL     1      26.820 -20.149  14.962  1.00  0.00     0.011 NA
ATOM     20  H3  UNL     1      24.966 -19.627  14.124  1.00  0.00     0.203 HD
HETATM   21  N1  UNL     1      27.841 -19.383  15.355  1.00  0.00    -0.208 N 
HETATM   22  C1  UNL     1      29.049 -19.933  15.913  1.00  0.00     0.198 C 
HETATM   23  N10 UNL     1      27.546 -18.115  15.147  1.00  0.00    -0.116 N 
ATOM     24  H10 UNL     1      28.147 -17.318  15.357  1.00  0.00     0.207 HD
ENDBRANCH  15  17
ENDBRANCH  12  15
BRANCH  13  25
HETATM   25  O1  UNL     1      23.213 -17.301  15.344  1.00  0.00    -0.288 OA
ATOM     26  H1  UNL     1      22.784 -18.023  15.788  1.00  0.00     0.244 HD
ENDBRANCH  13  25
ENDBRANCH   1  12
BRANCH  11  27
HETATM   27  C10 UNL     1      24.019 -14.589  11.601  1.00  0.00     0.165 C 
BRANCH  27  28
HETATM   28  C11 UNL     1      22.528 -14.469  11.534  1.00  0.00     0.160 C 
BRANCH  28  29
HETATM   29  O2  UNL     1      22.120 -14.550  10.183  1.00  0.00    -0.392 OA
ATOM     30  H2  UNL     1      21.391 -15.155  10.116  1.00  0.00     0.210 HD
ENDBRANCH  28  29
BRANCH  28  31
HETATM   31  C12 UNL     1      22.174 -13.051  11.972  1.00  0.00     0.197 C 
BRANCH  31  32
HETATM   32  O3  UNL     1      22.744 -12.724  13.192  1.00  0.00    -0.398 OA
ATOM     33  H3  UNL     1      22.869 -13.487  13.745  1.00  0.00     0.209 HD
ENDBRANCH  31  32
ENDBRANCH  28  31
ENDBRANCH  27  28
ENDBRANCH  11  27
BRANCH   4  34
HETATM   34  N6  UNL     1      25.959 -19.496   8.743  1.00  0.00    -0.385 N 
ATOM     35  H62 UNL     1      25.453 -20.229   9.240  1.00  0.00     0.157 HD
ATOM     36  H61 UNL     1      26.792 -19.800   8.239  1.00  0.00     0.157 HD
ENDBRANCH   4  34
TORSDOF 10
ENDMDL
MODEL 2
REMARK VINA RESULT: -7.675237271      1.821      6.131
REMARK  10 active torsions:
REMARK  status: ('A' for Active; 'I' for Inactive)
REMARK    1  A    between atoms: C2_6  and  N4_7 
REMARK    2  A    between atoms: N4_7  and  C3_9 
REMARK    3  A    between atoms: C3_9  and  C4_14 
REMARK    4  A    between atoms: N5_10  and  O1_12 
REMARK    5  A    between atoms: C7_17  and  N6_18 
REMARK    6  A    between atoms: N9_27  and  C10_28 
REMARK    7  A    between atoms: C10_28  and  C11_29 
REMARK    8  A    between atoms: C11_29  and  O2_30 
REMARK    9  A    between atoms: C11_29  and  C12_32 
REMARK   10  A    between atoms: C12_32  and  O3_33 
ROOT
HETATM    1  C4  UNL     1      24.610 -16.984  13.070  1.00  0.00     0.084 A 
HETATM    2  C5  UNL     1      25.997 -16.997  12.841  1.00  0.00     0.052 A 
HETATM    3  C6  UNL     1      26.556 -17.743  13.820  1.00  0.00     0.054 A 
HETATM    4  C7  UNL     1      27.887 -18.082  14.072  1.00  0.00     0.113 A 
HETATM    5  N7  UNL     1      28.094 -18.857  15.154  1.00  0.00    -0.338 N 
ATOM      6  H7  UNL     1      29.049 -19.132  15.382  1.00  0.00     0.168 HD
HETATM    7  C8  UNL     1      27.092 -19.283  15.946  1.00  0.00     0.183 A 
HETATM    8  N8  UNL     1      25.798 -18.949  15.692  1.00  0.00    -0.338 N 
ATOM      9  H8  UNL     1      25.046 -19.277  16.299  1.00  0.00     0.168 HD
HETATM   10  C9  UNL     1      25.529 -18.171  14.619  1.00  0.00     0.123 A 
HETATM   11  N9  UNL     1      24.332 -17.703  14.157  1.00  0.00    -0.327 N 
ENDROOT
BRANCH   1  12
HETATM   12  C3  UNL     1      23.677 -16.282  12.208  1.00  0.00     0.167 C 
HETATM   13  N5  UNL     1      23.115 -15.179  12.519  1.00  0.00    -0.251 N 
ATOM     14  H5  UNL     1      23.341 -14.774  13.427  1.00  0.00     0.196 HD
BRANCH  12  15
HETATM   15  N4  UNL     1      23.357 -16.838  10.946  1.00  0.00    -0.170 N 
ATOM     16  H4  UNL     1      22.663 -17.583  10.885  1.00  0.00     0.186 HD
BRANCH  15  17
HETATM   17  C2  UNL     1      23.934 -16.414   9.868  1.00  0.00     0.712 A 
HETATM   18  N3  UNL     1      23.433 -15.496   8.995  1.00  0.00    -0.113 N 
HETATM   19  N2  UNL     1      24.323 -15.331   8.018  1.00  0.00     0.011 NA
ATOM     20  H3  UNL     1      22.534 -15.019   9.074  1.00  0.00     0.203 HD
HETATM   21  N1  UNL     1      25.358 -16.132   8.282  1.00  0.00    -0.208 N 
HETATM   22  C1  UNL     1      26.513 -16.208   7.425  1.00  0.00     0.198 C 
HETATM   23  N10 UNL     1      25.131 -16.792   9.400  1.00  0.00    -0.116 N 
ATOM     24  H10 UNL     1      25.757 -17.471   9.833  1.00  0.00     0.207 HD
ENDBRANCH  15  17
ENDBRANCH  12  15
BRANCH  13  25
HETATM   25  O1  UNL     1      22.240 -14.502  11.735  1.00  0.00    -0.288 OA
ATOM     26  H1  UNL     1      21.294 -14.533  11.819  1.00  0.00     0.244 HD
ENDBRANCH  13  25
ENDBRANCH   1  12
BRANCH  11  27
HETATM   27  C10 UNL     1      23.033 -17.953  14.766  1.00  0.00     0.165 C 
BRANCH  27  28
HETATM   28  C11 UNL     1      22.881 -17.281  16.095  1.00  0.00     0.160 C 
BRANCH  28  29
HETATM   29  O2  UNL     1      23.528 -18.061  17.080  1.00  0.00    -0.392 OA
ATOM     30  H2  UNL     1      23.320 -17.710  17.938  1.00  0.00     0.210 HD
ENDBRANCH  28  29
BRANCH  28  31
HETATM   31  C12 UNL     1      21.399 -17.337  16.455  1.00  0.00     0.197 C 
BRANCH  31  32
HETATM   32  O3  UNL     1      20.845 -18.579  16.196  1.00  0.00    -0.398 OA
ATOM     33  H3  UNL     1      19.975 -18.668  16.568  1.00  0.00     0.209 HD
ENDBRANCH  31  32
ENDBRANCH  28  31
ENDBRANCH  27  28
ENDBRANCH  11  27
BRANCH   4  34
HETATM   34  N6  UNL     1      28.849 -17.676  13.315  1.00  0.00    -0.385 N 
ATOM     35  H62 UNL     1      28.723 -17.490  12.321  1.00  0.00     0.157 HD
ATOM     36  H61 UNL     1      29.791 -17.522  13.677  1.00  0.00     0.157 HD
ENDBRANCH   4  34
TORSDOF 10
ENDMDL
MODEL 3
REMARK VINA RESULT: -7.543239705      1.793      2.790
REMARK  10 active torsions:
REMARK  status: ('A' for Active; 'I' for Inactive)
REMARK    1  A    between atoms: C2_6  and  N4_7 
REMARK    2  A    between atoms: N4_7  and  C3_9 
REMARK    3  A    between atoms: C3_9  and  C4_14 
REMARK    4  A    between atoms: N5_10  and  O1_12 
REMARK    5  A    between atoms: C7_17  and  N6_18 
REMARK    6  A    between atoms: N9_27  and  C10_28 
REMARK    7  A    between atoms: C10_28  and  C11_29 
REMARK    8  A    between atoms: C11_29  and  O2_30 
REMARK    9  A    between atoms: C11_29  and  C12_32 
REMARK   10  A    between atoms: C12_32  and  O3_33 
ROOT
HETATM    1  C4  UNL     1      25.159 -17.613  11.831  1.00  0.00     0.084 A 
HETATM    2  C5  UNL     1      25.608 -18.309  10.695  1.00  0.00     0.052 A 
HETATM    3  C6  UNL     1      25.308 -17.550   9.618  1.00  0.00     0.054 A 
HETATM    4  C7  UNL     1      25.528 -17.759   8.254  1.00  0.00     0.113 A 
HETATM    5  N7  UNL     1      25.094 -16.780   7.439  1.00  0.00    -0.338 N 
ATOM      6  H7  UNL     1      25.230 -16.885   6.433  1.00  0.00     0.168 HD
HETATM    7  C8  UNL     1      24.489 -15.668   7.896  1.00  0.00     0.183 A 
HETATM    8  N8  UNL     1      24.279 -15.471   9.226  1.00  0.00    -0.338 N 
ATOM      9  H8  UNL     1      23.820 -14.624   9.562  1.00  0.00     0.168 HD
HETATM   10  C9  UNL     1      24.693 -16.422  10.093  1.00  0.00     0.123 A 
HETATM   11  N9  UNL     1      24.602 -16.462  11.456  1.00  0.00    -0.327 N 
ENDROOT
BRANCH   1  12
HETATM   12  C3  UNL     1      25.318 -18.123  13.180  1.00  0.00     0.167 C 
HETATM   13  N5  UNL     1      25.631 -19.330  13.451  1.00  0.00    -0.251 N 
ATOM     14  H5  UNL     1      25.776 -19.966  12.668  1.00  0.00     0.196 HD
BRANCH  12  15
HETATM   15  N4  UNL     1      25.117 -17.245  14.274  1.00  0.00    -0.170 N 
ATOM     16  H4  UNL     1      25.824 -16.542  14.491  1.00  0.00     0.186 HD
BRANCH  15  17
HETATM   17  C2  UNL     1      24.050 -17.323  15.000  1.00  0.00     0.712 A 
HETATM   18  N3  UNL     1      22.789 -16.971  14.620  1.00  0.00    -0.113 N 
HETATM   19  N2  UNL     1      21.972 -17.199  15.647  1.00  0.00     0.011 NA
ATOM     20  H3  UNL     1      22.519 -16.600  13.709  1.00  0.00     0.203 HD
HETATM   21  N1  UNL     1      22.714 -17.683  16.647  1.00  0.00    -0.208 N 
HETATM   22  C1  UNL     1      22.150 -18.043  17.922  1.00  0.00     0.198 C 
HETATM   23  N10 UNL     1      23.973 -17.762  16.264  1.00  0.00    -0.116 N 
ATOM     24  H10 UNL     1      24.752 -18.098  16.830  1.00  0.00     0.207 HD
ENDBRANCH  15  17
ENDBRANCH  12  15
BRANCH  13  25
HETATM   25  O1  UNL     1      25.785 -19.834  14.700  1.00  0.00    -0.288 OA
ATOM     26  H1  UNL     1      25.281 -20.550  15.067  1.00  0.00     0.244 HD
ENDBRANCH  13  25
ENDBRANCH   1  12
BRANCH  11  27
HETATM   27  C10 UNL     1      23.998 -15.436  12.294  1.00  0.00     0.165 C 
BRANCH  27  28
HETATM   28  C11 UNL     1      23.288 -14.386  11.497  1.00  0.00     0.160 C 
BRANCH  28  29
HETATM   29  O2  UNL     1      24.133 -13.260  11.366  1.00  0.00    -0.392 OA
ATOM     30  H2  UNL     1      25.030 -13.557  11.272  1.00  0.00     0.210 HD
ENDBRANCH  28  29
BRANCH  28  31
HETATM   31  C12 UNL     1      22.113 -13.904  12.343  1.00  0.00     0.197 C 
BRANCH  31  32
HETATM   32  O3  UNL     1      22.474 -12.883  13.206  1.00  0.00    -0.398 OA
ATOM     33  H3  UNL     1      22.811 -13.213  14.031  1.00  0.00     0.209 HD
ENDBRANCH  31  32
ENDBRANCH  28  31
ENDBRANCH  27  28
ENDBRANCH  11  27
BRANCH   4  34
HETATM   34  N6  UNL     1      26.108 -18.824   7.813  1.00  0.00    -0.385 N 
ATOM     35  H62 UNL     1      26.005 -19.732   8.266  1.00  0.00     0.157 HD
ATOM     36  H61 UNL     1      26.702 -18.809   6.983  1.00  0.00     0.157 HD
ENDBRANCH   4  34
TORSDOF 10
ENDMDL
MODEL 4
REMARK VINA RESULT: -7.510384876      2.785      4.306
REMARK  10 active torsions:
REMARK  status: ('A' for Active; 'I' for Inactive)
REMARK    1  A    between atoms: C2_6  and  N4_7 
REMARK    2  A    between atoms: N4_7  and  C3_9 
REMARK    3  A    between atoms: C3_9  and  C4_14 
REMARK    4  A    between atoms: N5_10  and  O1_12 
REMARK    5  A    between atoms: C7_17  and  N6_18 
REMARK    6  A    between atoms: N9_27  and  C10_28 
REMARK    7  A    between atoms: C10_28  and  C11_29 
REMARK    8  A    between atoms: C11_29  and  O2_30 
REMARK    9  A    between atoms: C11_29  and  C12_32 
REMARK   10  A    between atoms: C12_32  and  O3_33 
ROOT
HETATM    1  C4  UNL     1      25.341 -16.995  12.752  1.00  0.00     0.084 A 
HETATM    2  C5  UNL     1      24.841 -15.708  13.015  1.00  0.00     0.052 A 
HETATM    3  C6  UNL     1      23.874 -15.461  12.103  1.00  0.00     0.054 A 
HETATM    4  C7  UNL     1      23.056 -14.347  11.907  1.00  0.00     0.113 A 
HETATM    5  N7  UNL     1      22.184 -14.438  10.886  1.00  0.00    -0.338 N 
ATOM      6  H7  UNL     1      21.564 -13.649  10.700  1.00  0.00     0.168 HD
HETATM    7  C8  UNL     1      22.096 -15.527  10.100  1.00  0.00     0.183 A 
HETATM    8  N8  UNL     1      22.896 -16.610  10.298  1.00  0.00    -0.338 N 
ATOM      9  H8  UNL     1      22.821 -17.431   9.697  1.00  0.00     0.168 HD
HETATM   10  C9  UNL     1      23.793 -16.575  11.309  1.00  0.00     0.123 A 
HETATM   11  N9  UNL     1      24.697 -17.518  11.710  1.00  0.00    -0.327 N 
ENDROOT
BRANCH   1  12
HETATM   12  C3  UNL     1      26.394 -17.607  13.541  1.00  0.00     0.167 C 
HETATM   13  N5  UNL     1      27.619 -17.647  13.183  1.00  0.00    -0.251 N 
ATOM     14  H5  UNL     1      27.861 -17.221  12.289  1.00  0.00     0.196 HD
BRANCH  12  15
HETATM   15  N4  UNL     1      26.063 -18.200  14.784  1.00  0.00    -0.170 N 
ATOM     16  H4  UNL     1      25.580 -17.648  15.493  1.00  0.00     0.186 HD
BRANCH  15  17
HETATM   17  C2  UNL     1      26.367 -19.433  15.033  1.00  0.00     0.712 A 
HETATM   18  N3  UNL     1      26.111 -20.503  14.229  1.00  0.00    -0.113 N 
HETATM   19  N2  UNL     1      26.575 -21.593  14.837  1.00  0.00     0.011 NA
ATOM     20  H3  UNL     1      25.645 -20.475  13.322  1.00  0.00     0.203 HD
HETATM   21  N1  UNL     1      27.111 -21.205  15.997  1.00  0.00    -0.208 N 
HETATM   22  C1  UNL     1      27.713 -22.134  16.919  1.00  0.00     0.198 C 
HETATM   23  N10 UNL     1      26.989 -19.899  16.125  1.00  0.00    -0.116 N 
ATOM     24  H10 UNL     1      27.312 -19.341  16.915  1.00  0.00     0.207 HD
ENDBRANCH  15  17
ENDBRANCH  12  15
BRANCH  13  25
HETATM   25  O1  UNL     1      28.622 -18.211  13.898  1.00  0.00    -0.288 OA
ATOM     26  H1  UNL     1      28.734 -18.133  14.838  1.00  0.00     0.244 HD
ENDBRANCH  13  25
ENDBRANCH   1  12
BRANCH  11  27
HETATM   27  C10 UNL     1      24.893 -18.820  11.087  1.00  0.00     0.165 C 
BRANCH  27  28
HETATM   28  C11 UNL     1      25.954 -18.799  10.030  1.00  0.00     0.160 C 
BRANCH  28  29
HETATM   29  O2  UNL     1      26.742 -17.637  10.194  1.00  0.00    -0.392 OA
ATOM     30  H2  UNL     1      26.188 -16.871  10.093  1.00  0.00     0.210 HD
ENDBRANCH  28  29
BRANCH  28  31
HETATM   31  C12 UNL     1      25.245 -18.613   8.692  1.00  0.00     0.197 C 
BRANCH  31  32
HETATM   32  O3  UNL     1      26.125 -18.666   7.624  1.00  0.00    -0.398 OA
ATOM     33  H3  UNL     1      25.852 -19.295   6.965  1.00  0.00     0.209 HD
ENDBRANCH  31  32
ENDBRANCH  28  31
ENDBRANCH  27  28
ENDBRANCH  11  27
BRANCH   4  34
HETATM   34  N6  UNL     1      23.137 -13.301  12.658  1.00  0.00    -0.385 N 
ATOM     35  H62 UNL     1      22.316 -12.853  13.065  1.00  0.00     0.157 HD
ATOM     36  H61 UNL     1      24.033 -12.867  12.883  1.00  0.00     0.157 HD
ENDBRANCH   4  34
TORSDOF 10
ENDMDL
MODEL 5
REMARK VINA RESULT: -7.507042347      2.134      3.891
REMARK  10 active torsions:
REMARK  status: ('A' for Active; 'I' for Inactive)
REMARK    1  A    between atoms: C2_6  and  N4_7 
REMARK    2  A    between atoms: N4_7  and  C3_9 
REMARK    3  A    between atoms: C3_9  and  C4_14 
REMARK    4  A    between atoms: N5_10  and  O1_12 
REMARK    5  A    between atoms: C7_17  and  N6_18 
REMARK    6  A    between atoms: N9_27  and  C10_28 
REMARK    7  A    between atoms: C10_28  and  C11_29 
REMARK    8  A    between atoms: C11_29  and  O2_30 
REMARK    9  A    between atoms: C11_29  and  C12_32 
REMARK   10  A    between atoms: C12_32  and  O3_33 
ROOT
HETATM    1  C4  UNL     1      25.451 -18.288  13.581  1.00  0.00     0.084 A 
HETATM    2  C5  UNL     1      25.663 -18.185  12.195  1.00  0.00     0.052 A 
HETATM    3  C6  UNL     1      24.921 -17.147  11.754  1.00  0.00     0.054 A 
HETATM    4  C7  UNL     1      24.759 -16.607  10.476  1.00  0.00     0.113 A 
HETATM    5  N7  UNL     1      23.928 -15.551  10.391  1.00  0.00    -0.338 N 
ATOM      6  H7  UNL     1      23.776 -15.121   9.478  1.00  0.00     0.168 HD
HETATM    7  C8  UNL     1      23.290 -15.040  11.460  1.00  0.00     0.183 A 
HETATM    8  N8  UNL     1      23.453 -15.571  12.703  1.00  0.00    -0.338 N 
ATOM      9  H8  UNL     1      22.966 -15.175  13.507  1.00  0.00     0.168 HD
HETATM   10  C9  UNL     1      24.276 -16.633  12.849  1.00  0.00     0.123 A 
HETATM   11  N9  UNL     1      24.603 -17.338  13.973  1.00  0.00    -0.327 N 
ENDROOT
BRANCH   1  12
HETATM   12  C3  UNL     1      26.096 -19.295  14.403  1.00  0.00     0.167 C 
HETATM   13  N5  UNL     1      25.869 -20.547  14.303  1.00  0.00    -0.251 N 
ATOM     14  H5  UNL     1      25.194 -20.848  13.602  1.00  0.00     0.196 HD
BRANCH  12  15
HETATM   15  N4  UNL     1      27.036 -18.884  15.381  1.00  0.00    -0.170 N 
ATOM     16  H4  UNL     1      26.705 -18.506  16.269  1.00  0.00     0.186 HD
BRANCH  15  17
HETATM   17  C2  UNL     1      28.307 -18.981  15.162  1.00  0.00     0.712 A 
HETATM   18  N3  UNL     1      29.109 -18.016  14.630  1.00  0.00    -0.113 N 
HETATM   19  N2  UNL     1      30.348 -18.502  14.566  1.00  0.00     0.011 NA
ATOM     20  H3  UNL     1      28.813 -17.086  14.334  1.00  0.00     0.203 HD
HETATM   21  N1  UNL     1      30.314 -19.746  15.050  1.00  0.00    -0.208 N 
HETATM   22  C1  UNL     1      31.488 -20.575  15.131  1.00  0.00     0.198 C 
HETATM   23  N10 UNL     1      29.082 -20.045  15.413  1.00  0.00    -0.116 N 
ATOM     24  H10 UNL     1      28.774 -20.930  15.815  1.00  0.00     0.207 HD
ENDBRANCH  15  17
ENDBRANCH  12  15
BRANCH  13  25
HETATM   25  O1  UNL     1      26.456 -21.508  15.057  1.00  0.00    -0.288 OA
ATOM     26  H1  UNL     1      25.998 -22.094  15.649  1.00  0.00     0.244 HD
ENDBRANCH  13  25
ENDBRANCH   1  12
BRANCH  11  27
HETATM   27  C10 UNL     1      24.096 -17.077  15.313  1.00  0.00     0.165 C 
BRANCH  27  28
HETATM   28  C11 UNL     1      22.656 -17.457  15.468  1.00  0.00     0.160 C 
BRANCH  28  29
HETATM   29  O2  UNL     1      21.851 -16.327  15.195  1.00  0.00    -0.392 OA
ATOM     30  H2  UNL     1      21.895 -16.134  14.266  1.00  0.00     0.210 HD
ENDBRANCH  28  29
BRANCH  28  31
HETATM   31  C12 UNL     1      22.432 -17.757  16.947  1.00  0.00     0.197 C 
BRANCH  31  32
HETATM   32  O3  UNL     1      21.597 -18.846  17.138  1.00  0.00    -0.398 OA
ATOM     33  H3  UNL     1      22.020 -19.666  16.909  1.00  0.00     0.209 HD
ENDBRANCH  31  32
ENDBRANCH  28  31
ENDBRANCH  27  28
ENDBRANCH  11  27
BRANCH   4  34
HETATM   34  N6  UNL     1      25.369 -17.094   9.448  1.00  0.00    -0.385 N 
ATOM     35  H62 UNL     1      25.224 -16.736   8.505  1.00  0.00     0.157 HD
ATOM     36  H61 UNL     1      26.029 -17.867   9.530  1.00  0.00     0.157 HD
ENDBRANCH   4  34
TORSDOF 10
ENDMDL
