MODEL 1
REMARK VINA RESULT: -8.298487259      0.000      0.000
REMARK  14 active torsions:
REMARK  status: ('A' for Active; 'I' for Inactive)
REMARK    1  A    between atoms: C2_2  and  C3_3 
REMARK    2  A    between atoms: C2_2  and  C9_16 
REMARK    3  A    between atoms: C3_3  and  C4_5 
REMARK       I    between atoms: C4_5  and  N1_7 
REMARK    4  A    between atoms: N1_7  and  C5_9 
REMARK    5  A    between atoms: C5_9  and  C6_10 
REMARK    6  A    between atoms: C5_9  and  C7_12 
REMARK    7  A    between atoms: C7_12  and  O5_14 
REMARK    8  A    between atoms: C9_16  and  O6_17 
REMARK    9  A    between atoms: C9_16  and  C10_19 
REMARK   10  A    between atoms: C10_19  and  C11_20 
REMARK   11  A    between atoms: C11_20  and  O7_21 
REMARK   12  A    between atoms: C11_20  and  C12_23 
REMARK       I    between atoms: C12_23  and  N2_25 
REMARK   13  A    between atoms: N2_25  and  C13_27 
REMARK   14  A    between atoms: C17_34  and  O11_35 
ROOT
HETATM    1  C11 UNL     1       2.351   1.141  -3.869  1.00  0.00     0.212 C 
ENDROOT
BRANCH   1   2
HETATM    2  C10 UNL     1       2.813   0.172  -4.934  1.00  0.00     0.078 C 
BRANCH   2   3
HETATM    3  C9  UNL     1       3.873   0.767  -5.827  1.00  0.00     0.157 C 
BRANCH   3   4
HETATM    4  C2  UNL     1       3.436   0.731  -7.225  1.00  0.00     0.017 C 
HETATM    5  C1  UNL     1       4.344   0.496  -8.176  1.00  0.00     0.025 C 
BRANCH   4   6
HETATM    6  C3  UNL     1       2.048   0.912  -7.585  1.00  0.00     0.247 C 
HETATM    7  O1  UNL     1       1.466  -0.150  -8.049  1.00  0.00    -0.282 OA
BRANCH   6   8
HETATM    8  C4  UNL     1       1.326   2.128  -7.466  1.00  0.00     0.293 C 
HETATM    9  O2  UNL     1       1.541   2.999  -6.622  1.00  0.00    -0.264 OA
HETATM   10  N1  UNL     1       0.255   2.370  -8.403  1.00  0.00    -0.335 N 
ATOM     11  H1  UNL     1       0.035   1.682  -9.123  1.00  0.00     0.164 HD
BRANCH  10  12
HETATM   12  C5  UNL     1      -0.497   3.587  -8.312  1.00  0.00     0.246 C 
BRANCH  12  13
HETATM   13  C6  UNL     1      -1.932   3.338  -8.597  1.00  0.00     0.266 C 
HETATM   14  O3  UNL     1      -2.770   4.036  -8.056  1.00  0.00    -0.304 OA
ENDBRANCH  12  13
BRANCH  12  15
HETATM   15  C7  UNL     1       0.017   4.541  -9.347  1.00  0.00     0.288 C 
HETATM   16  O4  UNL     1      -0.555   4.707 -10.454  1.00  0.00    -0.262 OA
BRANCH  15  17
HETATM   17  O5  UNL     1       1.184   5.258  -9.028  1.00  0.00    -0.325 OA
HETATM   18  C8  UNL     1       1.163   6.642  -9.322  1.00  0.00     0.213 C 
ENDBRANCH  15  17
ENDBRANCH  12  15
ENDBRANCH  10  12
ENDBRANCH   6   8
ENDBRANCH   4   6
ENDBRANCH   3   4
BRANCH   3  19
HETATM   19  O6  UNL     1       4.074   2.119  -5.496  1.00  0.00    -0.391 OA
ATOM     20  H6  UNL     1       3.974   2.191  -4.554  1.00  0.00     0.210 HD
ENDBRANCH   3  19
ENDBRANCH   2   3
ENDBRANCH   1   2
BRANCH   1  21
HETATM   21  O7  UNL     1       3.070   1.084  -2.705  1.00  0.00    -0.386 OA
ATOM     22  H7  UNL     1       2.663   1.530  -1.972  1.00  0.00     0.210 HD
ENDBRANCH   1  21
BRANCH   1  23
HETATM   23  C12 UNL     1       0.893   1.037  -3.673  1.00  0.00     0.248 C 
HETATM   24  O8  UNL     1       0.416   0.540  -2.601  1.00  0.00    -0.271 OA
HETATM   25  N2  UNL     1      -0.048   1.471  -4.638  1.00  0.00    -0.330 N 
ATOM     26  H2  UNL     1       0.301   1.871  -5.509  1.00  0.00     0.164 HD
BRANCH  25  27
HETATM   27  C13 UNL     1      -1.476   1.374  -4.453  1.00  0.00     0.303 C 
HETATM   28  C14 UNL     1      -1.898  -0.038  -4.739  1.00  0.00     0.195 C 
HETATM   29  S1  UNL     1      -3.668  -0.129  -4.836  1.00  0.00     0.155 S 
HETATM   30  O9  UNL     1      -4.013  -1.200  -5.848  1.00  0.00    -0.227 OA
HETATM   31  O10 UNL     1      -4.245  -0.580  -3.522  1.00  0.00    -0.227 OA
HETATM   32  C15 UNL     1      -4.387   1.416  -5.326  1.00  0.00     0.160 C 
HETATM   33  C16 UNL     1      -4.725   1.356  -6.790  1.00  0.00     0.031 C 
HETATM   34  C17 UNL     1      -3.492   2.584  -4.988  1.00  0.00     0.339 C 
HETATM   35  N3  UNL     1      -2.115   2.339  -5.333  1.00  0.00    -0.026 N 
ATOM     36  H32 UNL     1      -1.585   3.210  -5.366  1.00  0.00     0.282 HD
ATOM     37  H31 UNL     1      -2.028   2.056  -6.310  1.00  0.00     0.282 HD
BRANCH  34  38
HETATM   38  O11 UNL     1      -3.621   2.981  -3.655  1.00  0.00    -0.369 OA
ATOM     39  H11 UNL     1      -2.959   3.613  -3.402  1.00  0.00     0.212 HD
ENDBRANCH  34  38
ENDBRANCH  25  27
ENDBRANCH   1  23
TORSDOF 14
ENDMDL
MODEL 2
REMARK VINA RESULT: -8.158385602      1.113      2.144
REMARK  14 active torsions:
REMARK  status: ('A' for Active; 'I' for Inactive)
REMARK    1  A    between atoms: C2_2  and  C3_3 
REMARK    2  A    between atoms: C2_2  and  C9_16 
REMARK    3  A    between atoms: C3_3  and  C4_5 
REMARK       I    between atoms: C4_5  and  N1_7 
REMARK    4  A    between atoms: N1_7  and  C5_9 
REMARK    5  A    between atoms: C5_9  and  C6_10 
REMARK    6  A    between atoms: C5_9  and  C7_12 
REMARK    7  A    between atoms: C7_12  and  O5_14 
REMARK    8  A    between atoms: C9_16  and  O6_17 
REMARK    9  A    between atoms: C9_16  and  C10_19 
REMARK   10  A    between atoms: C10_19  and  C11_20 
REMARK   11  A    between atoms: C11_20  and  O7_21 
REMARK   12  A    between atoms: C11_20  and  C12_23 
REMARK       I    between atoms: C12_23  and  N2_25 
REMARK   13  A    between atoms: N2_25  and  C13_27 
REMARK   14  A    between atoms: C17_34  and  O11_35 
ROOT
HETATM    1  C11 UNL     1       2.291   1.882  -3.455  1.00  0.00     0.212 C 
ENDROOT
BRANCH   1   2
HETATM    2  C10 UNL     1       2.630   2.194  -4.896  1.00  0.00     0.078 C 
BRANCH   2   3
HETATM    3  C9  UNL     1       3.749   1.327  -5.419  1.00  0.00     0.157 C 
BRANCH   3   4
HETATM    4  C2  UNL     1       3.373   0.739  -6.707  1.00  0.00     0.017 C 
HETATM    5  C1  UNL     1       4.323   0.538  -7.624  1.00  0.00     0.025 C 
BRANCH   4   6
HETATM    6  C3  UNL     1       2.010   0.350  -6.988  1.00  0.00     0.247 C 
HETATM    7  O1  UNL     1       1.517  -0.525  -6.167  1.00  0.00    -0.282 OA
BRANCH   6   8
HETATM    8  C4  UNL     1       1.222   0.846  -8.059  1.00  0.00     0.293 C 
HETATM    9  O2  UNL     1       1.038   0.264  -9.129  1.00  0.00    -0.264 OA
HETATM   10  N1  UNL     1       0.585   2.129  -7.890  1.00  0.00    -0.335 N 
ATOM     11  H1  UNL     1       0.703   2.653  -7.023  1.00  0.00     0.164 HD
BRANCH  10  12
HETATM   12  C5  UNL     1      -0.218   2.661  -8.953  1.00  0.00     0.246 C 
BRANCH  12  13
HETATM   13  C6  UNL     1      -0.101   4.140  -9.005  1.00  0.00     0.266 C 
HETATM   14  O3  UNL     1       1.007   4.644  -8.986  1.00  0.00    -0.304 OA
ENDBRANCH  12  13
BRANCH  12  15
HETATM   15  C7  UNL     1      -1.651   2.323  -8.679  1.00  0.00     0.288 C 
HETATM   16  O4  UNL     1      -2.453   3.147  -8.169  1.00  0.00    -0.262 OA
BRANCH  15  17
HETATM   17  O5  UNL     1      -2.076   1.028  -9.023  1.00  0.00    -0.325 OA
HETATM   18  C8  UNL     1      -2.320   0.796 -10.397  1.00  0.00     0.213 C 
ENDBRANCH  15  17
ENDBRANCH  12  15
ENDBRANCH  10  12
ENDBRANCH   6   8
ENDBRANCH   4   6
ENDBRANCH   3   4
BRANCH   3  19
HETATM   19  O6  UNL     1       4.895   2.109  -5.644  1.00  0.00    -0.391 OA
ATOM     20  H6  UNL     1       4.717   2.649  -6.405  1.00  0.00     0.210 HD
ENDBRANCH   3  19
ENDBRANCH   2   3
ENDBRANCH   1   2
BRANCH   1  21
HETATM   21  O7  UNL     1       3.116   0.960  -2.869  1.00  0.00    -0.386 OA
ATOM     22  H7  UNL     1       3.095   0.964  -1.920  1.00  0.00     0.210 HD
ENDBRANCH   1  21
BRANCH   1  23
HETATM   23  C12 UNL     1       0.856   1.570  -3.318  1.00  0.00     0.248 C 
HETATM   24  O8  UNL     1       0.387   1.150  -2.211  1.00  0.00    -0.271 OA
HETATM   25  N2  UNL     1      -0.068   1.709  -4.381  1.00  0.00    -0.330 N 
ATOM     26  H2  UNL     1       0.276   2.040  -5.282  1.00  0.00     0.164 HD
BRANCH  25  27
HETATM   27  C13 UNL     1      -1.474   1.407  -4.254  1.00  0.00     0.303 C 
HETATM   28  C14 UNL     1      -1.660  -0.072  -4.434  1.00  0.00     0.195 C 
HETATM   29  S1  UNL     1      -3.387  -0.444  -4.605  1.00  0.00     0.155 S 
HETATM   30  O9  UNL     1      -3.506  -1.633  -5.534  1.00  0.00    -0.227 OA
HETATM   31  O10 UNL     1      -3.966  -0.873  -3.284  1.00  0.00    -0.227 OA
HETATM   32  C15 UNL     1      -4.301   0.926  -5.261  1.00  0.00     0.160 C 
HETATM   33  C16 UNL     1      -4.539   0.698  -6.729  1.00  0.00     0.031 C 
HETATM   34  C17 UNL     1      -3.615   2.242  -4.986  1.00  0.00     0.339 C 
HETATM   35  N3  UNL     1      -2.198   2.187  -5.245  1.00  0.00    -0.026 N 
ATOM     36  H32 UNL     1      -1.804   3.125  -5.329  1.00  0.00     0.282 HD
ATOM     37  H31 UNL     1      -2.012   1.845  -6.187  1.00  0.00     0.282 HD
BRANCH  34  38
HETATM   38  O11 UNL     1      -3.881   2.719  -3.701  1.00  0.00    -0.369 OA
ATOM     39  H11 UNL     1      -3.382   2.260  -3.036  1.00  0.00     0.212 HD
ENDBRANCH  34  38
ENDBRANCH  25  27
ENDBRANCH   1  23
TORSDOF 14
ENDMDL
MODEL 3
REMARK VINA RESULT: -8.117641029      3.474      6.567
REMARK  14 active torsions:
REMARK  status: ('A' for Active; 'I' for Inactive)
REMARK    1  A    between atoms: C2_2  and  C3_3 
REMARK    2  A    between atoms: C2_2  and  C9_16 
REMARK    3  A    between atoms: C3_3  and  C4_5 
REMARK       I    between atoms: C4_5  and  N1_7 
REMARK    4  A    between atoms: N1_7  and  C5_9 
REMARK    5  A    between atoms: C5_9  and  C6_10 
REMARK    6  A    between atoms: C5_9  and  C7_12 
REMARK    7  A    between atoms: C7_12  and  O5_14 
REMARK    8  A    between atoms: C9_16  and  O6_17 
REMARK    9  A    between atoms: C9_16  and  C10_19 
REMARK   10  A    between atoms: C10_19  and  C11_20 
REMARK   11  A    between atoms: C11_20  and  O7_21 
REMARK   12  A    between atoms: C11_20  and  C12_23 
REMARK       I    between atoms: C12_23  and  N2_25 
REMARK   13  A    between atoms: N2_25  and  C13_27 
REMARK   14  A    between atoms: C17_34  and  O11_35 
ROOT
HETATM    1  C11 UNL     1      -6.456   1.471  -4.899  1.00  0.00     0.212 C 
ENDROOT
BRANCH   1   2
HETATM    2  C10 UNL     1      -5.185   1.844  -5.628  1.00  0.00     0.078 C 
BRANCH   2   3
HETATM    3  C9  UNL     1      -4.089   2.269  -4.682  1.00  0.00     0.157 C 
BRANCH   3   4
HETATM    4  C2  UNL     1      -2.795   1.765  -5.148  1.00  0.00     0.017 C 
HETATM    5  C1  UNL     1      -2.248   2.308  -6.239  1.00  0.00     0.025 C 
BRANCH   4   6
HETATM    6  C3  UNL     1      -2.094   0.720  -4.437  1.00  0.00     0.247 C 
HETATM    7  O1  UNL     1      -2.819   0.062  -3.587  1.00  0.00    -0.282 OA
BRANCH   6   8
HETATM    8  C4  UNL     1      -0.723   0.394  -4.608  1.00  0.00     0.293 C 
HETATM    9  O2  UNL     1      -0.286  -0.741  -4.805  1.00  0.00    -0.264 OA
HETATM   10  N1  UNL     1       0.239   1.468  -4.549  1.00  0.00    -0.335 N 
ATOM     11  H1  UNL     1      -0.069   2.427  -4.390  1.00  0.00     0.164 HD
BRANCH  10  12
HETATM   12  C5  UNL     1       1.632   1.174  -4.717  1.00  0.00     0.246 C 
BRANCH  12  13
HETATM   13  C6  UNL     1       2.399   1.573  -3.510  1.00  0.00     0.266 C 
HETATM   14  O3  UNL     1       3.091   0.742  -2.951  1.00  0.00    -0.304 OA
ENDBRANCH  12  13
BRANCH  12  15
HETATM   15  C7  UNL     1       2.149   1.973  -5.874  1.00  0.00     0.288 C 
HETATM   16  O4  UNL     1       1.398   2.670  -6.602  1.00  0.00    -0.262 OA
BRANCH  15  17
HETATM   17  O5  UNL     1       3.533   1.915  -6.120  1.00  0.00    -0.325 OA
HETATM   18  C8  UNL     1       3.984   0.810  -6.880  1.00  0.00     0.213 C 
ENDBRANCH  15  17
ENDBRANCH  12  15
ENDBRANCH  10  12
ENDBRANCH   6   8
ENDBRANCH   4   6
ENDBRANCH   3   4
BRANCH   3  19
HETATM   19  O6  UNL     1      -3.996   3.672  -4.655  1.00  0.00    -0.391 OA
ATOM     20  H6  UNL     1      -3.802   3.919  -3.759  1.00  0.00     0.210 HD
ENDBRANCH   3  19
ENDBRANCH   2   3
ENDBRANCH   1   2
BRANCH   1  21
HETATM   21  O7  UNL     1      -7.053   2.511  -4.237  1.00  0.00    -0.386 OA
ATOM     22  H7  UNL     1      -7.766   2.252  -3.665  1.00  0.00     0.210 HD
ENDBRANCH   1  21
BRANCH   1  23
HETATM   23  C12 UNL     1      -6.239   0.278  -4.059  1.00  0.00     0.248 C 
HETATM   24  O8  UNL     1      -6.507   0.304  -2.813  1.00  0.00    -0.271 OA
HETATM   25  N2  UNL     1      -5.729  -0.941  -4.567  1.00  0.00    -0.330 N 
ATOM     26  H2  UNL     1      -5.502  -0.994  -5.560  1.00  0.00     0.164 HD
BRANCH  25  27
HETATM   27  C13 UNL     1      -5.515  -2.113  -3.751  1.00  0.00     0.303 C 
HETATM   28  C14 UNL     1      -4.591  -3.040  -4.486  1.00  0.00     0.195 C 
HETATM   29  S1  UNL     1      -4.554  -4.618  -3.674  1.00  0.00     0.155 S 
HETATM   30  O9  UNL     1      -4.353  -5.673  -4.740  1.00  0.00    -0.227 OA
HETATM   31  O10 UNL     1      -3.368  -4.709  -2.753  1.00  0.00    -0.227 OA
HETATM   32  C15 UNL     1      -6.052  -4.943  -2.782  1.00  0.00     0.160 C 
HETATM   33  C16 UNL     1      -6.921  -5.857  -3.601  1.00  0.00     0.031 C 
HETATM   34  C17 UNL     1      -6.761  -3.667  -2.393  1.00  0.00     0.339 C 
HETATM   35  N3  UNL     1      -6.809  -2.715  -3.473  1.00  0.00    -0.026 N 
ATOM     36  H32 UNL     1      -7.514  -1.999  -3.298  1.00  0.00     0.282 HD
ATOM     37  H31 UNL     1      -7.205  -3.136  -4.314  1.00  0.00     0.282 HD
BRANCH  34  38
HETATM   38  O11 UNL     1      -6.229  -3.099  -1.234  1.00  0.00    -0.369 OA
ATOM     39  H11 UNL     1      -6.806  -3.198  -0.486  1.00  0.00     0.212 HD
ENDBRANCH  34  38
ENDBRANCH  25  27
ENDBRANCH   1  23
TORSDOF 14
ENDMDL
MODEL 4
REMARK VINA RESULT: -7.950743313      1.907      2.380
REMARK  14 active torsions:
REMARK  status: ('A' for Active; 'I' for Inactive)
REMARK    1  A    between atoms: C2_2  and  C3_3 
REMARK    2  A    between atoms: C2_2  and  C9_16 
REMARK    3  A    between atoms: C3_3  and  C4_5 
REMARK       I    between atoms: C4_5  and  N1_7 
REMARK    4  A    between atoms: N1_7  and  C5_9 
REMARK    5  A    between atoms: C5_9  and  C6_10 
REMARK    6  A    between atoms: C5_9  and  C7_12 
REMARK    7  A    between atoms: C7_12  and  O5_14 
REMARK    8  A    between atoms: C9_16  and  O6_17 
REMARK    9  A    between atoms: C9_16  and  C10_19 
REMARK   10  A    between atoms: C10_19  and  C11_20 
REMARK   11  A    between atoms: C11_20  and  O7_21 
REMARK   12  A    between atoms: C11_20  and  C12_23 
REMARK       I    between atoms: C12_23  and  N2_25 
REMARK   13  A    between atoms: N2_25  and  C13_27 
REMARK   14  A    between atoms: C17_34  and  O11_35 
ROOT
HETATM    1  C11 UNL     1       2.272   0.973  -4.043  1.00  0.00     0.212 C 
ENDROOT
BRANCH   1   2
HETATM    2  C10 UNL     1       2.905   0.023  -5.036  1.00  0.00     0.078 C 
BRANCH   2   3
HETATM    3  C9  UNL     1       3.910   0.712  -5.924  1.00  0.00     0.157 C 
BRANCH   3   4
HETATM    4  C2  UNL     1       3.493   0.621  -7.326  1.00  0.00     0.017 C 
HETATM    5  C1  UNL     1       4.430   0.478  -8.267  1.00  0.00     0.025 C 
BRANCH   4   6
HETATM    6  C3  UNL     1       2.098   0.651  -7.700  1.00  0.00     0.247 C 
HETATM    7  O1  UNL     1       1.645  -0.459  -8.194  1.00  0.00    -0.282 OA
BRANCH   6   8
HETATM    8  C4  UNL     1       1.240   1.774  -7.564  1.00  0.00     0.293 C 
HETATM    9  O2  UNL     1       1.597   2.897  -7.205  1.00  0.00    -0.264 OA
HETATM   10  N1  UNL     1      -0.159   1.595  -7.869  1.00  0.00    -0.335 N 
ATOM     11  H1  UNL     1      -0.508   0.686  -8.173  1.00  0.00     0.164 HD
BRANCH  10  12
HETATM   12  C5  UNL     1      -1.054   2.707  -7.742  1.00  0.00     0.246 C 
BRANCH  12  13
HETATM   13  C6  UNL     1      -2.320   2.287  -7.091  1.00  0.00     0.266 C 
HETATM   14  O3  UNL     1      -2.478   1.112  -6.815  1.00  0.00    -0.304 OA
ENDBRANCH  12  13
BRANCH  12  15
HETATM   15  C7  UNL     1      -1.388   3.207  -9.115  1.00  0.00     0.288 C 
HETATM   16  O4  UNL     1      -2.486   2.957  -9.675  1.00  0.00    -0.262 OA
BRANCH  15  17
HETATM   17  O5  UNL     1      -0.411   3.981  -9.766  1.00  0.00    -0.325 OA
HETATM   18  C8  UNL     1      -0.136   5.245  -9.193  1.00  0.00     0.213 C 
ENDBRANCH  15  17
ENDBRANCH  12  15
ENDBRANCH  10  12
ENDBRANCH   6   8
ENDBRANCH   4   6
ENDBRANCH   3   4
BRANCH   3  19
HETATM   19  O6  UNL     1       3.974   2.080  -5.604  1.00  0.00    -0.391 OA
ATOM     20  H6  UNL     1       4.821   2.231  -5.203  1.00  0.00     0.210 HD
ENDBRANCH   3  19
ENDBRANCH   2   3
ENDBRANCH   1   2
BRANCH   1  21
HETATM   21  O7  UNL     1       2.924   1.048  -2.841  1.00  0.00    -0.386 OA
ATOM     22  H7  UNL     1       2.349   1.078  -2.086  1.00  0.00     0.210 HD
ENDBRANCH   1  21
BRANCH   1  23
HETATM   23  C12 UNL     1       0.827   0.704  -3.920  1.00  0.00     0.248 C 
HETATM   24  O8  UNL     1      -0.021   1.409  -4.559  1.00  0.00    -0.271 OA
HETATM   25  N2  UNL     1       0.301  -0.327  -3.104  1.00  0.00    -0.330 N 
ATOM     26  H2  UNL     1       0.953  -0.908  -2.577  1.00  0.00     0.164 HD
BRANCH  25  27
HETATM   27  C13 UNL     1      -1.111  -0.597  -2.980  1.00  0.00     0.303 C 
HETATM   28  C14 UNL     1      -1.294  -1.744  -2.029  1.00  0.00     0.195 C 
HETATM   29  S1  UNL     1      -2.973  -2.315  -2.091  1.00  0.00     0.155 S 
HETATM   30  O9  UNL     1      -2.956  -3.808  -1.841  1.00  0.00    -0.227 OA
HETATM   31  O10 UNL     1      -3.780  -1.703  -0.978  1.00  0.00    -0.227 OA
HETATM   32  C15 UNL     1      -3.733  -1.977  -3.658  1.00  0.00     0.160 C 
HETATM   33  C16 UNL     1      -3.720  -3.231  -4.488  1.00  0.00     0.031 C 
HETATM   34  C17 UNL     1      -3.077  -0.812  -4.360  1.00  0.00     0.339 C 
HETATM   35  N3  UNL     1      -1.638  -0.878  -4.305  1.00  0.00    -0.026 N 
ATOM     36  H32 UNL     1      -1.217  -0.264  -5.003  1.00  0.00     0.282 HD
ATOM     37  H31 UNL     1      -1.301  -1.777  -4.650  1.00  0.00     0.282 HD
BRANCH  34  38
HETATM   38  O11 UNL     1      -3.550   0.418  -3.899  1.00  0.00    -0.369 OA
ATOM     39  H11 UNL     1      -2.930   1.122  -4.050  1.00  0.00     0.212 HD
ENDBRANCH  34  38
ENDBRANCH  25  27
ENDBRANCH   1  23
TORSDOF 14
ENDMDL
MODEL 5
REMARK VINA RESULT: -7.943688933      3.244      7.388
REMARK  14 active torsions:
REMARK  status: ('A' for Active; 'I' for Inactive)
REMARK    1  A    between atoms: C2_2  and  C3_3 
REMARK    2  A    between atoms: C2_2  and  C9_16 
REMARK    3  A    between atoms: C3_3  and  C4_5 
REMARK       I    between atoms: C4_5  and  N1_7 
REMARK    4  A    between atoms: N1_7  and  C5_9 
REMARK    5  A    between atoms: C5_9  and  C6_10 
REMARK    6  A    between atoms: C5_9  and  C7_12 
REMARK    7  A    between atoms: C7_12  and  O5_14 
REMARK    8  A    between atoms: C9_16  and  O6_17 
REMARK    9  A    between atoms: C9_16  and  C10_19 
REMARK   10  A    between atoms: C10_19  and  C11_20 
REMARK   11  A    between atoms: C11_20  and  O7_21 
REMARK   12  A    between atoms: C11_20  and  C12_23 
REMARK       I    between atoms: C12_23  and  N2_25 
REMARK   13  A    between atoms: N2_25  and  C13_27 
REMARK   14  A    between atoms: C17_34  and  O11_35 
ROOT
HETATM    1  C11 UNL     1      -1.834  -1.847  -1.960  1.00  0.00     0.212 C 
ENDROOT
BRANCH   1   2
HETATM    2  C10 UNL     1      -2.470  -2.873  -2.871  1.00  0.00     0.078 C 
BRANCH   2   3
HETATM    3  C9  UNL     1      -3.677  -3.524  -2.242  1.00  0.00     0.157 C 
BRANCH   3   4
HETATM    4  C2  UNL     1      -4.774  -3.597  -3.211  1.00  0.00     0.017 C 
HETATM    5  C1  UNL     1      -4.706  -4.500  -4.193  1.00  0.00     0.025 C 
BRANCH   4   6
HETATM    6  C3  UNL     1      -5.930  -2.737  -3.105  1.00  0.00     0.247 C 
HETATM    7  O1  UNL     1      -7.070  -3.353  -3.160  1.00  0.00    -0.282 OA
BRANCH   6   8
HETATM    8  C4  UNL     1      -5.888  -1.327  -2.952  1.00  0.00     0.293 C 
HETATM    9  O2  UNL     1      -5.523  -0.736  -1.935  1.00  0.00    -0.264 OA
HETATM   10  N1  UNL     1      -6.304  -0.515  -4.071  1.00  0.00    -0.335 N 
ATOM     11  H1  UNL     1      -6.615  -0.953  -4.938  1.00  0.00     0.164 HD
BRANCH  10  12
HETATM   12  C5  UNL     1      -6.275   0.914  -3.952  1.00  0.00     0.246 C 
BRANCH  12  13
HETATM   13  C6  UNL     1      -7.491   1.513  -4.558  1.00  0.00     0.266 C 
HETATM   14  O3  UNL     1      -7.722   2.693  -4.369  1.00  0.00    -0.304 OA
ENDBRANCH  12  13
BRANCH  12  15
HETATM   15  C7  UNL     1      -5.086   1.428  -4.704  1.00  0.00     0.288 C 
HETATM   16  O4  UNL     1      -4.778   1.008  -5.848  1.00  0.00    -0.262 OA
BRANCH  15  17
HETATM   17  O5  UNL     1      -4.315   2.420  -4.073  1.00  0.00    -0.325 OA
HETATM   18  C8  UNL     1      -3.327   3.043  -4.872  1.00  0.00     0.213 C 
ENDBRANCH  15  17
ENDBRANCH  12  15
ENDBRANCH  10  12
ENDBRANCH   6   8
ENDBRANCH   4   6
ENDBRANCH   3   4
BRANCH   3  19
HETATM   19  O6  UNL     1      -3.370  -4.845  -1.871  1.00  0.00    -0.391 OA
ATOM     20  H6  UNL     1      -2.932  -4.801  -1.030  1.00  0.00     0.210 HD
ENDBRANCH   3  19
ENDBRANCH   2   3
ENDBRANCH   1   2
BRANCH   1  21
HETATM   21  O7  UNL     1      -2.640  -1.426  -0.936  1.00  0.00    -0.386 OA
ATOM     22  H7  UNL     1      -2.206  -0.871  -0.299  1.00  0.00     0.210 HD
ENDBRANCH   1  21
BRANCH   1  23
HETATM   23  C12 UNL     1      -1.251  -0.746  -2.749  1.00  0.00     0.248 C 
HETATM   24  O8  UNL     1      -2.001   0.116  -3.313  1.00  0.00    -0.271 OA
HETATM   25  N2  UNL     1       0.143  -0.580  -2.929  1.00  0.00    -0.330 N 
ATOM     26  H2  UNL     1       0.771  -1.254  -2.492  1.00  0.00     0.164 HD
BRANCH  25  27
HETATM   27  C13 UNL     1       0.721   0.496  -3.698  1.00  0.00     0.303 C 
HETATM   28  C14 UNL     1       0.617   0.147  -5.155  1.00  0.00     0.195 C 
HETATM   29  S1  UNL     1       1.592   1.278  -6.114  1.00  0.00     0.155 S 
HETATM   30  O9  UNL     1       2.129   0.517  -7.307  1.00  0.00    -0.227 OA
HETATM   31  O10 UNL     1       0.730   2.383  -6.663  1.00  0.00    -0.227 OA
HETATM   32  C15 UNL     1       2.938   1.956  -5.179  1.00  0.00     0.160 C 
HETATM   33  C16 UNL     1       4.201   1.223  -5.537  1.00  0.00     0.031 C 
HETATM   34  C17 UNL     1       2.658   1.933  -3.695  1.00  0.00     0.339 C 
HETATM   35  N3  UNL     1       2.096   0.678  -3.262  1.00  0.00    -0.026 N 
ATOM     36  H32 UNL     1       2.176   0.572  -2.250  1.00  0.00     0.282 HD
ATOM     37  H31 UNL     1       2.680  -0.104  -3.557  1.00  0.00     0.282 HD
BRANCH  34  38
HETATM   38  O11 UNL     1       1.871   3.012  -3.289  1.00  0.00    -0.369 OA
ATOM     39  H11 UNL     1       1.221   2.761  -2.643  1.00  0.00     0.212 HD
ENDBRANCH  34  38
ENDBRANCH  25  27
ENDBRANCH   1  23
TORSDOF 14
ENDMDL
