MODEL 1
REMARK VINA RESULT: -7.117602870      0.000      0.000
REMARK  9 active torsions:
REMARK  status: ('A' for Active; 'I' for Inactive)
REMARK    1  A    between atoms: N1_1  and  C1_5 
REMARK    2  A    between atoms: C1_5  and  C2_6 
REMARK    3  A    between atoms: C1_5  and  C9_24 
REMARK       I    between atoms: C2_6  and  N2_8 
REMARK    4  A    between atoms: N2_8  and  N3_10 
REMARK    5  A    between atoms: C8_21  and  O4_22 
REMARK    6  A    between atoms: C9_24  and  N4_25 
REMARK    7  A    between atoms: C9_24  and  C10_29 
REMARK    8  A    between atoms: C10_29  and  O5_30 
REMARK    9  A    between atoms: N5_32  and  O6_34 
ROOT
HETATM    1  C2  UNL     1      -5.092  -0.153  27.052  1.00  0.00     0.269 C 
HETATM    2  O1  UNL     1      -5.845   0.461  27.860  1.00  0.00    -0.269 OA
HETATM    3  N2  UNL     1      -5.676  -1.097  26.180  1.00  0.00    -0.268 N 
ATOM      4  H2  UNL     1      -5.099  -1.610  25.514  1.00  0.00     0.190 HD
ENDROOT
BRANCH   1   5
HETATM    5  C1  UNL     1      -3.632   0.090  26.996  1.00  0.00     0.314 C 
BRANCH   5   6
HETATM    6  N1  UNL     1      -3.037  -0.248  28.262  1.00  0.00    -0.064 N 
ATOM      7  H13 UNL     1      -3.733  -0.335  29.003  1.00  0.00     0.275 HD
ATOM      8  H12 UNL     1      -2.683  -1.204  28.278  1.00  0.00     0.275 HD
ATOM      9  H11 UNL     1      -2.315   0.434  28.494  1.00  0.00     0.275 HD
ENDBRANCH   5   6
BRANCH   5  10
HETATM   10  C9  UNL     1      -3.410   1.556  26.694  1.00  0.00     0.298 C 
BRANCH  10  11
HETATM   11  N4  UNL     1      -2.570   2.130  27.683  1.00  0.00    -0.065 N 
ATOM     12  H43 UNL     1      -2.857   3.077  27.928  1.00  0.00     0.275 HD
ATOM     13  H42 UNL     1      -2.700   1.695  28.596  1.00  0.00     0.275 HD
ATOM     14  H41 UNL     1      -1.598   2.091  27.376  1.00  0.00     0.275 HD
ENDBRANCH  10  11
BRANCH  10  15
HETATM   15  C10 UNL     1      -3.000   1.732  25.303  1.00  0.00     0.169 C 
HETATM   16  N5  UNL     1      -1.779   1.648  24.939  1.00  0.00    -0.249 N 
ATOM     17  H5  UNL     1      -1.574   1.785  23.948  1.00  0.00     0.196 HD
BRANCH  15  18
HETATM   18  O5  UNL     1      -3.964   2.002  24.345  1.00  0.00    -0.346 OA
ATOM     19  H5  UNL     1      -3.778   1.806  23.434  1.00  0.00     0.219 HD
ENDBRANCH  15  18
BRANCH  16  20
HETATM   20  O6  UNL     1      -0.738   1.393  25.759  1.00  0.00    -0.288 OA
ATOM     21  H6  UNL     1      -0.055   2.013  25.987  1.00  0.00     0.244 HD
ENDBRANCH  16  20
ENDBRANCH  10  15
ENDBRANCH   5  10
ENDBRANCH   1   5
BRANCH   3  22
HETATM   22  N3  UNL     1      -7.049  -1.320  26.240  1.00  0.00    -0.292 N 
HETATM   23  C3  UNL     1      -7.797  -0.752  25.361  1.00  0.00     0.099 C 
HETATM   24  S1  UNL     1      -7.588   0.324  23.973  1.00  0.00    -0.104 SA
HETATM   25  C8  UNL     1      -9.288  -0.812  25.185  1.00  0.00     0.133 C 
HETATM   26  C4  UNL     1      -9.304  -0.225  23.817  1.00  0.00     0.096 C 
HETATM   27  C5  UNL     1     -10.305   0.862  23.609  1.00  0.00     0.034 C 
HETATM   28  C6  UNL     1     -11.694   0.332  23.993  1.00  0.00     0.142 C 
HETATM   29  S2  UNL     1     -11.670   0.218  25.788  1.00  0.00     0.147 S 
HETATM   30  O2  UNL     1     -12.148   1.561  26.288  1.00  0.00    -0.228 OA
HETATM   31  O3  UNL     1     -12.515  -0.901  26.279  1.00  0.00    -0.228 OA
HETATM   32  C7  UNL     1      -9.951   0.018  26.233  1.00  0.00     0.186 C 
ATOM     33  H3  UNL     1      -7.452  -1.917  26.962  1.00  0.00     0.187 HD
BRANCH  25  34
HETATM   34  O4  UNL     1      -9.740  -2.129  25.200  1.00  0.00    -0.381 OA
ATOM     35  H4  UNL     1      -9.440  -2.601  24.433  1.00  0.00     0.211 HD
ENDBRANCH  25  34
ENDBRANCH   3  22
TORSDOF 9
ENDMDL
MODEL 2
REMARK VINA RESULT: -6.969933746      0.893      1.231
REMARK  9 active torsions:
REMARK  status: ('A' for Active; 'I' for Inactive)
REMARK    1  A    between atoms: N1_1  and  C1_5 
REMARK    2  A    between atoms: C1_5  and  C2_6 
REMARK    3  A    between atoms: C1_5  and  C9_24 
REMARK       I    between atoms: C2_6  and  N2_8 
REMARK    4  A    between atoms: N2_8  and  N3_10 
REMARK    5  A    between atoms: C8_21  and  O4_22 
REMARK    6  A    between atoms: C9_24  and  N4_25 
REMARK    7  A    between atoms: C9_24  and  C10_29 
REMARK    8  A    between atoms: C10_29  and  O5_30 
REMARK    9  A    between atoms: N5_32  and  O6_34 
ROOT
HETATM    1  C2  UNL     1      -5.507  -0.784  27.330  1.00  0.00     0.269 C 
HETATM    2  O1  UNL     1      -6.227  -0.490  28.328  1.00  0.00    -0.269 OA
HETATM    3  N2  UNL     1      -6.140  -1.292  26.176  1.00  0.00    -0.268 N 
ATOM      4  H2  UNL     1      -5.591  -1.538  25.353  1.00  0.00     0.190 HD
ENDROOT
BRANCH   1   5
HETATM    5  C1  UNL     1      -4.036  -0.608  27.343  1.00  0.00     0.314 C 
BRANCH   5   6
HETATM    6  N1  UNL     1      -3.566  -0.575  28.703  1.00  0.00    -0.064 N 
ATOM      7  H13 UNL     1      -4.329  -0.480  29.372  1.00  0.00     0.275 HD
ATOM      8  H12 UNL     1      -3.213  -1.482  29.010  1.00  0.00     0.275 HD
ATOM      9  H11 UNL     1      -2.870   0.163  28.806  1.00  0.00     0.275 HD
ENDBRANCH   5   6
BRANCH   5  10
HETATM   10  C9  UNL     1      -3.712   0.697  26.651  1.00  0.00     0.298 C 
BRANCH  10  11
HETATM   11  N4  UNL     1      -4.180   1.786  27.431  1.00  0.00    -0.065 N 
ATOM     12  H43 UNL     1      -3.713   1.838  28.336  1.00  0.00     0.275 HD
ATOM     13  H42 UNL     1      -3.876   2.684  27.056  1.00  0.00     0.275 HD
ATOM     14  H41 UNL     1      -5.194   1.733  27.526  1.00  0.00     0.275 HD
ENDBRANCH  10  11
BRANCH  10  15
HETATM   15  C10 UNL     1      -2.304   0.729  26.260  1.00  0.00     0.169 C 
HETATM   16  N5  UNL     1      -1.846   1.594  25.440  1.00  0.00    -0.249 N 
ATOM     17  H5  UNL     1      -0.851   1.549  25.217  1.00  0.00     0.196 HD
BRANCH  15  18
HETATM   18  O5  UNL     1      -1.435  -0.209  26.794  1.00  0.00    -0.346 OA
ATOM     19  H5  UNL     1      -0.604  -0.369  26.361  1.00  0.00     0.219 HD
ENDBRANCH  15  18
BRANCH  16  20
HETATM   20  O6  UNL     1      -2.573   2.562  24.843  1.00  0.00    -0.288 OA
ATOM     21  H6  UNL     1      -2.220   3.252  24.294  1.00  0.00     0.244 HD
ENDBRANCH  16  20
ENDBRANCH  10  15
ENDBRANCH   5  10
ENDBRANCH   1   5
BRANCH   3  22
HETATM   22  N3  UNL     1      -7.523  -1.453  26.174  1.00  0.00    -0.292 N 
HETATM   23  C3  UNL     1      -8.215  -0.770  25.332  1.00  0.00     0.099 C 
HETATM   24  S1  UNL     1      -7.911   0.423  24.061  1.00  0.00    -0.104 SA
HETATM   25  C8  UNL     1      -9.700  -0.741  25.108  1.00  0.00     0.133 C 
HETATM   26  C4  UNL     1      -9.643  -0.026  23.802  1.00  0.00     0.096 C 
HETATM   27  C5  UNL     1     -10.587   1.121  23.671  1.00  0.00     0.034 C 
HETATM   28  C6  UNL     1     -12.010   0.625  23.961  1.00  0.00     0.142 C 
HETATM   29  S2  UNL     1     -12.053   0.340  25.737  1.00  0.00     0.147 S 
HETATM   30  O2  UNL     1     -12.486   1.650  26.350  1.00  0.00    -0.228 OA
HETATM   31  O3  UNL     1     -12.962  -0.779  26.092  1.00  0.00    -0.228 OA
HETATM   32  C7  UNL     1     -10.360   0.016  26.210  1.00  0.00     0.186 C 
ATOM     33  H3  UNL     1      -7.976  -2.097  26.823  1.00  0.00     0.187 HD
BRANCH  25  34
HETATM   34  O4  UNL     1     -10.211  -2.030  24.982  1.00  0.00    -0.381 OA
ATOM     35  H4  UNL     1     -11.102  -2.013  24.655  1.00  0.00     0.211 HD
ENDBRANCH  25  34
ENDBRANCH   3  22
TORSDOF 9
ENDMDL
MODEL 3
REMARK VINA RESULT: -6.847264380      3.704      4.521
REMARK  9 active torsions:
REMARK  status: ('A' for Active; 'I' for Inactive)
REMARK    1  A    between atoms: N1_1  and  C1_5 
REMARK    2  A    between atoms: C1_5  and  C2_6 
REMARK    3  A    between atoms: C1_5  and  C9_24 
REMARK       I    between atoms: C2_6  and  N2_8 
REMARK    4  A    between atoms: N2_8  and  N3_10 
REMARK    5  A    between atoms: C8_21  and  O4_22 
REMARK    6  A    between atoms: C9_24  and  N4_25 
REMARK    7  A    between atoms: C9_24  and  C10_29 
REMARK    8  A    between atoms: C10_29  and  O5_30 
REMARK    9  A    between atoms: N5_32  and  O6_34 
ROOT
HETATM    1  C2  UNL     1      -5.174   1.335  23.817  1.00  0.00     0.269 C 
HETATM    2  O1  UNL     1      -4.579   2.125  23.029  1.00  0.00    -0.269 OA
HETATM    3  N2  UNL     1      -6.560   1.138  23.645  1.00  0.00    -0.268 N 
ATOM      4  H2  UNL     1      -7.072   0.506  24.261  1.00  0.00     0.190 HD
ENDROOT
BRANCH   1   5
HETATM    5  C1  UNL     1      -4.461   0.621  24.902  1.00  0.00     0.314 C 
BRANCH   5   6
HETATM    6  N1  UNL     1      -5.413  -0.068  25.734  1.00  0.00    -0.064 N 
ATOM      7  H13 UNL     1      -5.480   0.345  26.664  1.00  0.00     0.275 HD
ATOM      8  H12 UNL     1      -6.375   0.093  25.432  1.00  0.00     0.275 HD
ATOM      9  H11 UNL     1      -5.182  -1.060  25.769  1.00  0.00     0.275 HD
ENDBRANCH   5   6
BRANCH   5  10
HETATM   10  C9  UNL     1      -3.702   1.642  25.719  1.00  0.00     0.298 C 
BRANCH  10  11
HETATM   11  N4  UNL     1      -4.472   2.024  26.848  1.00  0.00    -0.065 N 
ATOM     12  H43 UNL     1      -3.933   1.977  27.713  1.00  0.00     0.275 HD
ATOM     13  H42 UNL     1      -4.673   3.024  26.854  1.00  0.00     0.275 HD
ATOM     14  H41 UNL     1      -5.321   1.462  26.895  1.00  0.00     0.275 HD
ENDBRANCH  10  11
BRANCH  10  15
HETATM   15  C10 UNL     1      -2.343   1.174  25.982  1.00  0.00     0.169 C 
HETATM   16  N5  UNL     1      -2.079   0.334  26.906  1.00  0.00    -0.249 N 
ATOM     17  H5  UNL     1      -1.104   0.058  27.027  1.00  0.00     0.196 HD
BRANCH  15  18
HETATM   18  O5  UNL     1      -1.302   1.658  25.205  1.00  0.00    -0.346 OA
ATOM     19  H5  UNL     1      -0.935   1.103  24.526  1.00  0.00     0.219 HD
ENDBRANCH  15  18
BRANCH  16  20
HETATM   20  O6  UNL     1      -2.988  -0.218  27.737  1.00  0.00    -0.288 OA
ATOM     21  H6  UNL     1      -2.798  -0.871  28.401  1.00  0.00     0.244 HD
ENDBRANCH  16  20
ENDBRANCH  10  15
ENDBRANCH   5  10
ENDBRANCH   1   5
BRANCH   3  22
HETATM   22  N3  UNL     1      -7.222   1.814  22.624  1.00  0.00    -0.292 N 
HETATM   23  C3  UNL     1      -8.506   1.871  22.663  1.00  0.00     0.099 C 
HETATM   24  S1  UNL     1      -9.804   1.298  23.721  1.00  0.00    -0.104 SA
HETATM   25  C8  UNL     1      -9.469   2.523  21.712  1.00  0.00     0.133 C 
HETATM   26  C4  UNL     1     -10.649   2.454  22.618  1.00  0.00     0.096 C 
HETATM   27  C5  UNL     1     -11.897   1.935  21.986  1.00  0.00     0.034 C 
HETATM   28  C6  UNL     1     -12.210   2.781  20.744  1.00  0.00     0.142 C 
HETATM   29  S2  UNL     1     -10.977   2.297  19.527  1.00  0.00     0.147 S 
HETATM   30  O2  UNL     1     -11.582   1.137  18.773  1.00  0.00    -0.228 OA
HETATM   31  O3  UNL     1     -10.616   3.426  18.632  1.00  0.00    -0.228 OA
HETATM   32  C7  UNL     1      -9.581   1.704  20.470  1.00  0.00     0.186 C 
ATOM     33  H3  UNL     1      -6.702   2.251  21.863  1.00  0.00     0.187 HD
BRANCH  25  34
HETATM   34  O4  UNL     1      -9.090   3.834  21.438  1.00  0.00    -0.381 OA
ATOM     35  H4  UNL     1      -8.346   3.858  20.848  1.00  0.00     0.211 HD
ENDBRANCH  25  34
ENDBRANCH   3  22
TORSDOF 9
ENDMDL
MODEL 4
REMARK VINA RESULT: -6.686624766      1.975      2.277
REMARK  9 active torsions:
REMARK  status: ('A' for Active; 'I' for Inactive)
REMARK    1  A    between atoms: N1_1  and  C1_5 
REMARK    2  A    between atoms: C1_5  and  C2_6 
REMARK    3  A    between atoms: C1_5  and  C9_24 
REMARK       I    between atoms: C2_6  and  N2_8 
REMARK    4  A    between atoms: N2_8  and  N3_10 
REMARK    5  A    between atoms: C8_21  and  O4_22 
REMARK    6  A    between atoms: C9_24  and  N4_25 
REMARK    7  A    between atoms: C9_24  and  C10_29 
REMARK    8  A    between atoms: C10_29  and  O5_30 
REMARK    9  A    between atoms: N5_32  and  O6_34 
ROOT
HETATM    1  C2  UNL     1      -6.522  -0.105  26.671  1.00  0.00     0.269 C 
HETATM    2  O1  UNL     1      -7.382   0.722  27.088  1.00  0.00    -0.269 OA
HETATM    3  N2  UNL     1      -6.890  -0.987  25.632  1.00  0.00    -0.268 N 
ATOM      4  H2  UNL     1      -6.220  -1.666  25.270  1.00  0.00     0.190 HD
ENDROOT
BRANCH   1   5
HETATM    5  C1  UNL     1      -5.154  -0.170  27.237  1.00  0.00     0.314 C 
BRANCH   5   6
HETATM    6  N1  UNL     1      -5.198   0.144  28.641  1.00  0.00    -0.064 N 
ATOM      7  H13 UNL     1      -5.001  -0.669  29.223  1.00  0.00     0.275 HD
ATOM      8  H12 UNL     1      -4.411   0.726  28.930  1.00  0.00     0.275 HD
ATOM      9  H11 UNL     1      -6.096   0.570  28.868  1.00  0.00     0.275 HD
ENDBRANCH   5   6
BRANCH   5  10
HETATM   10  C9  UNL     1      -4.294   0.837  26.507  1.00  0.00     0.298 C 
BRANCH  10  11
HETATM   11  N4  UNL     1      -4.754   2.152  26.780  1.00  0.00    -0.065 N 
ATOM     12  H43 UNL     1      -4.133   2.650  27.418  1.00  0.00     0.275 HD
ATOM     13  H42 UNL     1      -4.660   2.766  25.972  1.00  0.00     0.275 HD
ATOM     14  H41 UNL     1      -5.713   2.118  27.127  1.00  0.00     0.275 HD
ENDBRANCH  10  11
BRANCH  10  15
HETATM   15  C10 UNL     1      -2.879   0.574  26.757  1.00  0.00     0.169 C 
HETATM   16  N5  UNL     1      -1.953   1.145  26.088  1.00  0.00    -0.249 N 
ATOM     17  H5  UNL     1      -0.989   0.906  26.323  1.00  0.00     0.196 HD
BRANCH  15  18
HETATM   18  O5  UNL     1      -2.526  -0.326  27.750  1.00  0.00    -0.346 OA
ATOM     19  H5  UNL     1      -2.864  -1.214  27.711  1.00  0.00     0.219 HD
ENDBRANCH  15  18
BRANCH  16  20
HETATM   20  O6  UNL     1      -2.148   2.038  25.096  1.00  0.00    -0.288 OA
ATOM     21  H6  UNL     1      -1.557   2.750  24.876  1.00  0.00     0.244 HD
ENDBRANCH  16  20
ENDBRANCH  10  15
ENDBRANCH   5  10
ENDBRANCH   1   5
BRANCH   3  22
HETATM   22  N3  UNL     1      -8.177  -0.919  25.106  1.00  0.00    -0.292 N 
HETATM   23  C3  UNL     1      -8.392  -0.119  24.122  1.00  0.00     0.099 C 
HETATM   24  S1  UNL     1      -7.460   1.025  23.145  1.00  0.00    -0.104 SA
HETATM   25  C8  UNL     1      -9.661   0.156  23.367  1.00  0.00     0.133 C 
HETATM   26  C4  UNL     1      -9.012   0.869  22.232  1.00  0.00     0.096 C 
HETATM   27  C5  UNL     1      -9.657   2.159  21.847  1.00  0.00     0.034 C 
HETATM   28  C6  UNL     1     -11.141   1.899  21.552  1.00  0.00     0.142 C 
HETATM   29  S2  UNL     1     -11.891   1.601  23.160  1.00  0.00     0.147 S 
HETATM   30  O2  UNL     1     -12.326   2.956  23.665  1.00  0.00    -0.228 OA
HETATM   31  O3  UNL     1     -13.021   0.642  23.069  1.00  0.00    -0.228 OA
HETATM   32  C7  UNL     1     -10.569   0.997  24.200  1.00  0.00     0.186 C 
ATOM     33  H3  UNL     1      -8.931  -1.487  25.492  1.00  0.00     0.187 HD
BRANCH  25  34
HETATM   34  O4  UNL     1     -10.271  -1.029  22.966  1.00  0.00    -0.381 OA
ATOM     35  H4  UNL     1     -11.159  -0.873  22.670  1.00  0.00     0.211 HD
ENDBRANCH  25  34
ENDBRANCH   3  22
TORSDOF 9
ENDMDL
MODEL 5
REMARK VINA RESULT: -6.676363696      2.365      2.975
REMARK  9 active torsions:
REMARK  status: ('A' for Active; 'I' for Inactive)
REMARK    1  A    between atoms: N1_1  and  C1_5 
REMARK    2  A    between atoms: C1_5  and  C2_6 
REMARK    3  A    between atoms: C1_5  and  C9_24 
REMARK       I    between atoms: C2_6  and  N2_8 
REMARK    4  A    between atoms: N2_8  and  N3_10 
REMARK    5  A    between atoms: C8_21  and  O4_22 
REMARK    6  A    between atoms: C9_24  and  N4_25 
REMARK    7  A    between atoms: C9_24  and  C10_29 
REMARK    8  A    between atoms: C10_29  and  O5_30 
REMARK    9  A    between atoms: N5_32  and  O6_34 
ROOT
HETATM    1  C2  UNL     1      -6.150   0.143  25.637  1.00  0.00     0.269 C 
HETATM    2  O1  UNL     1      -6.174   1.118  24.833  1.00  0.00    -0.269 OA
HETATM    3  N2  UNL     1      -7.174  -0.825  25.547  1.00  0.00    -0.268 N 
ATOM      4  H2  UNL     1      -7.185  -1.625  26.179  1.00  0.00     0.190 HD
ENDROOT
BRANCH   1   5
HETATM    5  C1  UNL     1      -5.087  -0.009  26.658  1.00  0.00     0.314 C 
BRANCH   5   6
HETATM    6  N1  UNL     1      -5.640   0.219  27.968  1.00  0.00    -0.064 N 
ATOM      7  H13 UNL     1      -4.918   0.278  28.685  1.00  0.00     0.275 HD
ATOM      8  H12 UNL     1      -6.023   1.159  28.066  1.00  0.00     0.275 HD
ATOM      9  H11 UNL     1      -6.331  -0.502  28.177  1.00  0.00     0.275 HD
ENDBRANCH   5   6
BRANCH   5  10
HETATM   10  C9  UNL     1      -4.007   1.010  26.368  1.00  0.00     0.298 C 
BRANCH  10  11
HETATM   11  N4  UNL     1      -4.421   2.291  26.815  1.00  0.00    -0.065 N 
ATOM     12  H43 UNL     1      -5.431   2.416  26.739  1.00  0.00     0.275 HD
ATOM     13  H42 UNL     1      -4.336   2.391  27.826  1.00  0.00     0.275 HD
ATOM     14  H41 UNL     1      -3.907   3.016  26.314  1.00  0.00     0.275 HD
ENDBRANCH  10  11
BRANCH  10  15
HETATM   15  C10 UNL     1      -2.715   0.533  26.855  1.00  0.00     0.169 C 
HETATM   16  N5  UNL     1      -1.611   0.926  26.349  1.00  0.00    -0.249 N 
ATOM     17  H5  UNL     1      -0.750   0.545  26.744  1.00  0.00     0.196 HD
BRANCH  15  18
HETATM   18  O5  UNL     1      -2.682  -0.377  27.900  1.00  0.00    -0.346 OA
ATOM     19  H5  UNL     1      -1.920  -0.935  28.003  1.00  0.00     0.219 HD
ENDBRANCH  15  18
BRANCH  16  20
HETATM   20  O6  UNL     1      -1.491   1.804  25.331  1.00  0.00    -0.288 OA
ATOM     21  H6  UNL     1      -0.827   1.769  24.652  1.00  0.00     0.244 HD
ENDBRANCH  16  20
ENDBRANCH  10  15
ENDBRANCH   5  10
ENDBRANCH   1   5
BRANCH   3  22
HETATM   22  N3  UNL     1      -8.168  -0.674  24.585  1.00  0.00    -0.292 N 
HETATM   23  C3  UNL     1      -9.395  -0.672  24.972  1.00  0.00     0.099 C 
HETATM   24  S1  UNL     1     -10.280  -0.816  26.497  1.00  0.00    -0.104 SA
HETATM   25  C8  UNL     1     -10.656  -0.530  24.168  1.00  0.00     0.133 C 
HETATM   26  C4  UNL     1     -11.551  -0.275  25.331  1.00  0.00     0.096 C 
HETATM   27  C5  UNL     1     -12.810  -1.075  25.343  1.00  0.00     0.034 C 
HETATM   28  C6  UNL     1     -13.554  -0.844  24.021  1.00  0.00     0.142 C 
HETATM   29  S2  UNL     1     -12.593  -1.728  22.784  1.00  0.00     0.147 S 
HETATM   30  O2  UNL     1     -13.160  -3.128  22.750  1.00  0.00    -0.228 OA
HETATM   31  O3  UNL     1     -12.655  -1.061  21.459  1.00  0.00    -0.228 OA
HETATM   32  C7  UNL     1     -10.929  -1.799  23.432  1.00  0.00     0.186 C 
ATOM     33  H3  UNL     1      -7.931  -0.569  23.598  1.00  0.00     0.187 HD
BRANCH  25  34
HETATM   34  O4  UNL     1     -10.581   0.564  23.310  1.00  0.00    -0.381 OA
ATOM     35  H4  UNL     1      -9.941   0.416  22.624  1.00  0.00     0.211 HD
ENDBRANCH  25  34
ENDBRANCH   3  22
TORSDOF 9
ENDMDL
