MODEL 1
REMARK VINA RESULT: -7.609286357      0.000      0.000
REMARK  7 active torsions:
REMARK  status: ('A' for Active; 'I' for Inactive)
REMARK    1  A    between atoms: C2_3  and  N2_4 
REMARK    2  A    between atoms: N2_4  and  C3_6 
REMARK    3  A    between atoms: C6_14  and  N5_15 
REMARK    4  A    between atoms: N5_15  and  C7_17 
REMARK    5  A    between atoms: C7_17  and  C8_18 
REMARK    6  A    between atoms: C8_18  and  N6_19 
REMARK    7  A    between atoms: N6_19  and  C9_21 
ROOT
HETATM    1  N1  UNL     1     -12.772   2.754  26.439  1.00  0.00    -0.191 NA
HETATM    2  C1  UNL     1     -12.973   1.650  26.210  1.00  0.00     0.105 C 
HETATM    3  C2  UNL     1     -13.213   0.228  25.924  1.00  0.00     0.184 C 
ENDROOT
BRANCH   3   4
HETATM    4  N2  UNL     1     -12.061  -0.533  25.791  1.00  0.00    -0.341 N 
ATOM      5  H2  UNL     1     -12.300  -1.511  25.627  1.00  0.00     0.167 HD
BRANCH   4   6
HETATM    6  C3  UNL     1     -10.827  -0.387  25.810  1.00  0.00     0.139 A 
HETATM    7  N3  UNL     1     -10.176  -0.538  27.019  1.00  0.00    -0.292 N 
HETATM    8  C4  UNL     1      -8.858  -0.400  27.131  1.00  0.00     0.326 A 
ATOM      9  H3  UNL     1     -10.722  -0.763  27.850  1.00  0.00     0.172 HD
HETATM   10  O1  UNL     1      -8.244  -0.532  28.220  1.00  0.00    -0.247 OA
HETATM   11  N4  UNL     1      -8.124  -0.103  26.035  1.00  0.00    -0.303 N 
HETATM   12  C5  UNL     1      -8.721   0.052  24.840  1.00  0.00     0.111 A 
ATOM     13  H4  UNL     1      -7.113   0.003  26.116  1.00  0.00     0.171 HD
HETATM   14  C6  UNL     1      -7.954   0.356  23.724  1.00  0.00     0.132 A 
HETATM   15  C14 UNL     1     -10.088  -0.084  24.683  1.00  0.00     0.108 A 
HETATM   16  N11 UNL     1      -8.575   0.504  22.547  1.00  0.00    -0.337 N 
HETATM   17  C13 UNL     1      -9.907   0.370  22.405  1.00  0.00     0.182 A 
ATOM     18  H11 UNL     1      -8.017   0.728  21.724  1.00  0.00     0.168 HD
HETATM   19  N12 UNL     1     -10.663   0.077  23.465  1.00  0.00    -0.347 N 
ATOM     20  H12 UNL     1     -11.673  -0.025  23.360  1.00  0.00     0.167 HD
BRANCH  14  21
HETATM   21  N5  UNL     1      -6.670   0.487  23.857  1.00  0.00    -0.373 N 
ATOM     22  H5  UNL     1      -6.112  -0.220  24.337  1.00  0.00     0.161 HD
BRANCH  21  23
HETATM   23  C7  UNL     1      -6.061   1.676  23.296  1.00  0.00     0.141 C 
BRANCH  23  24
HETATM   24  C8  UNL     1      -4.552   1.596  23.338  1.00  0.00     0.141 C 
BRANCH  24  25
HETATM   25  N6  UNL     1      -4.104   2.091  24.619  1.00  0.00    -0.373 N 
ATOM     26  H6  UNL     1      -4.272   3.071  24.844  1.00  0.00     0.161 HD
BRANCH  25  27
HETATM   27  C9  UNL     1      -3.509   1.364  25.483  1.00  0.00     0.130 A 
HETATM   28  N7  UNL     1      -2.208   1.048  25.354  1.00  0.00    -0.337 N 
HETATM   29  C10 UNL     1      -1.573   0.274  26.274  1.00  0.00     0.183 A 
ATOM     30  H7  UNL     1      -1.688   1.395  24.549  1.00  0.00     0.168 HD
HETATM   31  N8  UNL     1      -2.266  -0.180  27.331  1.00  0.00    -0.339 N 
HETATM   32  C11 UNL     1      -3.564   0.098  27.520  1.00  0.00     0.145 A 
ATOM     33  H8  UNL     1      -1.785  -0.760  28.018  1.00  0.00     0.167 HD
HETATM   34  N9  UNL     1      -4.265  -0.402  28.655  1.00  0.00    -0.081 NA
HETATM   35  C12 UNL     1      -4.200   0.882  26.584  1.00  0.00     0.131 A 
HETATM   36  N10 UNL     1      -5.577   1.203  26.745  1.00  0.00    -0.095 NA
ENDBRANCH  25  27
ENDBRANCH  24  25
ENDBRANCH  23  24
ENDBRANCH  21  23
ENDBRANCH  14  21
ENDBRANCH   4   6
ENDBRANCH   3   4
TORSDOF 7
ENDMDL
MODEL 2
REMARK VINA RESULT: -7.600852626      1.425      1.770
REMARK  7 active torsions:
REMARK  status: ('A' for Active; 'I' for Inactive)
REMARK    1  A    between atoms: C2_3  and  N2_4 
REMARK    2  A    between atoms: N2_4  and  C3_6 
REMARK    3  A    between atoms: C6_14  and  N5_15 
REMARK    4  A    between atoms: N5_15  and  C7_17 
REMARK    5  A    between atoms: C7_17  and  C8_18 
REMARK    6  A    between atoms: C8_18  and  N6_19 
REMARK    7  A    between atoms: N6_19  and  C9_21 
ROOT
HETATM    1  N1  UNL     1     -12.455   2.501  26.439  1.00  0.00    -0.191 NA
HETATM    2  C1  UNL     1     -12.581   1.499  25.899  1.00  0.00     0.105 C 
HETATM    3  C2  UNL     1     -12.722   0.210  25.207  1.00  0.00     0.184 C 
ENDROOT
BRANCH   3   4
HETATM    4  N2  UNL     1     -11.609  -0.172  24.473  1.00  0.00    -0.341 N 
ATOM      5  H2  UNL     1     -11.874  -0.380  23.510  1.00  0.00     0.167 HD
BRANCH   4   6
HETATM    6  C3  UNL     1     -10.388  -0.340  24.631  1.00  0.00     0.139 A 
HETATM    7  N3  UNL     1      -9.978  -1.308  25.526  1.00  0.00    -0.292 N 
HETATM    8  C4  UNL     1      -8.691  -1.554  25.757  1.00  0.00     0.326 A 
ATOM      9  H3  UNL     1     -10.682  -1.851  26.025  1.00  0.00     0.172 HD
HETATM   10  O1  UNL     1      -8.295  -2.430  26.568  1.00  0.00    -0.247 OA
HETATM   11  N4  UNL     1      -7.749  -0.841  25.101  1.00  0.00    -0.303 N 
HETATM   12  C5  UNL     1      -8.108   0.111  24.221  1.00  0.00     0.111 A 
ATOM     13  H4  UNL     1      -6.761  -1.026  25.274  1.00  0.00     0.171 HD
HETATM   14  C6  UNL     1      -7.128   0.834  23.555  1.00  0.00     0.132 A 
HETATM   15  C14 UNL     1      -9.434   0.396  23.954  1.00  0.00     0.108 A 
HETATM   16  N11 UNL     1      -7.516   1.775  22.685  1.00  0.00    -0.337 N 
HETATM   17  C13 UNL     1      -8.810   2.045  22.432  1.00  0.00     0.182 A 
ATOM     18  H11 UNL     1      -6.801   2.310  22.193  1.00  0.00     0.168 HD
HETATM   19  N12 UNL     1      -9.768   1.361  23.061  1.00  0.00    -0.347 N 
ATOM     20  H12 UNL     1     -10.749   1.564  22.871  1.00  0.00     0.167 HD
BRANCH  14  21
HETATM   21  N5  UNL     1      -5.880   0.578  23.796  1.00  0.00    -0.373 N 
ATOM     22  H5  UNL     1      -5.554  -0.377  23.948  1.00  0.00     0.161 HD
BRANCH  21  23
HETATM   23  C7  UNL     1      -4.966   1.702  23.841  1.00  0.00     0.141 C 
BRANCH  23  24
HETATM   24  C8  UNL     1      -3.806   1.434  24.772  1.00  0.00     0.141 C 
BRANCH  24  25
HETATM   25  N6  UNL     1      -4.211   1.777  26.115  1.00  0.00    -0.373 N 
ATOM     26  H6  UNL     1      -4.408   2.755  26.327  1.00  0.00     0.161 HD
BRANCH  25  27
HETATM   27  C9  UNL     1      -4.334   0.918  27.052  1.00  0.00     0.130 A 
HETATM   28  N7  UNL     1      -3.268   0.266  27.548  1.00  0.00    -0.337 N 
HETATM   29  C10 UNL     1      -3.398  -0.648  28.546  1.00  0.00     0.183 A 
ATOM     30  H7  UNL     1      -2.342   0.462  27.168  1.00  0.00     0.168 HD
HETATM   31  N8  UNL     1      -4.621  -0.901  29.040  1.00  0.00    -0.339 N 
HETATM   32  C11 UNL     1      -5.725  -0.287  28.591  1.00  0.00     0.145 A 
ATOM     33  H8  UNL     1      -4.714  -1.588  29.788  1.00  0.00     0.167 HD
HETATM   34  N9  UNL     1      -7.005  -0.582  29.142  1.00  0.00    -0.081 NA
HETATM   35  C12 UNL     1      -5.585   0.638  27.581  1.00  0.00     0.131 A 
HETATM   36  N10 UNL     1      -6.730   1.314  27.074  1.00  0.00    -0.095 NA
ENDBRANCH  25  27
ENDBRANCH  24  25
ENDBRANCH  23  24
ENDBRANCH  21  23
ENDBRANCH  14  21
ENDBRANCH   4   6
ENDBRANCH   3   4
TORSDOF 7
ENDMDL
MODEL 3
REMARK VINA RESULT: -7.501263017      3.394      7.933
REMARK  7 active torsions:
REMARK  status: ('A' for Active; 'I' for Inactive)
REMARK    1  A    between atoms: C2_3  and  N2_4 
REMARK    2  A    between atoms: N2_4  and  C3_6 
REMARK    3  A    between atoms: C6_14  and  N5_15 
REMARK    4  A    between atoms: N5_15  and  C7_17 
REMARK    5  A    between atoms: C7_17  and  C8_18 
REMARK    6  A    between atoms: C8_18  and  N6_19 
REMARK    7  A    between atoms: N6_19  and  C9_21 
ROOT
HETATM    1  N1  UNL     1      -2.295   1.639  27.177  1.00  0.00    -0.191 NA
HETATM    2  C1  UNL     1      -3.124   0.881  27.404  1.00  0.00     0.105 C 
HETATM    3  C2  UNL     1      -4.185  -0.099  27.674  1.00  0.00     0.184 C 
ENDROOT
BRANCH   3   4
HETATM    4  N2  UNL     1      -4.934  -0.456  26.563  1.00  0.00    -0.341 N 
ATOM      5  H2  UNL     1      -5.162  -1.450  26.594  1.00  0.00     0.167 HD
BRANCH   4   6
HETATM    6  C3  UNL     1      -5.412   0.065  25.540  1.00  0.00     0.139 A 
HETATM    7  N3  UNL     1      -4.592   0.883  24.788  1.00  0.00    -0.292 N 
HETATM    8  C4  UNL     1      -5.021   1.482  23.680  1.00  0.00     0.326 A 
ATOM      9  H3  UNL     1      -3.629   1.033  25.090  1.00  0.00     0.172 HD
HETATM   10  O1  UNL     1      -4.293   2.230  22.979  1.00  0.00    -0.247 OA
HETATM   11  N4  UNL     1      -6.294   1.290  23.269  1.00  0.00    -0.303 N 
HETATM   12  C5  UNL     1      -7.123   0.500  23.975  1.00  0.00     0.111 A 
ATOM     13  H4  UNL     1      -6.627   1.746  22.420  1.00  0.00     0.171 HD
HETATM   14  C6  UNL     1      -8.428   0.313  23.540  1.00  0.00     0.132 A 
HETATM   15  C14 UNL     1      -6.716  -0.139  25.131  1.00  0.00     0.108 A 
HETATM   16  N11 UNL     1      -9.231  -0.478  24.264  1.00  0.00    -0.337 N 
HETATM   17  C13 UNL     1      -8.824  -1.096  25.388  1.00  0.00     0.182 A 
ATOM     18  H11 UNL     1     -10.190  -0.620  23.949  1.00  0.00     0.168 HD
HETATM   19  N12 UNL     1      -7.573  -0.930  25.823  1.00  0.00    -0.347 N 
ATOM     20  H12 UNL     1      -7.262  -1.397  26.675  1.00  0.00     0.167 HD
BRANCH  14  21
HETATM   21  N5  UNL     1      -8.825   0.907  22.458  1.00  0.00    -0.373 N 
ATOM     22  H5  UNL     1      -8.541   0.574  21.536  1.00  0.00     0.161 HD
BRANCH  21  23
HETATM   23  C7  UNL     1      -9.687   2.062  22.609  1.00  0.00     0.141 C 
BRANCH  23  24
HETATM   24  C8  UNL     1      -9.411   3.101  21.547  1.00  0.00     0.141 C 
BRANCH  24  25
HETATM   25  N6  UNL     1      -8.902   2.430  20.374  1.00  0.00    -0.373 N 
ATOM     26  H6  UNL     1      -8.064   1.857  20.469  1.00  0.00     0.161 HD
BRANCH  25  27
HETATM   27  C9  UNL     1      -9.448   2.517  19.223  1.00  0.00     0.130 A 
HETATM   28  N7  UNL     1      -9.283   3.605  18.451  1.00  0.00    -0.337 N 
HETATM   29  C10 UNL     1      -9.864   3.698  17.225  1.00  0.00     0.183 A 
ATOM     30  H7  UNL     1      -8.710   4.377  18.792  1.00  0.00     0.168 HD
HETATM   31  N8  UNL     1     -10.616   2.678  16.783  1.00  0.00    -0.339 N 
HETATM   32  C11 UNL     1     -10.822   1.565  17.501  1.00  0.00     0.145 A 
ATOM     33  H8  UNL     1     -11.050   2.753  15.863  1.00  0.00     0.167 HD
HETATM   34  N9  UNL     1     -11.627   0.503  16.998  1.00  0.00    -0.081 NA
HETATM   35  C12 UNL     1     -10.230   1.478  18.741  1.00  0.00     0.131 A 
HETATM   36  N10 UNL     1     -10.421   0.313  19.538  1.00  0.00    -0.095 NA
ENDBRANCH  25  27
ENDBRANCH  24  25
ENDBRANCH  23  24
ENDBRANCH  21  23
ENDBRANCH  14  21
ENDBRANCH   4   6
ENDBRANCH   3   4
TORSDOF 7
ENDMDL
MODEL 4
REMARK VINA RESULT: -7.380563720      3.137      7.683
REMARK  7 active torsions:
REMARK  status: ('A' for Active; 'I' for Inactive)
REMARK    1  A    between atoms: C2_3  and  N2_4 
REMARK    2  A    between atoms: N2_4  and  C3_6 
REMARK    3  A    between atoms: C6_14  and  N5_15 
REMARK    4  A    between atoms: N5_15  and  C7_17 
REMARK    5  A    between atoms: C7_17  and  C8_18 
REMARK    6  A    between atoms: C8_18  and  N6_19 
REMARK    7  A    between atoms: N6_19  and  C9_21 
ROOT
HETATM    1  N1  UNL     1      -2.279   1.393  27.173  1.00  0.00    -0.191 NA
HETATM    2  C1  UNL     1      -3.189   0.763  27.471  1.00  0.00     0.105 C 
HETATM    3  C2  UNL     1      -4.352  -0.057  27.836  1.00  0.00     0.184 C 
ENDROOT
BRANCH   3   4
HETATM    4  N2  UNL     1      -4.969  -0.688  26.766  1.00  0.00    -0.341 N 
ATOM      5  H2  UNL     1      -4.398  -1.467  26.438  1.00  0.00     0.167 HD
BRANCH   4   6
HETATM    6  C3  UNL     1      -6.005  -0.594  26.086  1.00  0.00     0.139 A 
HETATM    7  N3  UNL     1      -7.092  -1.362  26.455  1.00  0.00    -0.292 N 
HETATM    8  C4  UNL     1      -8.240  -1.325  25.784  1.00  0.00     0.326 A 
ATOM      9  H3  UNL     1      -7.014  -1.974  27.267  1.00  0.00     0.172 HD
HETATM   10  O1  UNL     1      -9.243  -2.014  26.101  1.00  0.00    -0.247 OA
HETATM   11  N4  UNL     1      -8.357  -0.516  24.708  1.00  0.00    -0.303 N 
HETATM   12  C5  UNL     1      -7.320   0.247  24.316  1.00  0.00     0.111 A 
ATOM     13  H4  UNL     1      -9.235  -0.483  24.190  1.00  0.00     0.171 HD
HETATM   14  C6  UNL     1      -7.455   1.073  23.209  1.00  0.00     0.132 A 
HETATM   15  C14 UNL     1      -6.111   0.237  24.987  1.00  0.00     0.108 A 
HETATM   16  N11 UNL     1      -6.406   1.821  22.843  1.00  0.00    -0.337 N 
HETATM   17  C13 UNL     1      -5.234   1.803  23.503  1.00  0.00     0.182 A 
ATOM     18  H11 UNL     1      -6.500   2.430  22.031  1.00  0.00     0.168 HD
HETATM   19  N12 UNL     1      -5.082   1.016  24.571  1.00  0.00    -0.347 N 
ATOM     20  H12 UNL     1      -4.194   1.002  25.073  1.00  0.00     0.167 HD
BRANCH  14  21
HETATM   21  N5  UNL     1      -8.583   1.092  22.570  1.00  0.00    -0.373 N 
ATOM     22  H5  UNL     1      -8.837   0.350  21.917  1.00  0.00     0.161 HD
BRANCH  21  23
HETATM   23  C7  UNL     1      -9.470   2.212  22.818  1.00  0.00     0.141 C 
BRANCH  23  24
HETATM   24  C8  UNL     1      -9.528   3.145  21.631  1.00  0.00     0.141 C 
BRANCH  24  25
HETATM   25  N6  UNL     1      -8.946   2.473  20.493  1.00  0.00    -0.373 N 
ATOM     26  H6  UNL     1      -8.070   1.967  20.626  1.00  0.00     0.161 HD
BRANCH  25  27
HETATM   27  C9  UNL     1      -9.471   2.480  19.329  1.00  0.00     0.130 A 
HETATM   28  N7  UNL     1      -9.315   3.525  18.498  1.00  0.00    -0.337 N 
HETATM   29  C10 UNL     1      -9.873   3.533  17.258  1.00  0.00     0.183 A 
ATOM     30  H7  UNL     1      -8.767   4.329  18.804  1.00  0.00     0.168 HD
HETATM   31  N8  UNL     1     -10.594   2.471  16.863  1.00  0.00    -0.339 N 
HETATM   32  C11 UNL     1     -10.788   1.397  17.641  1.00  0.00     0.145 A 
ATOM     33  H8  UNL     1     -11.011   2.482  15.932  1.00  0.00     0.167 HD
HETATM   34  N9  UNL     1     -11.559   0.289  17.186  1.00  0.00    -0.081 NA
HETATM   35  C12 UNL     1     -10.219   1.396  18.895  1.00  0.00     0.131 A 
HETATM   36  N10 UNL     1     -10.399   0.276  19.755  1.00  0.00    -0.095 NA
ENDBRANCH  25  27
ENDBRANCH  24  25
ENDBRANCH  23  24
ENDBRANCH  21  23
ENDBRANCH  14  21
ENDBRANCH   4   6
ENDBRANCH   3   4
TORSDOF 7
ENDMDL
MODEL 5
REMARK VINA RESULT: -7.367180582      2.315      6.911
REMARK  7 active torsions:
REMARK  status: ('A' for Active; 'I' for Inactive)
REMARK    1  A    between atoms: C2_3  and  N2_4 
REMARK    2  A    between atoms: N2_4  and  C3_6 
REMARK    3  A    between atoms: C6_14  and  N5_15 
REMARK    4  A    between atoms: N5_15  and  C7_17 
REMARK    5  A    between atoms: C7_17  and  C8_18 
REMARK    6  A    between atoms: C8_18  and  N6_19 
REMARK    7  A    between atoms: N6_19  and  C9_21 
ROOT
HETATM    1  N1  UNL     1      -2.317   1.366  27.217  1.00  0.00    -0.191 NA
HETATM    2  C1  UNL     1      -3.174   0.699  27.581  1.00  0.00     0.105 C 
HETATM    3  C2  UNL     1      -4.271  -0.169  28.029  1.00  0.00     0.184 C 
ENDROOT
BRANCH   3   4
HETATM    4  N2  UNL     1      -4.996  -0.755  27.002  1.00  0.00    -0.341 N 
ATOM      5  H2  UNL     1      -4.657  -1.701  26.824  1.00  0.00     0.167 HD
BRANCH   4   6
HETATM    6  C3  UNL     1      -5.932  -0.480  26.232  1.00  0.00     0.139 A 
HETATM    7  N3  UNL     1      -5.650   0.287  25.119  1.00  0.00    -0.292 N 
HETATM    8  C4  UNL     1      -6.591   0.629  24.243  1.00  0.00     0.326 A 
ATOM      9  H3  UNL     1      -4.692   0.600  24.963  1.00  0.00     0.172 HD
HETATM   10  O1  UNL     1      -6.357   1.327  23.223  1.00  0.00    -0.247 OA
HETATM   11  N4  UNL     1      -7.864   0.219  24.438  1.00  0.00    -0.303 N 
HETATM   12  C5  UNL     1      -8.178  -0.529  25.511  1.00  0.00     0.111 A 
ATOM     13  H4  UNL     1      -8.588   0.478  23.769  1.00  0.00     0.171 HD
HETATM   14  C6  UNL     1      -9.490  -0.943  25.697  1.00  0.00     0.132 A 
HETATM   15  C14 UNL     1      -7.230  -0.905  26.443  1.00  0.00     0.108 A 
HETATM   16  N11 UNL     1      -9.774  -1.688  26.773  1.00  0.00    -0.337 N 
HETATM   17  C13 UNL     1      -8.843  -2.048  27.676  1.00  0.00     0.182 A 
ATOM     18  H11 UNL     1     -10.736  -1.994  26.916  1.00  0.00     0.168 HD
HETATM   19  N12 UNL     1      -7.575  -1.661  27.515  1.00  0.00    -0.347 N 
ATOM     20  H12 UNL     1      -6.868  -1.933  28.198  1.00  0.00     0.167 HD
BRANCH  14  21
HETATM   21  N5  UNL     1     -10.391  -0.597  24.830  1.00  0.00    -0.373 N 
ATOM     22  H5  UNL     1     -10.797   0.339  24.831  1.00  0.00     0.161 HD
BRANCH  21  23
HETATM   23  C7  UNL     1     -10.798  -1.594  23.860  1.00  0.00     0.141 C 
BRANCH  23  24
HETATM   24  C8  UNL     1     -10.619  -1.093  22.445  1.00  0.00     0.141 C 
BRANCH  24  25
HETATM   25  N6  UNL     1     -11.031   0.290  22.395  1.00  0.00    -0.373 N 
ATOM     26  H6  UNL     1     -11.897   0.554  22.864  1.00  0.00     0.161 HD
BRANCH  25  27
HETATM   27  C9  UNL     1     -10.367   1.200  21.793  1.00  0.00     0.130 A 
HETATM   28  N7  UNL     1     -10.195   1.174  20.460  1.00  0.00    -0.337 N 
HETATM   29  C10 UNL     1      -9.489   2.142  19.819  1.00  0.00     0.183 A 
ATOM     30  H7  UNL     1     -10.604   0.412  19.919  1.00  0.00     0.168 HD
HETATM   31  N8  UNL     1      -8.953   3.141  20.539  1.00  0.00    -0.339 N 
HETATM   32  C11 UNL     1      -9.086   3.227  21.869  1.00  0.00     0.145 A 
ATOM     33  H8  UNL     1      -8.424   3.865  20.053  1.00  0.00     0.167 HD
HETATM   34  N9  UNL     1      -8.504   4.303  22.599  1.00  0.00    -0.081 NA
HETATM   35  C12 UNL     1      -9.804   2.243  22.512  1.00  0.00     0.131 A 
HETATM   36  N10 UNL     1      -9.971   2.294  23.925  1.00  0.00    -0.095 NA
ENDBRANCH  25  27
ENDBRANCH  24  25
ENDBRANCH  23  24
ENDBRANCH  21  23
ENDBRANCH  14  21
ENDBRANCH   4   6
ENDBRANCH   3   4
TORSDOF 7
ENDMDL
