MODEL 1
REMARK VINA RESULT: -9.955904441      0.000      0.000
REMARK  12 active torsions:
REMARK  status: ('A' for Active; 'I' for Inactive)
REMARK    1  A    between atoms: N1_1  and  N2_4 
REMARK    2  A    between atoms: C1_6  and  C2_7 
REMARK    3  A    between atoms: C1_6  and  O6_28 
REMARK    4  A    between atoms: C2_7  and  N3_8 
REMARK    5  A    between atoms: N3_8  and  C3_10 
REMARK    6  A    between atoms: C8_20  and  N6_21 
REMARK    7  A    between atoms: C9_24  and  N7_25 
REMARK    8  A    between atoms: O6_28  and  C10_29 
REMARK    9  A    between atoms: C10_29  and  C11_30 
REMARK   10  A    between atoms: C10_29  and  C12_37 
REMARK       I    between atoms: C11_30  and  N8_32 
REMARK   11  A    between atoms: N8_32  and  N9_34 
REMARK   12  A    between atoms: C17_43  and  O9_44 
ROOT
HETATM    1  N2  UNL     1      29.441  25.687  25.460  1.00  0.00    -0.289 N 
ATOM      2  H2  UNL     1      29.692  24.843  25.977  1.00  0.00     0.188 HD
HETATM    3  C1  UNL     1      28.438  26.389  25.836  1.00  0.00     0.151 C 
ENDROOT
BRANCH   3   4
HETATM    4  C2  UNL     1      27.977  27.616  25.181  1.00  0.00     0.205 C 
BRANCH   4   5
HETATM    5  N3  UNL     1      27.162  27.466  24.029  1.00  0.00    -0.380 N 
ATOM      6  H3  UNL     1      26.495  26.697  23.964  1.00  0.00     0.160 HD
BRANCH   5   7
HETATM    7  C3  UNL     1      27.289  28.416  22.955  1.00  0.00     0.065 A 
HETATM    8  C4  UNL     1      27.046  29.762  23.106  1.00  0.00     0.051 A 
HETATM    9  C5  UNL     1      27.176  30.668  22.084  1.00  0.00     0.066 A 
HETATM   10  C6  UNL     1      26.999  32.044  21.957  1.00  0.00     0.272 A 
HETATM   11  C7  UNL     1      27.565  30.251  20.831  1.00  0.00     0.099 A 
HETATM   12  O1  UNL     1      26.643  32.761  22.908  1.00  0.00    -0.266 OA
HETATM   13  N4  UNL     1      27.275  32.405  20.690  1.00  0.00    -0.265 N 
HETATM   14  N5  UNL     1      27.614  31.341  20.011  1.00  0.00    -0.294 N 
ATOM     15  H4  UNL     1      27.228  33.354  20.321  1.00  0.00     0.190 HD
ATOM     16  H5  UNL     1      27.874  31.327  19.024  1.00  0.00     0.187 HD
HETATM   17  C8  UNL     1      27.819  28.899  20.647  1.00  0.00     0.167 A 
HETATM   18  C9  UNL     1      27.679  28.005  21.696  1.00  0.00     0.164 A 
BRANCH  17  19
HETATM   19  N6  UNL     1      28.214  28.490  19.357  1.00  0.00    -0.111 N 
HETATM   20  O2  UNL     1      27.370  28.406  18.464  1.00  0.00    -0.532 OA
HETATM   21  O3  UNL     1      29.517  28.191  19.100  1.00  0.00    -0.532 OA
ENDBRANCH  17  19
BRANCH  18  22
HETATM   22  N7  UNL     1      27.961  26.641  21.406  1.00  0.00    -0.111 N 
HETATM   23  O4  UNL     1      29.012  26.098  21.782  1.00  0.00    -0.532 OA
HETATM   24  O5  UNL     1      27.040  25.917  20.690  1.00  0.00    -0.532 OA
ENDBRANCH  18  22
ENDBRANCH   5   7
ENDBRANCH   4   5
ENDBRANCH   3   4
BRANCH   3  25
HETATM   25  O6  UNL     1      27.790  25.871  26.980  1.00  0.00    -0.317 OA
BRANCH  25  26
HETATM   26  C10 UNL     1      26.672  25.038  26.936  1.00  0.00     0.257 C 
BRANCH  26  27
HETATM   27  C11 UNL     1      27.198  23.646  27.214  1.00  0.00     0.269 C 
HETATM   28  O7  UNL     1      26.963  22.777  26.307  1.00  0.00    -0.269 OA
HETATM   29  N8  UNL     1      27.901  23.324  28.395  1.00  0.00    -0.274 N 
ATOM     30  H8  UNL     1      28.068  24.048  29.094  1.00  0.00     0.189 HD
BRANCH  29  31
HETATM   31  N9  UNL     1      28.365  22.041  28.617  1.00  0.00    -0.343 N 
ATOM     32  H92 UNL     1      27.787  21.255  28.321  1.00  0.00     0.176 HD
ATOM     33  H91 UNL     1      29.267  21.881  29.067  1.00  0.00     0.176 HD
ENDBRANCH  29  31
ENDBRANCH  26  27
BRANCH  26  34
HETATM   34  C12 UNL     1      25.653  25.325  27.991  1.00  0.00    -0.017 C 
HETATM   35  C13 UNL     1      24.430  24.711  27.837  1.00  0.00     0.010 C 
HETATM   36  C14 UNL     1      23.345  24.818  28.698  1.00  0.00     0.005 C 
HETATM   37  C15 UNL     1      23.285  25.242  30.026  1.00  0.00     0.058 C 
HETATM   38  C16 UNL     1      24.223  25.992  30.714  1.00  0.00     0.204 C 
HETATM   39  O8  UNL     1      23.929  26.291  31.913  1.00  0.00    -0.285 OA
HETATM   40  C17 UNL     1      25.434  26.444  30.232  1.00  0.00     0.116 C 
HETATM   41  C18 UNL     1      26.047  26.168  29.027  1.00  0.00     0.050 C 
BRANCH  40  42
HETATM   42  O9  UNL     1      26.087  27.291  31.118  1.00  0.00    -0.357 OA
ATOM     43  H9  UNL     1      26.511  26.827  31.830  1.00  0.00     0.218 HD
ENDBRANCH  40  42
ENDBRANCH  26  34
ENDBRANCH  25  26
ENDBRANCH   3  25
BRANCH   1  44
HETATM   44  N1  UNL     1      30.187  26.067  24.359  1.00  0.00    -0.343 N 
ATOM     45  H12 UNL     1      30.763  26.907  24.420  1.00  0.00     0.176 HD
ATOM     46  H11 UNL     1      30.159  25.513  23.502  1.00  0.00     0.176 HD
ENDBRANCH   1  44
TORSDOF 12
ENDMDL
MODEL 2
REMARK VINA RESULT: -9.589540462      1.088      1.104
REMARK  12 active torsions:
REMARK  status: ('A' for Active; 'I' for Inactive)
REMARK    1  A    between atoms: N1_1  and  N2_4 
REMARK    2  A    between atoms: C1_6  and  C2_7 
REMARK    3  A    between atoms: C1_6  and  O6_28 
REMARK    4  A    between atoms: C2_7  and  N3_8 
REMARK    5  A    between atoms: N3_8  and  C3_10 
REMARK    6  A    between atoms: C8_20  and  N6_21 
REMARK    7  A    between atoms: C9_24  and  N7_25 
REMARK    8  A    between atoms: O6_28  and  C10_29 
REMARK    9  A    between atoms: C10_29  and  C11_30 
REMARK   10  A    between atoms: C10_29  and  C12_37 
REMARK       I    between atoms: C11_30  and  N8_32 
REMARK   11  A    between atoms: N8_32  and  N9_34 
REMARK   12  A    between atoms: C17_43  and  O9_44 
ROOT
HETATM    1  N2  UNL     1      29.429  25.761  25.515  1.00  0.00    -0.289 N 
ATOM      2  H2  UNL     1      29.877  25.319  26.318  1.00  0.00     0.188 HD
HETATM    3  C1  UNL     1      28.186  26.065  25.567  1.00  0.00     0.151 C 
ENDROOT
BRANCH   3   4
HETATM    4  C2  UNL     1      27.428  26.699  24.486  1.00  0.00     0.205 C 
BRANCH   4   5
HETATM    5  N3  UNL     1      27.834  27.999  24.088  1.00  0.00    -0.380 N 
ATOM      6  H3  UNL     1      28.571  28.489  24.596  1.00  0.00     0.160 HD
BRANCH   5   7
HETATM    7  C3  UNL     1      27.193  28.616  22.956  1.00  0.00     0.065 A 
HETATM    8  C4  UNL     1      26.321  29.675  23.070  1.00  0.00     0.051 A 
HETATM    9  C5  UNL     1      25.716  30.269  21.990  1.00  0.00     0.066 A 
HETATM   10  C6  UNL     1      24.820  31.320  21.817  1.00  0.00     0.272 A 
HETATM   11  C7  UNL     1      25.967  29.813  20.716  1.00  0.00     0.099 A 
HETATM   12  O1  UNL     1      24.369  31.977  22.772  1.00  0.00    -0.266 OA
HETATM   13  N4  UNL     1      24.565  31.466  20.504  1.00  0.00    -0.265 N 
HETATM   14  N5  UNL     1      25.246  30.570  19.839  1.00  0.00    -0.294 N 
ATOM     15  H4  UNL     1      23.942  32.162  20.094  1.00  0.00     0.190 HD
ATOM     16  H5  UNL     1      25.239  30.455  18.825  1.00  0.00     0.187 HD
HETATM   17  C8  UNL     1      26.843  28.747  20.569  1.00  0.00     0.167 A 
HETATM   18  C9  UNL     1      27.439  28.165  21.676  1.00  0.00     0.164 A 
BRANCH  17  19
HETATM   19  N6  UNL     1      27.086  28.291  19.257  1.00  0.00    -0.111 N 
HETATM   20  O2  UNL     1      26.248  27.583  18.698  1.00  0.00    -0.532 OA
HETATM   21  O3  UNL     1      28.235  28.633  18.613  1.00  0.00    -0.532 OA
ENDBRANCH  17  19
BRANCH  18  22
HETATM   22  N7  UNL     1      28.320  27.077  21.420  1.00  0.00    -0.111 N 
HETATM   23  O4  UNL     1      29.554  27.213  21.462  1.00  0.00    -0.532 OA
HETATM   24  O5  UNL     1      27.781  25.851  21.120  1.00  0.00    -0.532 OA
ENDBRANCH  18  22
ENDBRANCH   5   7
ENDBRANCH   4   5
ENDBRANCH   3   4
BRANCH   3  25
HETATM   25  O6  UNL     1      27.581  25.734  26.801  1.00  0.00    -0.317 OA
BRANCH  25  26
HETATM   26  C10 UNL     1      26.479  24.890  26.929  1.00  0.00     0.257 C 
BRANCH  26  27
HETATM   27  C11 UNL     1      27.052  23.534  27.287  1.00  0.00     0.269 C 
HETATM   28  O7  UNL     1      26.999  22.653  26.363  1.00  0.00    -0.269 OA
HETATM   29  N8  UNL     1      27.607  23.258  28.554  1.00  0.00    -0.274 N 
ATOM     30  H8  UNL     1      27.630  23.990  29.264  1.00  0.00     0.189 HD
BRANCH  29  31
HETATM   31  N9  UNL     1      28.121  22.007  28.847  1.00  0.00    -0.343 N 
ATOM     32  H92 UNL     1      27.709  21.479  29.616  1.00  0.00     0.176 HD
ATOM     33  H91 UNL     1      28.894  21.619  28.307  1.00  0.00     0.176 HD
ENDBRANCH  29  31
ENDBRANCH  26  27
BRANCH  26  34
HETATM   34  C12 UNL     1      25.548  25.261  28.038  1.00  0.00    -0.017 C 
HETATM   35  C13 UNL     1      24.306  24.668  28.013  1.00  0.00     0.010 C 
HETATM   36  C14 UNL     1      23.291  24.850  28.945  1.00  0.00     0.005 C 
HETATM   37  C15 UNL     1      23.340  25.353  30.245  1.00  0.00     0.058 C 
HETATM   38  C16 UNL     1      24.341  26.121  30.815  1.00  0.00     0.204 C 
HETATM   39  O8  UNL     1      24.144  26.497  32.012  1.00  0.00    -0.285 OA
HETATM   40  C17 UNL     1      25.520  26.516  30.218  1.00  0.00     0.116 C 
HETATM   41  C18 UNL     1      26.035  26.154  28.989  1.00  0.00     0.050 C 
BRANCH  40  42
HETATM   42  O9  UNL     1      26.255  27.398  30.999  1.00  0.00    -0.357 OA
ATOM     43  H9  UNL     1      25.800  27.658  31.791  1.00  0.00     0.218 HD
ENDBRANCH  40  42
ENDBRANCH  26  34
ENDBRANCH  25  26
ENDBRANCH   3  25
BRANCH   1  44
HETATM   44  N1  UNL     1      30.167  26.030  24.376  1.00  0.00    -0.343 N 
ATOM     45  H12 UNL     1      29.886  26.808  23.779  1.00  0.00     0.176 HD
ATOM     46  H11 UNL     1      30.977  25.457  24.140  1.00  0.00     0.176 HD
ENDBRANCH   1  44
TORSDOF 12
ENDMDL
MODEL 3
REMARK VINA RESULT: -9.578790526      1.364      2.931
REMARK  12 active torsions:
REMARK  status: ('A' for Active; 'I' for Inactive)
REMARK    1  A    between atoms: N1_1  and  N2_4 
REMARK    2  A    between atoms: C1_6  and  C2_7 
REMARK    3  A    between atoms: C1_6  and  O6_28 
REMARK    4  A    between atoms: C2_7  and  N3_8 
REMARK    5  A    between atoms: N3_8  and  C3_10 
REMARK    6  A    between atoms: C8_20  and  N6_21 
REMARK    7  A    between atoms: C9_24  and  N7_25 
REMARK    8  A    between atoms: O6_28  and  C10_29 
REMARK    9  A    between atoms: C10_29  and  C11_30 
REMARK   10  A    between atoms: C10_29  and  C12_37 
REMARK       I    between atoms: C11_30  and  N8_32 
REMARK   11  A    between atoms: N8_32  and  N9_34 
REMARK   12  A    between atoms: C17_43  and  O9_44 
ROOT
HETATM    1  N2  UNL     1      28.630  24.587  24.873  1.00  0.00    -0.289 N 
ATOM      2  H2  UNL     1      28.265  23.701  25.222  1.00  0.00     0.188 HD
HETATM    3  C1  UNL     1      28.461  25.658  25.555  1.00  0.00     0.151 C 
ENDROOT
BRANCH   3   4
HETATM    4  C2  UNL     1      28.934  26.989  25.164  1.00  0.00     0.205 C 
BRANCH   4   5
HETATM    5  N3  UNL     1      27.948  27.960  24.854  1.00  0.00    -0.380 N 
ATOM      6  H3  UNL     1      27.428  28.426  25.599  1.00  0.00     0.160 HD
BRANCH   5   7
HETATM    7  C3  UNL     1      27.692  28.281  23.474  1.00  0.00     0.065 A 
HETATM    8  C4  UNL     1      27.570  27.327  22.490  1.00  0.00     0.051 A 
HETATM    9  C5  UNL     1      27.318  27.632  21.176  1.00  0.00     0.066 A 
HETATM   10  C6  UNL     1      27.151  26.894  20.007  1.00  0.00     0.272 A 
HETATM   11  C7  UNL     1      27.173  28.944  20.782  1.00  0.00     0.099 A 
HETATM   12  O1  UNL     1      27.218  25.653  19.985  1.00  0.00    -0.266 OA
HETATM   13  N4  UNL     1      26.921  27.740  18.985  1.00  0.00    -0.265 N 
HETATM   14  N5  UNL     1      26.932  28.965  19.439  1.00  0.00    -0.294 N 
ATOM     15  H4  UNL     1      26.763  27.468  18.015  1.00  0.00     0.190 HD
ATOM     16  H5  UNL     1      26.784  29.805  18.879  1.00  0.00     0.187 HD
HETATM   17  C8  UNL     1      27.290  29.928  21.753  1.00  0.00     0.167 A 
HETATM   18  C9  UNL     1      27.546  29.593  23.073  1.00  0.00     0.164 A 
BRANCH  17  19
HETATM   19  N6  UNL     1      27.142  31.266  21.332  1.00  0.00    -0.111 N 
HETATM   20  O2  UNL     1      26.012  31.721  21.150  1.00  0.00    -0.532 OA
HETATM   21  O3  UNL     1      28.237  32.047  21.128  1.00  0.00    -0.532 OA
ENDBRANCH  17  19
BRANCH  18  22
HETATM   22  N7  UNL     1      27.650  30.674  23.991  1.00  0.00    -0.111 N 
HETATM   23  O4  UNL     1      28.751  31.112  24.362  1.00  0.00    -0.532 OA
HETATM   24  O5  UNL     1      26.496  31.241  24.473  1.00  0.00    -0.532 OA
ENDBRANCH  18  22
ENDBRANCH   5   7
ENDBRANCH   4   5
ENDBRANCH   3   4
BRANCH   3  25
HETATM   25  O6  UNL     1      27.760  25.446  26.764  1.00  0.00    -0.317 OA
BRANCH  25  26
HETATM   26  C10 UNL     1      26.604  24.674  26.872  1.00  0.00     0.257 C 
BRANCH  26  27
HETATM   27  C11 UNL     1      27.079  23.298  27.290  1.00  0.00     0.269 C 
HETATM   28  O7  UNL     1      27.075  22.412  26.370  1.00  0.00    -0.269 OA
HETATM   29  N8  UNL     1      27.497  23.009  28.607  1.00  0.00    -0.274 N 
ATOM     30  H8  UNL     1      27.485  23.746  29.312  1.00  0.00     0.189 HD
BRANCH  29  31
HETATM   31  N9  UNL     1      27.923  21.740  28.953  1.00  0.00    -0.343 N 
ATOM     32  H92 UNL     1      27.228  21.000  29.043  1.00  0.00     0.176 HD
ATOM     33  H91 UNL     1      28.911  21.546  29.117  1.00  0.00     0.176 HD
ENDBRANCH  29  31
ENDBRANCH  26  27
BRANCH  26  34
HETATM   34  C12 UNL     1      25.657  25.135  27.933  1.00  0.00    -0.017 C 
HETATM   35  C13 UNL     1      24.381  24.620  27.874  1.00  0.00     0.010 C 
HETATM   36  C14 UNL     1      23.346  24.892  28.759  1.00  0.00     0.005 C 
HETATM   37  C15 UNL     1      23.376  25.428  30.046  1.00  0.00     0.058 C 
HETATM   38  C16 UNL     1      24.401  26.149  30.635  1.00  0.00     0.204 C 
HETATM   39  O8  UNL     1      24.182  26.570  31.813  1.00  0.00    -0.285 OA
HETATM   40  C17 UNL     1      25.625  26.452  30.075  1.00  0.00     0.116 C 
HETATM   41  C18 UNL     1      26.163  26.024  28.878  1.00  0.00     0.050 C 
BRANCH  40  42
HETATM   42  O9  UNL     1      26.383  27.309  30.862  1.00  0.00    -0.357 OA
ATOM     43  H9  UNL     1      26.428  28.191  30.512  1.00  0.00     0.218 HD
ENDBRANCH  40  42
ENDBRANCH  26  34
ENDBRANCH  25  26
ENDBRANCH   3  25
BRANCH   1  44
HETATM   44  N1  UNL     1      29.307  24.626  23.667  1.00  0.00    -0.343 N 
ATOM     45  H12 UNL     1      30.100  24.001  23.527  1.00  0.00     0.176 HD
ATOM     46  H11 UNL     1      29.014  25.272  22.933  1.00  0.00     0.176 HD
ENDBRANCH   1  44
TORSDOF 12
ENDMDL
MODEL 4
REMARK VINA RESULT: -9.555789190      1.464      2.893
REMARK  12 active torsions:
REMARK  status: ('A' for Active; 'I' for Inactive)
REMARK    1  A    between atoms: N1_1  and  N2_4 
REMARK    2  A    between atoms: C1_6  and  C2_7 
REMARK    3  A    between atoms: C1_6  and  O6_28 
REMARK    4  A    between atoms: C2_7  and  N3_8 
REMARK    5  A    between atoms: N3_8  and  C3_10 
REMARK    6  A    between atoms: C8_20  and  N6_21 
REMARK    7  A    between atoms: C9_24  and  N7_25 
REMARK    8  A    between atoms: O6_28  and  C10_29 
REMARK    9  A    between atoms: C10_29  and  C11_30 
REMARK   10  A    between atoms: C10_29  and  C12_37 
REMARK       I    between atoms: C11_30  and  N8_32 
REMARK   11  A    between atoms: N8_32  and  N9_34 
REMARK   12  A    between atoms: C17_43  and  O9_44 
ROOT
HETATM    1  N2  UNL     1      28.727  24.997  24.837  1.00  0.00    -0.289 N 
ATOM      2  H2  UNL     1      28.555  24.061  25.205  1.00  0.00     0.188 HD
HETATM    3  C1  UNL     1      28.345  26.023  25.502  1.00  0.00     0.151 C 
ENDROOT
BRANCH   3   4
HETATM    4  C2  UNL     1      28.531  27.414  25.083  1.00  0.00     0.205 C 
BRANCH   4   5
HETATM    5  N3  UNL     1      27.368  28.139  24.714  1.00  0.00    -0.380 N 
ATOM      6  H3  UNL     1      26.627  28.308  25.394  1.00  0.00     0.160 HD
BRANCH   5   7
HETATM    7  C3  UNL     1      27.250  28.632  23.366  1.00  0.00     0.065 A 
HETATM    8  C4  UNL     1      28.083  28.237  22.345  1.00  0.00     0.051 A 
HETATM    9  C5  UNL     1      27.965  28.701  21.058  1.00  0.00     0.066 A 
HETATM   10  C6  UNL     1      28.648  28.481  19.864  1.00  0.00     0.272 A 
HETATM   11  C7  UNL     1      26.980  29.606  20.733  1.00  0.00     0.099 A 
HETATM   12  O1  UNL     1      29.616  27.706  19.782  1.00  0.00    -0.266 OA
HETATM   13  N4  UNL     1      28.082  29.223  18.894  1.00  0.00    -0.265 N 
HETATM   14  N5  UNL     1      27.086  29.898  19.405  1.00  0.00    -0.294 N 
ATOM     15  H4  UNL     1      28.383  29.254  17.920  1.00  0.00     0.190 HD
ATOM     16  H5  UNL     1      26.483  30.542  18.891  1.00  0.00     0.187 HD
HETATM   17  C8  UNL     1      26.124  30.022  21.743  1.00  0.00     0.167 A 
HETATM   18  C9  UNL     1      26.265  29.539  23.033  1.00  0.00     0.164 A 
BRANCH  17  19
HETATM   19  N6  UNL     1      25.122  30.951  21.393  1.00  0.00    -0.111 N 
HETATM   20  O2  UNL     1      24.137  30.569  20.760  1.00  0.00    -0.532 OA
HETATM   21  O3  UNL     1      25.242  32.258  21.751  1.00  0.00    -0.532 OA
ENDBRANCH  17  19
BRANCH  18  22
HETATM   22  N7  UNL     1      25.339  30.028  23.996  1.00  0.00    -0.111 N 
HETATM   23  O4  UNL     1      24.173  29.606  24.052  1.00  0.00    -0.532 OA
HETATM   24  O5  UNL     1      25.757  30.991  24.881  1.00  0.00    -0.532 OA
ENDBRANCH  18  22
ENDBRANCH   5   7
ENDBRANCH   4   5
ENDBRANCH   3   4
BRANCH   3  25
HETATM   25  O6  UNL     1      27.711  25.694  26.722  1.00  0.00    -0.317 OA
BRANCH  25  26
HETATM   26  C10 UNL     1      26.591  24.870  26.823  1.00  0.00     0.257 C 
BRANCH  26  27
HETATM   27  C11 UNL     1      27.131  23.501  27.182  1.00  0.00     0.269 C 
HETATM   28  O7  UNL     1      27.055  22.620  26.259  1.00  0.00    -0.269 OA
HETATM   29  N8  UNL     1      27.682  23.213  28.449  1.00  0.00    -0.274 N 
ATOM     30  H8  UNL     1      27.724  23.945  29.158  1.00  0.00     0.189 HD
BRANCH  29  31
HETATM   31  N9  UNL     1      28.165  21.951  28.742  1.00  0.00    -0.343 N 
ATOM     32  H92 UNL     1      28.830  21.849  29.508  1.00  0.00     0.176 HD
ATOM     33  H91 UNL     1      27.864  21.137  28.206  1.00  0.00     0.176 HD
ENDBRANCH  29  31
ENDBRANCH  26  27
BRANCH  26  34
HETATM   34  C12 UNL     1      25.647  25.251  27.917  1.00  0.00    -0.017 C 
HETATM   35  C13 UNL     1      24.398  24.674  27.871  1.00  0.00     0.010 C 
HETATM   36  C14 UNL     1      23.371  24.868  28.786  1.00  0.00     0.005 C 
HETATM   37  C15 UNL     1      23.404  25.369  30.087  1.00  0.00     0.058 C 
HETATM   38  C16 UNL     1      24.405  26.124  30.675  1.00  0.00     0.204 C 
HETATM   39  O8  UNL     1      24.193  26.500  31.869  1.00  0.00    -0.285 OA
HETATM   40  C17 UNL     1      25.598  26.504  30.097  1.00  0.00     0.116 C 
HETATM   41  C18 UNL     1      26.129  26.138  28.877  1.00  0.00     0.050 C 
BRANCH  40  42
HETATM   42  O9  UNL     1      26.331  27.377  30.892  1.00  0.00    -0.357 OA
ATOM     43  H9  UNL     1      26.677  28.117  30.408  1.00  0.00     0.218 HD
ENDBRANCH  40  42
ENDBRANCH  26  34
ENDBRANCH  25  26
ENDBRANCH   3  25
BRANCH   1  44
HETATM   44  N1  UNL     1      29.373  25.151  23.623  1.00  0.00    -0.343 N 
ATOM     45  H12 UNL     1      30.141  25.820  23.555  1.00  0.00     0.176 HD
ATOM     46  H11 UNL     1      29.083  24.604  22.812  1.00  0.00     0.176 HD
ENDBRANCH   1  44
TORSDOF 12
ENDMDL
MODEL 5
REMARK VINA RESULT: -9.442682322      2.074      2.848
REMARK  12 active torsions:
REMARK  status: ('A' for Active; 'I' for Inactive)
REMARK    1  A    between atoms: N1_1  and  N2_4 
REMARK    2  A    between atoms: C1_6  and  C2_7 
REMARK    3  A    between atoms: C1_6  and  O6_28 
REMARK    4  A    between atoms: C2_7  and  N3_8 
REMARK    5  A    between atoms: N3_8  and  C3_10 
REMARK    6  A    between atoms: C8_20  and  N6_21 
REMARK    7  A    between atoms: C9_24  and  N7_25 
REMARK    8  A    between atoms: O6_28  and  C10_29 
REMARK    9  A    between atoms: C10_29  and  C11_30 
REMARK   10  A    between atoms: C10_29  and  C12_37 
REMARK       I    between atoms: C11_30  and  N8_32 
REMARK   11  A    between atoms: N8_32  and  N9_34 
REMARK   12  A    between atoms: C17_43  and  O9_44 
ROOT
HETATM    1  N2  UNL     1      26.359  30.071  26.222  1.00  0.00    -0.289 N 
ATOM      2  H2  UNL     1      25.790  29.812  27.028  1.00  0.00     0.188 HD
HETATM    3  C1  UNL     1      27.307  29.300  25.838  1.00  0.00     0.151 C 
ENDROOT
BRANCH   3   4
HETATM    4  C2  UNL     1      28.194  29.558  24.701  1.00  0.00     0.205 C 
BRANCH   4   5
HETATM    5  N3  UNL     1      28.196  28.602  23.653  1.00  0.00    -0.380 N 
ATOM      6  H3  UNL     1      28.734  27.740  23.740  1.00  0.00     0.160 HD
BRANCH   5   7
HETATM    7  C3  UNL     1      27.428  28.867  22.464  1.00  0.00     0.065 A 
HETATM    8  C4  UNL     1      26.552  29.922  22.353  1.00  0.00     0.051 A 
HETATM    9  C5  UNL     1      25.826  30.179  21.217  1.00  0.00     0.066 A 
HETATM   10  C6  UNL     1      24.896  31.143  20.838  1.00  0.00     0.272 A 
HETATM   11  C7  UNL     1      25.952  29.365  20.113  1.00  0.00     0.099 A 
HETATM   12  O1  UNL     1      24.533  32.057  21.600  1.00  0.00    -0.266 OA
HETATM   13  N4  UNL     1      24.503  30.899  19.574  1.00  0.00    -0.265 N 
HETATM   14  N5  UNL     1      25.128  29.839  19.133  1.00  0.00    -0.294 N 
ATOM     15  H4  UNL     1      23.827  31.451  19.046  1.00  0.00     0.190 HD
ATOM     16  H5  UNL     1      25.019  29.431  18.205  1.00  0.00     0.187 HD
HETATM   17  C8  UNL     1      26.829  28.293  20.195  1.00  0.00     0.167 A 
HETATM   18  C9  UNL     1      27.549  28.056  21.354  1.00  0.00     0.164 A 
BRANCH  17  19
HETATM   19  N6  UNL     1      26.944  27.469  19.056  1.00  0.00    -0.111 N 
HETATM   20  O2  UNL     1      26.075  26.626  18.830  1.00  0.00    -0.532 OA
HETATM   21  O3  UNL     1      28.003  27.606  18.213  1.00  0.00    -0.532 OA
ENDBRANCH  17  19
BRANCH  18  22
HETATM   22  N7  UNL     1      28.420  26.931  21.338  1.00  0.00    -0.111 N 
HETATM   23  O4  UNL     1      29.634  27.050  21.102  1.00  0.00    -0.532 OA
HETATM   24  O5  UNL     1      27.895  25.688  21.590  1.00  0.00    -0.532 OA
ENDBRANCH  18  22
ENDBRANCH   5   7
ENDBRANCH   4   5
ENDBRANCH   3   4
BRANCH   3  25
HETATM   25  O6  UNL     1      27.430  28.131  26.624  1.00  0.00    -0.317 OA
BRANCH  25  26
HETATM   26  C10 UNL     1      26.674  26.975  26.427  1.00  0.00     0.257 C 
BRANCH  26  27
HETATM   27  C11 UNL     1      27.667  25.917  25.992  1.00  0.00     0.269 C 
HETATM   28  O7  UNL     1      28.562  25.615  26.853  1.00  0.00    -0.269 OA
HETATM   29  N8  UNL     1      27.611  25.303  24.723  1.00  0.00    -0.274 N 
ATOM     30  H8  UNL     1      26.879  25.573  24.065  1.00  0.00     0.189 HD
BRANCH  29  31
HETATM   31  N9  UNL     1      28.535  24.341  24.359  1.00  0.00    -0.343 N 
ATOM     32  H92 UNL     1      28.514  23.440  24.835  1.00  0.00     0.176 HD
ATOM     33  H91 UNL     1      29.224  24.526  23.630  1.00  0.00     0.176 HD
ENDBRANCH  29  31
ENDBRANCH  26  27
BRANCH  26  34
HETATM   34  C12 UNL     1      26.017  26.456  27.665  1.00  0.00    -0.017 C 
HETATM   35  C13 UNL     1      26.434  27.012  28.854  1.00  0.00     0.010 C 
HETATM   36  C14 UNL     1      25.953  26.698  30.119  1.00  0.00     0.005 C 
HETATM   37  C15 UNL     1      24.777  26.054  30.503  1.00  0.00     0.058 C 
HETATM   38  C16 UNL     1      23.959  25.255  29.723  1.00  0.00     0.204 C 
HETATM   39  O8  UNL     1      22.955  24.743  30.307  1.00  0.00    -0.285 OA
HETATM   40  C17 UNL     1      24.124  24.964  28.384  1.00  0.00     0.116 C 
HETATM   41  C18 UNL     1      25.043  25.475  27.490  1.00  0.00     0.050 C 
BRANCH  40  42
HETATM   42  O9  UNL     1      23.217  24.021  27.919  1.00  0.00    -0.357 OA
ATOM     43  H9  UNL     1      22.626  24.368  27.261  1.00  0.00     0.218 HD
ENDBRANCH  40  42
ENDBRANCH  26  34
ENDBRANCH  25  26
ENDBRANCH   3  25
BRANCH   1  44
HETATM   44  N1  UNL     1      26.104  31.253  25.550  1.00  0.00    -0.343 N 
ATOM     45  H12 UNL     1      26.854  31.684  25.010  1.00  0.00     0.176 HD
ATOM     46  H11 UNL     1      25.180  31.683  25.596  1.00  0.00     0.176 HD
ENDBRANCH   1  44
TORSDOF 12
ENDMDL
