MODEL 1
REMARK VINA RESULT: -5.944392771      0.000      0.000
REMARK  7 active torsions:
REMARK  status: ('A' for Active; 'I' for Inactive)
REMARK    1  A    between atoms: N1_1  and  C1_4 
REMARK    2  A    between atoms: C2_7  and  N3_8 
REMARK    3  A    between atoms: N3_8  and  C3_10 
REMARK    4  A    between atoms: C3_10  and  C4_11 
REMARK    5  A    between atoms: C7_16  and  N5_17 
REMARK    6  A    between atoms: N5_17  and  C8_19 
REMARK    7  A    between atoms: C8_19  and  C9_20 
ROOT
HETATM    1  C1  UNL     1       0.381  17.707  15.639  1.00  0.00     0.705 A 
HETATM    2  N2  UNL     1       1.262  17.827  16.658  1.00  0.00    -0.022 N 
ATOM      3  H2  UNL     1       1.949  18.581  16.662  1.00  0.00     0.203 HD
HETATM    4  C2  UNL     1       1.217  16.933  17.670  1.00  0.00     0.707 A 
HETATM    5  N4  UNL     1       0.311  15.960  17.639  1.00  0.00    -0.022 N 
ATOM      6  H4  UNL     1       0.281  15.288  18.405  1.00  0.00     0.203 HD
HETATM    7  C7  UNL     1      -0.569  15.835  16.626  1.00  0.00     0.707 A 
HETATM    8  N7  UNL     1      -0.537  16.717  15.613  1.00  0.00    -0.022 N 
ATOM      9  H7  UNL     1      -1.195  16.640  14.837  1.00  0.00     0.203 HD
ENDROOT
BRANCH   7  10
HETATM   10  N5  UNL     1      -1.414  14.859  16.680  1.00  0.00    -0.225 N 
ATOM     11  H5  UNL     1      -1.564  14.402  17.579  1.00  0.00     0.177 HD
BRANCH  10  12
HETATM   12  C8  UNL     1      -2.155  14.382  15.547  1.00  0.00     0.146 C 
BRANCH  12  13
HETATM   13  C9  UNL     1      -2.626  12.963  15.894  1.00  0.00     0.055 A 
HETATM   14  C10 UNL     1      -2.403  11.976  14.779  1.00  0.00     0.240 A 
HETATM   15  N6  UNL     1      -1.342  11.383  15.582  1.00  0.00    -0.074 N 
HETATM   16  C11 UNL     1      -1.586  12.248  16.701  1.00  0.00     0.240 A 
ATOM     17  H62 UNL     1      -1.352  10.374  15.734  1.00  0.00     0.277 HD
ATOM     18  H61 UNL     1      -0.400  11.345  15.192  1.00  0.00     0.277 HD
ENDBRANCH  12  13
ENDBRANCH  10  12
ENDBRANCH   7  10
BRANCH   4  19
HETATM   19  N3  UNL     1       2.079  17.096  18.613  1.00  0.00    -0.225 N 
ATOM     20  H3  UNL     1       2.678  16.305  18.846  1.00  0.00     0.177 HD
BRANCH  19  21
HETATM   21  C3  UNL     1       2.258  18.308  19.360  1.00  0.00     0.142 C 
BRANCH  21  22
HETATM   22  C4  UNL     1       3.764  18.596  19.374  1.00  0.00     0.004 A 
HETATM   23  C5  UNL     1       4.122  19.695  20.370  1.00  0.00     0.007 A 
HETATM   24  C6  UNL     1       4.251  19.891  18.862  1.00  0.00     0.007 A 
ENDBRANCH  21  22
ENDBRANCH  19  21
ENDBRANCH   4  19
BRANCH   1  25
HETATM   25  N1  UNL     1       0.386  18.538  14.650  1.00  0.00    -0.234 N 
ATOM     26  H12 UNL     1       0.511  18.151  13.714  1.00  0.00     0.174 HD
ATOM     27  H11 UNL     1       0.270  19.540  14.801  1.00  0.00     0.174 HD
ENDBRANCH   1  25
TORSDOF 7
ENDMDL
MODEL 2
REMARK VINA RESULT: -5.916311256      1.801      3.412
REMARK  7 active torsions:
REMARK  status: ('A' for Active; 'I' for Inactive)
REMARK    1  A    between atoms: N1_1  and  C1_4 
REMARK    2  A    between atoms: C2_7  and  N3_8 
REMARK    3  A    between atoms: N3_8  and  C3_10 
REMARK    4  A    between atoms: C3_10  and  C4_11 
REMARK    5  A    between atoms: C7_16  and  N5_17 
REMARK    6  A    between atoms: N5_17  and  C8_19 
REMARK    7  A    between atoms: C8_19  and  C9_20 
ROOT
HETATM    1  C1  UNL     1       1.356  16.928  17.689  1.00  0.00     0.705 A 
HETATM    2  N2  UNL     1       1.424  17.795  16.654  1.00  0.00    -0.022 N 
ATOM      3  H2  UNL     1       2.153  18.508  16.623  1.00  0.00     0.203 HD
HETATM    4  C2  UNL     1       0.511  17.703  15.661  1.00  0.00     0.707 A 
HETATM    5  N4  UNL     1      -0.428  16.764  15.727  1.00  0.00    -0.022 N 
ATOM      6  H4  UNL     1      -1.114  16.698  14.976  1.00  0.00     0.203 HD
HETATM    7  C7  UNL     1      -0.502  15.897  16.756  1.00  0.00     0.707 A 
HETATM    8  N7  UNL     1       0.399  15.976  17.751  1.00  0.00    -0.022 N 
ATOM      9  H7  UNL     1       0.361  15.329  18.538  1.00  0.00     0.203 HD
ENDROOT
BRANCH   7  10
HETATM   10  N5  UNL     1      -1.448  15.018  16.737  1.00  0.00    -0.225 N 
ATOM     11  H5  UNL     1      -1.788  14.656  17.628  1.00  0.00     0.177 HD
BRANCH  10  12
HETATM   12  C8  UNL     1      -2.049  14.520  15.532  1.00  0.00     0.146 C 
BRANCH  12  13
HETATM   13  C9  UNL     1      -2.622  13.135  15.865  1.00  0.00     0.055 A 
HETATM   14  C10 UNL     1      -2.513  12.160  14.723  1.00  0.00     0.240 A 
HETATM   15  N6  UNL     1      -1.479  11.466  15.480  1.00  0.00    -0.074 N 
HETATM   16  C11 UNL     1      -1.620  12.321  16.625  1.00  0.00     0.240 A 
ATOM     17  H62 UNL     1      -1.565  10.458  15.612  1.00  0.00     0.277 HD
ATOM     18  H61 UNL     1      -0.555  11.362  15.061  1.00  0.00     0.277 HD
ENDBRANCH  12  13
ENDBRANCH  10  12
ENDBRANCH   7  10
BRANCH   4  19
HETATM   19  N3  UNL     1       0.625  18.554  14.702  1.00  0.00    -0.225 N 
ATOM     20  H3  UNL     1      -0.169  18.661  14.070  1.00  0.00     0.177 HD
BRANCH  19  21
HETATM   21  C3  UNL     1       1.784  19.363  14.457  1.00  0.00     0.142 C 
BRANCH  21  22
HETATM   22  C4  UNL     1       2.684  18.563  13.507  1.00  0.00     0.004 A 
HETATM   23  C5  UNL     1       4.163  18.797  13.796  1.00  0.00     0.007 A 
HETATM   24  C6  UNL     1       3.498  19.286  12.512  1.00  0.00     0.007 A 
ENDBRANCH  21  22
ENDBRANCH  19  21
ENDBRANCH   4  19
BRANCH   1  25
HETATM   25  N1  UNL     1       2.206  16.978  18.660  1.00  0.00    -0.234 N 
ATOM     26  H12 UNL     1       2.460  17.900  19.013  1.00  0.00     0.174 HD
ATOM     27  H11 UNL     1       2.605  16.127  19.057  1.00  0.00     0.174 HD
ENDBRANCH   1  25
TORSDOF 7
ENDMDL
MODEL 3
REMARK VINA RESULT: -5.587345041      1.686      2.487
REMARK  7 active torsions:
REMARK  status: ('A' for Active; 'I' for Inactive)
REMARK    1  A    between atoms: N1_1  and  C1_4 
REMARK    2  A    between atoms: C2_7  and  N3_8 
REMARK    3  A    between atoms: N3_8  and  C3_10 
REMARK    4  A    between atoms: C3_10  and  C4_11 
REMARK    5  A    between atoms: C7_16  and  N5_17 
REMARK    6  A    between atoms: N5_17  and  C8_19 
REMARK    7  A    between atoms: C8_19  and  C9_20 
ROOT
HETATM    1  C1  UNL     1      -2.063  16.496  18.463  1.00  0.00     0.705 A 
HETATM    2  N2  UNL     1      -0.904  17.132  18.179  1.00  0.00    -0.022 N 
ATOM      3  H2  UNL     1      -0.862  18.151  18.173  1.00  0.00     0.203 HD
HETATM    4  C2  UNL     1       0.196  16.397  17.905  1.00  0.00     0.707 A 
HETATM    5  N4  UNL     1       0.112  15.070  17.921  1.00  0.00    -0.022 N 
ATOM      6  H4  UNL     1       0.945  14.520  17.714  1.00  0.00     0.203 HD
HETATM    7  C7  UNL     1      -1.040  14.430  18.202  1.00  0.00     0.707 A 
HETATM    8  N7  UNL     1      -2.143  15.147  18.477  1.00  0.00    -0.022 N 
ATOM      9  H7  UNL     1      -3.024  14.682  18.693  1.00  0.00     0.203 HD
ENDROOT
BRANCH   7  10
HETATM   10  N5  UNL     1      -1.028  13.138  18.195  1.00  0.00    -0.225 N 
ATOM     11  H5  UNL     1      -0.308  12.660  18.737  1.00  0.00     0.177 HD
BRANCH  10  12
HETATM   12  C8  UNL     1      -1.971  12.336  17.469  1.00  0.00     0.146 C 
BRANCH  12  13
HETATM   13  C9  UNL     1      -1.846  12.737  15.992  1.00  0.00     0.055 A 
HETATM   14  C10 UNL     1      -2.020  11.578  15.047  1.00  0.00     0.240 A 
HETATM   15  N6  UNL     1      -3.310  12.142  14.671  1.00  0.00    -0.074 N 
HETATM   16  C11 UNL     1      -3.138  13.307  15.492  1.00  0.00     0.240 A 
ATOM     17  H62 UNL     1      -3.514  12.271  13.679  1.00  0.00     0.277 HD
ATOM     18  H61 UNL     1      -4.147  11.573  14.801  1.00  0.00     0.277 HD
ENDBRANCH  12  13
ENDBRANCH  10  12
ENDBRANCH   7  10
BRANCH   4  19
HETATM   19  N3  UNL     1       1.271  17.056  17.643  1.00  0.00    -0.225 N 
ATOM     20  H3  UNL     1       1.283  17.617  16.791  1.00  0.00     0.177 HD
BRANCH  19  21
HETATM   21  C3  UNL     1       2.451  17.059  18.458  1.00  0.00     0.142 C 
BRANCH  21  22
HETATM   22  C4  UNL     1       2.485  18.413  19.177  1.00  0.00     0.004 A 
HETATM   23  C5  UNL     1       3.135  19.495  18.322  1.00  0.00     0.007 A 
HETATM   24  C6  UNL     1       3.784  18.969  19.599  1.00  0.00     0.007 A 
ENDBRANCH  21  22
ENDBRANCH  19  21
ENDBRANCH   4  19
BRANCH   1  25
HETATM   25  N1  UNL     1      -3.140  17.156  18.730  1.00  0.00    -0.234 N 
ATOM     26  H12 UNL     1      -3.850  17.210  18.000  1.00  0.00     0.174 HD
ATOM     27  H11 UNL     1      -3.274  17.604  19.637  1.00  0.00     0.174 HD
ENDBRANCH   1  25
TORSDOF 7
ENDMDL
MODEL 4
REMARK VINA RESULT: -5.574508283      0.933      1.193
REMARK  7 active torsions:
REMARK  status: ('A' for Active; 'I' for Inactive)
REMARK    1  A    between atoms: N1_1  and  C1_4 
REMARK    2  A    between atoms: C2_7  and  N3_8 
REMARK    3  A    between atoms: N3_8  and  C3_10 
REMARK    4  A    between atoms: C3_10  and  C4_11 
REMARK    5  A    between atoms: C7_16  and  N5_17 
REMARK    6  A    between atoms: N5_17  and  C8_19 
REMARK    7  A    between atoms: C8_19  and  C9_20 
ROOT
HETATM    1  C1  UNL     1      -0.338  17.132  15.945  1.00  0.00     0.705 A 
HETATM    2  N2  UNL     1       0.726  17.470  16.708  1.00  0.00    -0.022 N 
ATOM      3  H2  UNL     1       1.278  18.299  16.489  1.00  0.00     0.203 HD
HETATM    4  C2  UNL     1       1.047  16.690  17.765  1.00  0.00     0.707 A 
HETATM    5  N4  UNL     1       0.310  15.615  18.028  1.00  0.00    -0.022 N 
ATOM      6  H4  UNL     1       0.556  15.031  18.827  1.00  0.00     0.203 HD
HETATM    7  C7  UNL     1      -0.751  15.273  17.271  1.00  0.00     0.707 A 
HETATM    8  N7  UNL     1      -1.083  16.038  16.217  1.00  0.00    -0.022 N 
ATOM      9  H7  UNL     1      -1.882  15.797  15.632  1.00  0.00     0.203 HD
ENDROOT
BRANCH   7  10
HETATM   10  N5  UNL     1      -1.409  14.212  17.601  1.00  0.00    -0.225 N 
ATOM     11  H5  UNL     1      -2.242  14.323  18.180  1.00  0.00     0.177 HD
BRANCH  10  12
HETATM   12  C8  UNL     1      -1.036  12.885  17.201  1.00  0.00     0.146 C 
BRANCH  12  13
HETATM   13  C9  UNL     1      -2.272  12.262  16.536  1.00  0.00     0.055 A 
HETATM   14  C10 UNL     1      -3.212  13.285  15.958  1.00  0.00     0.240 A 
HETATM   15  N6  UNL     1      -2.784  12.857  14.632  1.00  0.00    -0.074 N 
HETATM   16  C11 UNL     1      -1.946  11.810  15.145  1.00  0.00     0.240 A 
ATOM     17  H62 UNL     1      -3.498  12.617  13.944  1.00  0.00     0.277 HD
ATOM     18  H61 UNL     1      -2.371  13.549  14.006  1.00  0.00     0.277 HD
ENDBRANCH  12  13
ENDBRANCH  10  12
ENDBRANCH   7  10
BRANCH   4  19
HETATM   19  N3  UNL     1       2.069  17.060  18.456  1.00  0.00    -0.225 N 
ATOM     20  H3  UNL     1       2.854  16.412  18.519  1.00  0.00     0.177 HD
BRANCH  19  21
HETATM   21  C3  UNL     1       2.185  18.315  19.142  1.00  0.00     0.142 C 
BRANCH  21  22
HETATM   22  C4  UNL     1       3.682  18.549  19.378  1.00  0.00     0.004 A 
HETATM   23  C5  UNL     1       3.930  19.638  20.416  1.00  0.00     0.007 A 
HETATM   24  C6  UNL     1       4.285  19.823  18.944  1.00  0.00     0.007 A 
ENDBRANCH  21  22
ENDBRANCH  19  21
ENDBRANCH   4  19
BRANCH   1  25
HETATM   25  N1  UNL     1      -0.682  17.845  14.925  1.00  0.00    -0.234 N 
ATOM     26  H12 UNL     1       0.066  18.278  14.382  1.00  0.00     0.174 HD
ATOM     27  H11 UNL     1      -1.663  17.969  14.674  1.00  0.00     0.174 HD
ENDBRANCH   1  25
TORSDOF 7
ENDMDL
MODEL 5
REMARK VINA RESULT: -5.557422722      2.360      3.359
REMARK  7 active torsions:
REMARK  status: ('A' for Active; 'I' for Inactive)
REMARK    1  A    between atoms: N1_1  and  C1_4 
REMARK    2  A    between atoms: C2_7  and  N3_8 
REMARK    3  A    between atoms: N3_8  and  C3_10 
REMARK    4  A    between atoms: C3_10  and  C4_11 
REMARK    5  A    between atoms: C7_16  and  N5_17 
REMARK    6  A    between atoms: N5_17  and  C8_19 
REMARK    7  A    between atoms: C8_19  and  C9_20 
ROOT
HETATM    1  C1  UNL     1      -0.470  17.885  17.999  1.00  0.00     0.705 A 
HETATM    2  N2  UNL     1       0.051  18.499  16.913  1.00  0.00    -0.022 N 
ATOM      3  H2  UNL     1       0.409  19.452  16.979  1.00  0.00     0.203 HD
HETATM    4  C2  UNL     1       0.089  17.831  15.738  1.00  0.00     0.707 A 
HETATM    5  N4  UNL     1      -0.385  16.589  15.681  1.00  0.00    -0.022 N 
ATOM      6  H4  UNL     1      -0.354  16.090  14.793  1.00  0.00     0.203 HD
HETATM    7  C7  UNL     1      -0.906  15.972  16.760  1.00  0.00     0.707 A 
HETATM    8  N7  UNL     1      -0.950  16.624  17.935  1.00  0.00    -0.022 N 
ATOM      9  H7  UNL     1      -1.340  16.174  18.763  1.00  0.00     0.203 HD
ENDROOT
BRANCH   7  10
HETATM   10  N5  UNL     1      -1.342  14.766  16.611  1.00  0.00    -0.225 N 
ATOM     11  H5  UNL     1      -1.121  14.081  17.335  1.00  0.00     0.177 HD
BRANCH  10  12
HETATM   12  C8  UNL     1      -2.121  14.332  15.486  1.00  0.00     0.146 C 
BRANCH  12  13
HETATM   13  C9  UNL     1      -2.623  12.919  15.816  1.00  0.00     0.055 A 
HETATM   14  C10 UNL     1      -2.350  11.924  14.720  1.00  0.00     0.240 A 
HETATM   15  N6  UNL     1      -1.338  11.326  15.582  1.00  0.00    -0.074 N 
HETATM   16  C11 UNL     1      -1.634  12.200  16.682  1.00  0.00     0.240 A 
ATOM     17  H62 UNL     1      -1.366  10.318  15.739  1.00  0.00     0.277 HD
ATOM     18  H61 UNL     1      -0.377  11.277  15.243  1.00  0.00     0.277 HD
ENDBRANCH  12  13
ENDBRANCH  10  12
ENDBRANCH   7  10
BRANCH   4  19
HETATM   19  N3  UNL     1       0.595  18.464  14.738  1.00  0.00    -0.225 N 
ATOM     20  H3  UNL     1       0.058  18.483  13.872  1.00  0.00     0.177 HD
BRANCH  19  21
HETATM   21  C3  UNL     1       1.857  19.145  14.753  1.00  0.00     0.142 C 
BRANCH  21  22
HETATM   22  C4  UNL     1       2.753  18.431  13.734  1.00  0.00     0.004 A 
HETATM   23  C5  UNL     1       4.206  18.881  13.840  1.00  0.00     0.007 A 
HETATM   24  C6  UNL     1       3.341  19.209  12.627  1.00  0.00     0.007 A 
ENDBRANCH  21  22
ENDBRANCH  19  21
ENDBRANCH   4  19
BRANCH   1  25
HETATM   25  N1  UNL     1      -0.528  18.484  19.142  1.00  0.00    -0.234 N 
ATOM     26  H12 UNL     1      -1.446  18.791  19.464  1.00  0.00     0.174 HD
ATOM     27  H11 UNL     1       0.312  18.642  19.699  1.00  0.00     0.174 HD
ENDBRANCH   1  25
TORSDOF 7
ENDMDL
