MODEL 1
REMARK VINA RESULT: -8.983494759      0.000      0.000
REMARK  4 active torsions:
REMARK  status: ('A' for Active; 'I' for Inactive)
REMARK    1  A    between atoms: C2_2  and  C3_3 
REMARK    2  A    between atoms: C3_3  and  C4_4 
REMARK    3  A    between atoms: C15_18  and  N3_19 
REMARK    4  A    between atoms: N3_19  and  C16_21 
ROOT
HETATM    1  C4  UNL     1      56.767  18.791  52.717  1.00  0.00     0.078 A 
HETATM    2  C5  UNL     1      56.223  17.966  51.759  1.00  0.00     0.068 A 
HETATM    3  C6  UNL     1      56.005  16.641  51.945  1.00  0.00     0.048 A 
HETATM    4  N1  UNL     1      55.603  15.640  51.238  1.00  0.00    -0.355 N 
ATOM      5  H1  UNL     1      55.289  15.743  50.273  1.00  0.00     0.166 HD
HETATM    6  C7  UNL     1      55.630  14.446  51.869  1.00  0.00     0.046 A 
HETATM    7  C8  UNL     1      56.111  14.725  53.143  1.00  0.00     0.005 A 
HETATM    8  C9  UNL     1      56.338  16.081  53.205  1.00  0.00     0.025 A 
HETATM    9  C10 UNL     1      56.852  16.898  54.156  1.00  0.00     0.021 A 
HETATM   10  C11 UNL     1      57.117  16.314  55.494  1.00  0.00     0.069 C 
HETATM   11  N2  UNL     1      57.079  18.240  53.930  1.00  0.00    -0.348 N 
HETATM   12  C12 UNL     1      57.620  18.990  55.023  1.00  0.00     0.157 C 
HETATM   13  C13 UNL     1      56.571  13.597  53.993  1.00  0.00     0.017 C 
HETATM   14  C14 UNL     1      56.509  12.377  53.358  1.00  0.00     0.030 C 
HETATM   15  C15 UNL     1      56.034  12.282  51.981  1.00  0.00     0.030 C 
HETATM   16  C18 UNL     1      55.258  13.250  51.564  1.00  0.00     0.059 C 
ENDROOT
BRANCH  15  17
HETATM   17  N3  UNL     1      56.347  11.283  51.033  1.00  0.00    -0.390 N 
ATOM     18  H3  UNL     1      55.578  10.670  50.761  1.00  0.00     0.159 HD
BRANCH  17  19
HETATM   19  C16 UNL     1      57.621  11.021  50.401  1.00  0.00     0.115 C 
HETATM   20  C17 UNL     1      58.780  11.320  51.342  1.00  0.00     0.026 C 
ENDBRANCH  17  19
ENDBRANCH  15  17
BRANCH   1  21
HETATM   21  C3  UNL     1      57.256  19.891  52.252  1.00  0.00    -0.127 C 
BRANCH  21  22
HETATM   22  C2  UNL     1      57.772  21.094  51.769  1.00  0.00     0.083 C 
HETATM   23  C1  UNL     1      57.944  22.129  52.952  1.00  0.00     0.017 C 
ENDBRANCH  21  22
ENDBRANCH   1  21
TORSDOF 4
ENDMDL
MODEL 2
REMARK VINA RESULT: -8.656092028      1.320      1.559
REMARK  4 active torsions:
REMARK  status: ('A' for Active; 'I' for Inactive)
REMARK    1  A    between atoms: C2_2  and  C3_3 
REMARK    2  A    between atoms: C3_3  and  C4_4 
REMARK    3  A    between atoms: C15_18  and  N3_19 
REMARK    4  A    between atoms: N3_19  and  C16_21 
ROOT
HETATM    1  C4  UNL     1      56.616  18.060  52.546  1.00  0.00     0.078 A 
HETATM    2  C5  UNL     1      55.971  17.231  51.657  1.00  0.00     0.068 A 
HETATM    3  C6  UNL     1      55.722  15.921  51.899  1.00  0.00     0.048 A 
HETATM    4  N1  UNL     1      55.233  14.917  51.254  1.00  0.00    -0.355 N 
ATOM      5  H1  UNL     1      54.848  15.005  50.313  1.00  0.00     0.166 HD
HETATM    6  C7  UNL     1      55.268  13.739  51.915  1.00  0.00     0.046 A 
HETATM    7  C8  UNL     1      55.855  14.034  53.140  1.00  0.00     0.005 A 
HETATM    8  C9  UNL     1      56.132  15.382  53.144  1.00  0.00     0.025 A 
HETATM    9  C10 UNL     1      56.747  16.204  54.029  1.00  0.00     0.021 A 
HETATM   10  C11 UNL     1      57.094  15.646  55.359  1.00  0.00     0.069 C 
HETATM   11  N2  UNL     1      57.002  17.530  53.748  1.00  0.00    -0.348 N 
HETATM   12  C12 UNL     1      57.652  18.289  54.773  1.00  0.00     0.157 C 
HETATM   13  C13 UNL     1      56.340  12.913  53.985  1.00  0.00     0.017 C 
HETATM   14  C14 UNL     1      56.187  11.679  53.392  1.00  0.00     0.030 C 
HETATM   15  C15 UNL     1      55.603  11.566  52.059  1.00  0.00     0.030 C 
HETATM   16  C18 UNL     1      54.831  12.550  51.675  1.00  0.00     0.059 C 
ENDROOT
BRANCH  15  17
HETATM   17  N3  UNL     1      55.807  10.531  51.120  1.00  0.00    -0.390 N 
ATOM     18  H3  UNL     1      56.395  10.764  50.320  1.00  0.00     0.159 HD
BRANCH  17  19
HETATM   19  C16 UNL     1      55.285   9.182  51.151  1.00  0.00     0.115 C 
HETATM   20  C17 UNL     1      53.785   9.160  50.888  1.00  0.00     0.026 C 
ENDBRANCH  17  19
ENDBRANCH  15  17
BRANCH   1  21
HETATM   21  C3  UNL     1      57.106  19.129  52.014  1.00  0.00    -0.127 C 
BRANCH  21  22
HETATM   22  C2  UNL     1      57.620  20.300  51.454  1.00  0.00     0.083 C 
HETATM   23  C1  UNL     1      57.489  21.497  52.477  1.00  0.00     0.017 C 
ENDBRANCH  21  22
ENDBRANCH   1  21
TORSDOF 4
ENDMDL
MODEL 3
REMARK VINA RESULT: -8.017683681      1.830      6.859
REMARK  4 active torsions:
REMARK  status: ('A' for Active; 'I' for Inactive)
REMARK    1  A    between atoms: C2_2  and  C3_3 
REMARK    2  A    between atoms: C3_3  and  C4_4 
REMARK    3  A    between atoms: C15_18  and  N3_19 
REMARK    4  A    between atoms: N3_19  and  C16_21 
ROOT
HETATM    1  C4  UNL     1      55.535  13.730  51.998  1.00  0.00     0.078 A 
HETATM    2  C5  UNL     1      55.599  14.857  51.212  1.00  0.00     0.068 A 
HETATM    3  C6  UNL     1      56.142  16.029  51.624  1.00  0.00     0.048 A 
HETATM    4  N1  UNL     1      56.266  17.227  51.162  1.00  0.00    -0.355 N 
ATOM      5  H1  UNL     1      55.959  17.488  50.225  1.00  0.00     0.166 HD
HETATM    6  C7  UNL     1      56.835  18.111  52.011  1.00  0.00     0.046 A 
HETATM    7  C8  UNL     1      57.106  17.379  53.161  1.00  0.00     0.005 A 
HETATM    8  C9  UNL     1      56.690  16.089  52.930  1.00  0.00     0.025 A 
HETATM    9  C10 UNL     1      56.647  14.972  53.696  1.00  0.00     0.021 A 
HETATM   10  C11 UNL     1      57.299  15.026  55.028  1.00  0.00     0.069 C 
HETATM   11  N2  UNL     1      56.072  13.797  53.255  1.00  0.00    -0.348 N 
HETATM   12  C12 UNL     1      56.100  12.690  54.163  1.00  0.00     0.157 C 
HETATM   13  C13 UNL     1      57.435  18.113  54.410  1.00  0.00     0.017 C 
HETATM   14  C14 UNL     1      57.371  19.481  54.271  1.00  0.00     0.030 C 
HETATM   15  C15 UNL     1      57.001  20.078  52.991  1.00  0.00     0.030 C 
HETATM   16  C18 UNL     1      57.200  19.345  51.926  1.00  0.00     0.059 C 
ENDROOT
BRANCH  15  17
HETATM   17  N3  UNL     1      56.417  21.346  52.774  1.00  0.00    -0.390 N 
ATOM     18  H3  UNL     1      55.479  21.342  52.372  1.00  0.00     0.159 HD
BRANCH  17  19
HETATM   19  C16 UNL     1      56.981  22.648  53.051  1.00  0.00     0.115 C 
HETATM   20  C17 UNL     1      58.501  22.590  53.126  1.00  0.00     0.026 C 
ENDBRANCH  17  19
ENDBRANCH  15  17
BRANCH   1  21
HETATM   21  C3  UNL     1      54.663  12.861  51.608  1.00  0.00    -0.127 C 
BRANCH  21  22
HETATM   22  C2  UNL     1      53.728  11.907  51.208  1.00  0.00     0.083 C 
HETATM   23  C1  UNL     1      52.957  11.336  52.464  1.00  0.00     0.017 C 
ENDBRANCH  21  22
ENDBRANCH   1  21
TORSDOF 4
ENDMDL
MODEL 4
REMARK VINA RESULT: -7.741046195      2.000      3.371
REMARK  4 active torsions:
REMARK  status: ('A' for Active; 'I' for Inactive)
REMARK    1  A    between atoms: C2_2  and  C3_3 
REMARK    2  A    between atoms: C3_3  and  C4_4 
REMARK    3  A    between atoms: C15_18  and  N3_19 
REMARK    4  A    between atoms: N3_19  and  C16_21 
ROOT
HETATM    1  C4  UNL     1      57.747  18.226  53.653  1.00  0.00     0.078 A 
HETATM    2  C5  UNL     1      57.831  17.099  54.438  1.00  0.00     0.068 A 
HETATM    3  C6  UNL     1      57.319  15.896  54.080  1.00  0.00     0.048 A 
HETATM    4  N1  UNL     1      57.176  14.732  54.616  1.00  0.00    -0.355 N 
ATOM      5  H1  UNL     1      57.546  14.505  55.539  1.00  0.00     0.166 HD
HETATM    6  C7  UNL     1      56.500  13.835  53.865  1.00  0.00     0.046 A 
HETATM    7  C8  UNL     1      56.172  14.518  52.700  1.00  0.00     0.005 A 
HETATM    8  C9  UNL     1      56.680  15.791  52.818  1.00  0.00     0.025 A 
HETATM    9  C10 UNL     1      56.618  16.895  52.035  1.00  0.00     0.021 A 
HETATM   10  C11 UNL     1      56.023  16.749  50.685  1.00  0.00     0.069 C 
HETATM   11  N2  UNL     1      57.134  18.111  52.434  1.00  0.00    -0.348 N 
HETATM   12  C12 UNL     1      57.008  19.196  51.509  1.00  0.00     0.157 C 
HETATM   13  C13 UNL     1      55.151  13.931  51.795  1.00  0.00     0.017 C 
HETATM   14  C14 UNL     1      54.601  12.765  52.278  1.00  0.00     0.030 C 
HETATM   15  C15 UNL     1      55.026  12.224  53.566  1.00  0.00     0.030 C 
HETATM   16  C18 UNL     1      56.212  12.584  53.987  1.00  0.00     0.059 C 
ENDROOT
BRANCH  15  17
HETATM   17  N3  UNL     1      54.287  11.385  54.429  1.00  0.00    -0.390 N 
ATOM     18  H3  UNL     1      54.821  10.667  54.919  1.00  0.00     0.159 HD
BRANCH  17  19
HETATM   19  C16 UNL     1      52.867  11.417  54.705  1.00  0.00     0.115 C 
HETATM   20  C17 UNL     1      52.445  12.760  55.285  1.00  0.00     0.026 C 
ENDBRANCH  17  19
ENDBRANCH  15  17
BRANCH   1  21
HETATM   21  C3  UNL     1      57.926  19.333  54.294  1.00  0.00    -0.127 C 
BRANCH  21  22
HETATM   22  C2  UNL     1      58.109  20.542  54.965  1.00  0.00     0.083 C 
HETATM   23  C1  UNL     1      58.580  21.662  53.954  1.00  0.00     0.017 C 
ENDBRANCH  21  22
ENDBRANCH   1  21
TORSDOF 4
ENDMDL
MODEL 5
REMARK VINA RESULT: -7.553750237      2.592      7.339
REMARK  4 active torsions:
REMARK  status: ('A' for Active; 'I' for Inactive)
REMARK    1  A    between atoms: C2_2  and  C3_3 
REMARK    2  A    between atoms: C3_3  and  C4_4 
REMARK    3  A    between atoms: C15_18  and  N3_19 
REMARK    4  A    between atoms: N3_19  and  C16_21 
ROOT
HETATM    1  C4  UNL     1      54.114  10.709  51.942  1.00  0.00     0.078 A 
HETATM    2  C5  UNL     1      55.345  11.288  51.733  1.00  0.00     0.068 A 
HETATM    3  C6  UNL     1      55.801  12.354  52.435  1.00  0.00     0.048 A 
HETATM    4  N1  UNL     1      56.830  13.131  52.412  1.00  0.00    -0.355 N 
ATOM      5  H1  UNL     1      57.610  12.987  51.770  1.00  0.00     0.166 HD
HETATM    6  C7  UNL     1      56.799  14.149  53.299  1.00  0.00     0.046 A 
HETATM    7  C8  UNL     1      55.593  13.999  53.974  1.00  0.00     0.005 A 
HETATM    8  C9  UNL     1      54.972  12.887  53.455  1.00  0.00     0.025 A 
HETATM    9  C10 UNL     1      53.770  12.302  53.676  1.00  0.00     0.021 A 
HETATM   10  C11 UNL     1      52.951  12.818  54.800  1.00  0.00     0.069 C 
HETATM   11  N2  UNL     1      53.325  11.229  52.933  1.00  0.00    -0.348 N 
HETATM   12  C12 UNL     1      52.038  10.702  53.275  1.00  0.00     0.157 C 
HETATM   13  C13 UNL     1      55.091  15.131  54.794  1.00  0.00     0.017 C 
HETATM   14  C14 UNL     1      55.894  16.248  54.729  1.00  0.00     0.030 C 
HETATM   15  C15 UNL     1      57.100  16.246  53.908  1.00  0.00     0.030 C 
HETATM   16  C18 UNL     1      57.626  15.076  53.646  1.00  0.00     0.059 C 
ENDROOT
BRANCH  15  17
HETATM   17  N3  UNL     1      57.746  17.362  53.331  1.00  0.00    -0.390 N 
ATOM     18  H3  UNL     1      58.678  17.191  52.951  1.00  0.00     0.159 HD
BRANCH  17  19
HETATM   19  C16 UNL     1      57.252  18.716  53.210  1.00  0.00     0.115 C 
HETATM   20  C17 UNL     1      57.275  19.188  51.763  1.00  0.00     0.026 C 
ENDBRANCH  17  19
ENDBRANCH  15  17
BRANCH   1  21
HETATM   21  C3  UNL     1      53.693   9.989  50.957  1.00  0.00    -0.127 C 
BRANCH  21  22
HETATM   22  C2  UNL     1      53.262   9.206  49.886  1.00  0.00     0.083 C 
HETATM   23  C1  UNL     1      54.004   7.810  49.897  1.00  0.00     0.017 C 
ENDBRANCH  21  22
ENDBRANCH   1  21
TORSDOF 4
ENDMDL
