MODEL 1
REMARK VINA RESULT: -8.757709358      0.000      0.000
REMARK  9 active torsions:
REMARK  status: ('A' for Active; 'I' for Inactive)
REMARK    1  A    between atoms: C4_4  and  C5_5 
REMARK    2  A    between atoms: C5_5  and  C6_6 
REMARK    3  A    between atoms: C6_6  and  C7_7 
REMARK    4  A    between atoms: C7_7  and  C8_8 
REMARK    5  A    between atoms: C8_8  and  C9_9 
REMARK    6  A    between atoms: C9_9  and  C10_10 
REMARK    7  A    between atoms: C11_11  and  N1_12 
REMARK    8  A    between atoms: C11_11  and  C12_17 
REMARK    9  A    between atoms: C17_22  and  C18_23 
ROOT
HETATM    1  C10 UNL     1      56.301  14.298  54.600  1.00  0.00     0.000 C 
HETATM    2  C11 UNL     1      55.880  14.195  53.220  1.00  0.00     0.026 C 
ENDROOT
BRANCH   2   3
HETATM    3  N1  UNL     1      55.550  15.118  52.437  1.00  0.00    -0.311 N 
HETATM    4  N2  UNL     1      55.526  15.738  51.338  1.00  0.00    -0.345 N 
ATOM      5  H22 UNL     1      56.119  15.123  50.781  1.00  0.00     0.176 HD
ATOM      6  H21 UNL     1      55.258  16.490  50.701  1.00  0.00     0.176 HD
ATOM      7  H1  UNL     1      54.962  15.706  53.029  1.00  0.00     0.186 HD
ENDBRANCH   2   3
BRANCH   2   8
HETATM    8  C12 UNL     1      55.928  12.815  52.582  1.00  0.00     0.049 C 
HETATM    9  C13 UNL     1      57.293  12.585  51.992  1.00  0.00     0.011 C 
HETATM   10  C14 UNL     1      57.358  11.210  51.372  1.00  0.00     0.001 C 
HETATM   11  C15 UNL     1      56.995  10.116  52.339  1.00  0.00     0.001 C 
HETATM   12  C16 UNL     1      56.767  10.730  53.696  1.00  0.00     0.014 C 
HETATM   13  C17 UNL     1      55.713  11.808  53.676  1.00  0.00     0.085 C 
BRANCH  13  14
HETATM   14  C18 UNL     1      54.342  11.224  53.635  1.00  0.00     0.236 C 
HETATM   15  N3  UNL     1      53.875  10.334  54.617  1.00  0.00    -0.062 NA
HETATM   16  O1  UNL     1      53.561  11.528  52.697  1.00  0.00    -0.276 OA
ENDBRANCH  13  14
ENDBRANCH   2   8
BRANCH   1  17
HETATM   17  C9  UNL     1      55.945  15.386  55.511  1.00  0.00     0.029 C 
BRANCH  17  18
HETATM   18  C8  UNL     1      57.004  16.265  56.008  1.00  0.00     0.004 C 
BRANCH  18  19
HETATM   19  C7  UNL     1      58.005  16.825  55.119  1.00  0.00     0.000 C 
BRANCH  19  20
HETATM   20  C6  UNL     1      57.458  17.808  54.106  1.00  0.00     0.000 C 
BRANCH  20  21
HETATM   21  C5  UNL     1      58.428  18.965  53.998  1.00  0.00     0.005 C 
BRANCH  21  22
HETATM   22  C4  UNL     1      57.795  20.197  54.622  1.00  0.00    -0.010 A 
HETATM   23  C2  UNL     1      57.318  21.312  53.792  1.00  0.00    -0.014 A 
HETATM   24  C1  UNL     1      57.249  21.233  52.293  1.00  0.00     0.010 C 
HETATM   25  C3  UNL     1      58.642  21.460  54.483  1.00  0.00     0.009 A 
ENDBRANCH  21  22
ENDBRANCH  20  21
ENDBRANCH  19  20
ENDBRANCH  18  19
ENDBRANCH  17  18
ENDBRANCH   1  17
TORSDOF 9
ENDMDL
MODEL 2
REMARK VINA RESULT: -8.620069057      1.822      2.702
REMARK  9 active torsions:
REMARK  status: ('A' for Active; 'I' for Inactive)
REMARK    1  A    between atoms: C4_4  and  C5_5 
REMARK    2  A    between atoms: C5_5  and  C6_6 
REMARK    3  A    between atoms: C6_6  and  C7_7 
REMARK    4  A    between atoms: C7_7  and  C8_8 
REMARK    5  A    between atoms: C8_8  and  C9_9 
REMARK    6  A    between atoms: C9_9  and  C10_10 
REMARK    7  A    between atoms: C11_11  and  N1_12 
REMARK    8  A    between atoms: C11_11  and  C12_17 
REMARK    9  A    between atoms: C17_22  and  C18_23 
ROOT
HETATM    1  C10 UNL     1      57.145  15.333  54.578  1.00  0.00     0.000 C 
HETATM    2  C11 UNL     1      56.363  14.933  53.429  1.00  0.00     0.026 C 
ENDROOT
BRANCH   2   3
HETATM    3  N1  UNL     1      56.095  15.600  52.400  1.00  0.00    -0.311 N 
HETATM    4  N2  UNL     1      55.554  16.534  51.746  1.00  0.00    -0.345 N 
ATOM      5  H22 UNL     1      55.054  17.004  52.500  1.00  0.00     0.176 HD
ATOM      6  H21 UNL     1      55.337  17.076  50.909  1.00  0.00     0.176 HD
ATOM      7  H1  UNL     1      56.612  15.100  51.676  1.00  0.00     0.186 HD
ENDBRANCH   2   3
BRANCH   2   8
HETATM    8  C12 UNL     1      55.874  13.493  53.391  1.00  0.00     0.049 C 
HETATM    9  C13 UNL     1      54.550  13.396  54.097  1.00  0.00     0.011 C 
HETATM   10  C14 UNL     1      54.046  11.974  54.050  1.00  0.00     0.001 C 
HETATM   11  C15 UNL     1      53.953  11.434  52.648  1.00  0.00     0.001 C 
HETATM   12  C16 UNL     1      54.304  12.538  51.684  1.00  0.00     0.014 C 
HETATM   13  C17 UNL     1      55.667  13.129  51.948  1.00  0.00     0.085 C 
BRANCH  13  14
HETATM   14  C18 UNL     1      56.750  12.243  51.435  1.00  0.00     0.236 C 
HETATM   15  N3  UNL     1      57.298  11.203  52.206  1.00  0.00    -0.062 NA
HETATM   16  O1  UNL     1      57.201  12.415  50.274  1.00  0.00    -0.276 OA
ENDBRANCH  13  14
ENDBRANCH   2   8
BRANCH   1  17
HETATM   17  C9  UNL     1      57.344  16.712  55.024  1.00  0.00     0.029 C 
BRANCH  17  18
HETATM   18  C8  UNL     1      58.613  17.376  54.722  1.00  0.00     0.004 C 
BRANCH  18  19
HETATM   19  C7  UNL     1      58.661  18.760  54.289  1.00  0.00     0.000 C 
BRANCH  19  20
HETATM   20  C6  UNL     1      57.764  19.076  53.110  1.00  0.00     0.000 C 
BRANCH  20  21
HETATM   21  C5  UNL     1      56.730  20.086  53.561  1.00  0.00     0.005 C 
BRANCH  21  22
HETATM   22  C4  UNL     1      56.738  21.260  52.598  1.00  0.00    -0.010 A 
HETATM   23  C2  UNL     1      57.590  22.435  52.834  1.00  0.00    -0.014 A 
HETATM   24  C1  UNL     1      58.632  22.474  53.916  1.00  0.00     0.010 C 
HETATM   25  C3  UNL     1      56.133  22.537  53.180  1.00  0.00     0.009 A 
ENDBRANCH  21  22
ENDBRANCH  20  21
ENDBRANCH  19  20
ENDBRANCH  18  19
ENDBRANCH  17  18
ENDBRANCH   1  17
TORSDOF 9
ENDMDL
MODEL 3
REMARK VINA RESULT: -8.598626947      1.483      1.694
REMARK  9 active torsions:
REMARK  status: ('A' for Active; 'I' for Inactive)
REMARK    1  A    between atoms: C4_4  and  C5_5 
REMARK    2  A    between atoms: C5_5  and  C6_6 
REMARK    3  A    between atoms: C6_6  and  C7_7 
REMARK    4  A    between atoms: C7_7  and  C8_8 
REMARK    5  A    between atoms: C8_8  and  C9_9 
REMARK    6  A    between atoms: C9_9  and  C10_10 
REMARK    7  A    between atoms: C11_11  and  N1_12 
REMARK    8  A    between atoms: C11_11  and  C12_17 
REMARK    9  A    between atoms: C17_22  and  C18_23 
ROOT
HETATM    1  C10 UNL     1      56.272  14.458  54.203  1.00  0.00     0.000 C 
HETATM    2  C11 UNL     1      55.329  13.452  53.767  1.00  0.00     0.026 C 
ENDROOT
BRANCH   2   3
HETATM    3  N1  UNL     1      54.164  13.246  54.185  1.00  0.00    -0.311 N 
HETATM    4  N2  UNL     1      53.208  12.548  54.624  1.00  0.00    -0.345 N 
ATOM      5  H22 UNL     1      53.658  11.633  54.642  1.00  0.00     0.176 HD
ATOM      6  H21 UNL     1      52.260  12.380  54.963  1.00  0.00     0.176 HD
ATOM      7  H1  UNL     1      53.753  14.179  54.152  1.00  0.00     0.186 HD
ENDBRANCH   2   3
BRANCH   2   8
HETATM    8  C12 UNL     1      55.738  12.583  52.587  1.00  0.00     0.049 C 
HETATM    9  C13 UNL     1      56.847  13.261  51.829  1.00  0.00     0.011 C 
HETATM   10  C14 UNL     1      57.274  12.399  50.666  1.00  0.00     0.001 C 
HETATM   11  C15 UNL     1      57.674  11.010  51.085  1.00  0.00     0.001 C 
HETATM   12  C16 UNL     1      57.622  10.928  52.589  1.00  0.00     0.014 C 
HETATM   13  C17 UNL     1      56.268  11.293  53.144  1.00  0.00     0.085 C 
BRANCH  13  14
HETATM   14  C18 UNL     1      55.297  10.174  52.982  1.00  0.00     0.236 C 
HETATM   15  N3  UNL     1      53.979  10.383  52.539  1.00  0.00    -0.062 NA
HETATM   16  O1  UNL     1      55.650   8.997  53.243  1.00  0.00    -0.276 OA
ENDBRANCH  13  14
ENDBRANCH   2   8
BRANCH   1  17
HETATM   17  C9  UNL     1      56.284  15.088  55.524  1.00  0.00     0.029 C 
BRANCH  17  18
HETATM   18  C8  UNL     1      57.384  15.990  55.866  1.00  0.00     0.004 C 
BRANCH  18  19
HETATM   19  C7  UNL     1      58.127  16.702  54.843  1.00  0.00     0.000 C 
BRANCH  19  20
HETATM   20  C6  UNL     1      57.402  17.900  54.267  1.00  0.00     0.000 C 
BRANCH  20  21
HETATM   21  C5  UNL     1      58.386  19.045  54.166  1.00  0.00     0.005 C 
BRANCH  21  22
HETATM   22  C4  UNL     1      57.707  20.320  54.637  1.00  0.00    -0.010 A 
HETATM   23  C2  UNL     1      57.254  21.340  53.682  1.00  0.00    -0.014 A 
HETATM   24  C1  UNL     1      57.255  21.115  52.196  1.00  0.00     0.010 C 
HETATM   25  C3  UNL     1      58.542  21.580  54.413  1.00  0.00     0.009 A 
ENDBRANCH  21  22
ENDBRANCH  20  21
ENDBRANCH  19  20
ENDBRANCH  18  19
ENDBRANCH  17  18
ENDBRANCH   1  17
TORSDOF 9
ENDMDL
MODEL 4
REMARK VINA RESULT: -8.483715066      1.474      2.519
REMARK  9 active torsions:
REMARK  status: ('A' for Active; 'I' for Inactive)
REMARK    1  A    between atoms: C4_4  and  C5_5 
REMARK    2  A    between atoms: C5_5  and  C6_6 
REMARK    3  A    between atoms: C6_6  and  C7_7 
REMARK    4  A    between atoms: C7_7  and  C8_8 
REMARK    5  A    between atoms: C8_8  and  C9_9 
REMARK    6  A    between atoms: C9_9  and  C10_10 
REMARK    7  A    between atoms: C11_11  and  N1_12 
REMARK    8  A    between atoms: C11_11  and  C12_17 
REMARK    9  A    between atoms: C17_22  and  C18_23 
ROOT
HETATM    1  C10 UNL     1      56.123  14.577  54.804  1.00  0.00     0.000 C 
HETATM    2  C11 UNL     1      55.380  13.900  53.764  1.00  0.00     0.026 C 
ENDROOT
BRANCH   2   3
HETATM    3  N1  UNL     1      55.244  14.234  52.562  1.00  0.00    -0.311 N 
HETATM    4  N2  UNL     1      55.252  15.033  51.585  1.00  0.00    -0.345 N 
ATOM      5  H22 UNL     1      55.530  15.888  52.065  1.00  0.00     0.176 HD
ATOM      6  H21 UNL     1      55.141  15.304  50.607  1.00  0.00     0.176 HD
ATOM      7  H1  UNL     1      54.968  13.356  52.123  1.00  0.00     0.186 HD
ENDBRANCH   2   3
BRANCH   2   8
HETATM    8  C12 UNL     1      54.757  12.558  54.120  1.00  0.00     0.049 C 
HETATM    9  C13 UNL     1      53.316  12.762  54.501  1.00  0.00     0.011 C 
HETATM   10  C14 UNL     1      52.683  11.434  54.838  1.00  0.00     0.001 C 
HETATM   11  C15 UNL     1      52.812  10.427  53.727  1.00  0.00     0.001 C 
HETATM   12  C16 UNL     1      53.463  11.097  52.545  1.00  0.00     0.014 C 
HETATM   13  C17 UNL     1      54.802  11.704  52.885  1.00  0.00     0.085 C 
BRANCH  13  14
HETATM   14  C18 UNL     1      55.864  10.661  52.966  1.00  0.00     0.236 C 
HETATM   15  N3  UNL     1      56.473  10.303  54.181  1.00  0.00    -0.062 NA
HETATM   16  O1  UNL     1      56.240  10.070  51.923  1.00  0.00    -0.276 OA
ENDBRANCH  13  14
ENDBRANCH   2   8
BRANCH   1  17
HETATM   17  C9  UNL     1      56.426  16.009  54.828  1.00  0.00     0.029 C 
BRANCH  17  18
HETATM   18  C8  UNL     1      57.757  16.441  55.254  1.00  0.00     0.004 C 
BRANCH  18  19
HETATM   19  C7  UNL     1      58.416  17.581  54.643  1.00  0.00     0.000 C 
BRANCH  19  20
HETATM   20  C6  UNL     1      57.544  18.364  53.684  1.00  0.00     0.000 C 
BRANCH  20  21
HETATM   21  C5  UNL     1      57.567  19.818  54.105  1.00  0.00     0.005 C 
BRANCH  21  22
HETATM   22  C4  UNL     1      57.196  20.681  52.911  1.00  0.00    -0.010 A 
HETATM   23  C2  UNL     1      57.628  22.083  52.819  1.00  0.00    -0.014 A 
HETATM   24  C1  UNL     1      58.606  22.692  53.783  1.00  0.00     0.010 C 
HETATM   25  C3  UNL     1      56.216  21.804  53.245  1.00  0.00     0.009 A 
ENDBRANCH  21  22
ENDBRANCH  20  21
ENDBRANCH  19  20
ENDBRANCH  18  19
ENDBRANCH  17  18
ENDBRANCH   1  17
TORSDOF 9
ENDMDL
MODEL 5
REMARK VINA RESULT: -8.440775784      2.140      3.169
REMARK  9 active torsions:
REMARK  status: ('A' for Active; 'I' for Inactive)
REMARK    1  A    between atoms: C4_4  and  C5_5 
REMARK    2  A    between atoms: C5_5  and  C6_6 
REMARK    3  A    between atoms: C6_6  and  C7_7 
REMARK    4  A    between atoms: C7_7  and  C8_8 
REMARK    5  A    between atoms: C8_8  and  C9_9 
REMARK    6  A    between atoms: C9_9  and  C10_10 
REMARK    7  A    between atoms: C11_11  and  N1_12 
REMARK    8  A    between atoms: C11_11  and  C12_17 
REMARK    9  A    between atoms: C17_22  and  C18_23 
ROOT
HETATM    1  C10 UNL     1      55.223  14.273  52.398  1.00  0.00     0.000 C 
HETATM    2  C11 UNL     1      55.412  13.811  53.756  1.00  0.00     0.026 C 
ENDROOT
BRANCH   2   3
HETATM    3  N1  UNL     1      55.992  14.396  54.703  1.00  0.00    -0.311 N 
HETATM    4  N2  UNL     1      56.190  15.335  55.523  1.00  0.00    -0.345 N 
ATOM      5  H22 UNL     1      55.445  15.971  55.239  1.00  0.00     0.176 HD
ATOM      6  H21 UNL     1      56.662  15.811  56.293  1.00  0.00     0.176 HD
ATOM      7  H1  UNL     1      56.723  13.731  54.954  1.00  0.00     0.186 HD
ENDBRANCH   2   3
BRANCH   2   8
HETATM    8  C12 UNL     1      54.751  12.496  54.138  1.00  0.00     0.049 C 
HETATM    9  C13 UNL     1      53.332  12.756  54.566  1.00  0.00     0.011 C 
HETATM   10  C14 UNL     1      52.660  11.455  54.930  1.00  0.00     0.001 C 
HETATM   11  C15 UNL     1      52.713  10.439  53.821  1.00  0.00     0.001 C 
HETATM   12  C16 UNL     1      53.350  11.079  52.614  1.00  0.00     0.014 C 
HETATM   13  C17 UNL     1      54.721  11.635  52.907  1.00  0.00     0.085 C 
BRANCH  13  14
HETATM   14  C18 UNL     1      55.745  10.553  52.959  1.00  0.00     0.236 C 
HETATM   15  N3  UNL     1      56.367  10.164  54.158  1.00  0.00    -0.062 NA
HETATM   16  O1  UNL     1      56.076   9.955  51.904  1.00  0.00    -0.276 OA
ENDBRANCH  13  14
ENDBRANCH   2   8
BRANCH   1  17
HETATM   17  C9  UNL     1      56.079  15.239  51.709  1.00  0.00     0.029 C 
BRANCH  17  18
HETATM   18  C8  UNL     1      55.713  16.655  51.739  1.00  0.00     0.004 C 
BRANCH  18  19
HETATM   19  C7  UNL     1      56.352  17.585  52.653  1.00  0.00     0.000 C 
BRANCH  19  20
HETATM   20  C6  UNL     1      57.122  18.696  51.972  1.00  0.00     0.000 C 
BRANCH  20  21
HETATM   21  C5  UNL     1      57.345  19.803  52.980  1.00  0.00     0.005 C 
BRANCH  21  22
HETATM   22  C4  UNL     1      56.973  21.131  52.342  1.00  0.00    -0.010 A 
HETATM   23  C2  UNL     1      57.518  22.399  52.846  1.00  0.00    -0.014 A 
HETATM   24  C1  UNL     1      58.607  22.457  53.881  1.00  0.00     0.010 C 
HETATM   25  C3  UNL     1      56.119  22.026  53.238  1.00  0.00     0.009 A 
ENDBRANCH  21  22
ENDBRANCH  20  21
ENDBRANCH  19  20
ENDBRANCH  18  19
ENDBRANCH  17  18
ENDBRANCH   1  17
TORSDOF 9
ENDMDL
