MODEL 1
REMARK VINA RESULT: -4.325269318      0.000      0.000
REMARK  5 active torsions:
REMARK  status: ('A' for Active; 'I' for Inactive)
REMARK    1  A    between atoms: C4_7  and  C5_8 
REMARK    2  A    between atoms: C5_8  and  N2_9 
REMARK    3  A    between atoms: C5_8  and  N3_13 
REMARK    4  A    between atoms: N5_19  and  N6_20 
REMARK    5  A    between atoms: C6_23  and  C7_24 
ROOT
HETATM    1  C1  UNL     1      74.250  18.309  24.461  1.00  0.00     0.028 C 
HETATM    2  C2  UNL     1      74.812  17.175  24.753  1.00  0.00     0.016 A 
HETATM    3  C3  UNL     1      74.396  16.454  25.983  1.00  0.00     0.066 A 
HETATM    4  N1  UNL     1      73.512  16.931  26.733  1.00  0.00    -0.397 N 
ATOM      5  H11 UNL     1      73.226  16.435  27.578  1.00  0.00     0.156 HD
ATOM      6  H12 UNL     1      73.084  17.823  26.487  1.00  0.00     0.156 HD
HETATM    7  C4  UNL     1      75.017  15.163  26.338  1.00  0.00     0.112 A 
HETATM    8  N4  UNL     1      75.893  14.744  25.543  1.00  0.00    -0.278 N 
ATOM      9  H4  UNL     1      76.333  13.853  25.774  1.00  0.00     0.189 HD
HETATM   10  N5  UNL     1      76.332  15.384  24.356  1.00  0.00    -0.200 N 
HETATM   11  C6  UNL     1      75.851  16.532  23.944  1.00  0.00     0.121 A 
ENDROOT
BRANCH   7  12
HETATM   12  C5  UNL     1      74.576  14.469  27.576  1.00  0.00     0.431 C 
BRANCH  12  13
HETATM   13  N2  UNL     1      75.709  13.956  28.335  1.00  0.00    -0.045 N 
ATOM     14  H23 UNL     1      76.586  14.088  27.830  1.00  0.00     0.277 HD
ATOM     15  H22 UNL     1      75.906  14.537  29.149  1.00  0.00     0.277 HD
ATOM     16  H21 UNL     1      75.574  12.980  28.597  1.00  0.00     0.277 HD
ENDBRANCH  12  13
BRANCH  12  17
HETATM   17  N3  UNL     1      73.757  13.342  27.164  1.00  0.00    -0.045 N 
ATOM     18  H33 UNL     1      72.892  13.622  26.702  1.00  0.00     0.277 HD
ATOM     19  H32 UNL     1      74.157  12.819  26.385  1.00  0.00     0.277 HD
ATOM     20  H31 UNL     1      73.601  12.767  27.991  1.00  0.00     0.277 HD
ENDBRANCH  12  17
ENDBRANCH   7  12
BRANCH  10  21
HETATM   21  N6  UNL     1      77.322  14.732  23.624  1.00  0.00    -0.324 N 
ATOM     22  H62 UNL     1      77.966  14.089  24.085  1.00  0.00     0.179 HD
ATOM     23  H61 UNL     1      77.358  14.932  22.625  1.00  0.00     0.179 HD
ENDBRANCH  10  21
BRANCH  11  24
HETATM   24  C7  UNL     1      76.359  17.115  22.717  1.00  0.00     0.144 C 
HETATM   25  N7  UNL     1      75.973  16.711  21.418  1.00  0.00    -0.087 NA
HETATM   26  S1  UNL     1      77.465  18.333  22.782  1.00  0.00    -0.061 SA
ENDBRANCH  11  24
TORSDOF 5
ENDMDL
MODEL 2
REMARK VINA RESULT: -4.273108889      2.507      4.543
REMARK  5 active torsions:
REMARK  status: ('A' for Active; 'I' for Inactive)
REMARK    1  A    between atoms: C4_7  and  C5_8 
REMARK    2  A    between atoms: C5_8  and  N2_9 
REMARK    3  A    between atoms: C5_8  and  N3_13 
REMARK    4  A    between atoms: N5_19  and  N6_20 
REMARK    5  A    between atoms: C6_23  and  C7_24 
ROOT
HETATM    1  C1  UNL     1      73.870  19.287  25.223  1.00  0.00     0.028 C 
HETATM    2  C2  UNL     1      74.178  18.030  25.107  1.00  0.00     0.016 A 
HETATM    3  C3  UNL     1      75.252  17.631  24.162  1.00  0.00     0.066 A 
HETATM    4  N1  UNL     1      75.857  18.493  23.483  1.00  0.00    -0.397 N 
ATOM      5  H11 UNL     1      76.595  18.218  22.834  1.00  0.00     0.156 HD
ATOM      6  H12 UNL     1      75.600  19.474  23.587  1.00  0.00     0.156 HD
HETATM    7  C4  UNL     1      75.623  16.210  24.010  1.00  0.00     0.112 A 
HETATM    8  N4  UNL     1      74.978  15.401  24.720  1.00  0.00    -0.278 N 
ATOM      9  H4  UNL     1      75.221  14.414  24.628  1.00  0.00     0.189 HD
HETATM   10  N5  UNL     1      73.944  15.720  25.639  1.00  0.00    -0.200 N 
HETATM   11  C6  UNL     1      73.535  16.946  25.853  1.00  0.00     0.121 A 
ENDROOT
BRANCH   7  12
HETATM   12  C5  UNL     1      76.702  15.846  23.056  1.00  0.00     0.431 C 
BRANCH  12  13
HETATM   13  N2  UNL     1      76.161  15.311  21.813  1.00  0.00    -0.045 N 
ATOM     14  H23 UNL     1      76.227  14.293  21.786  1.00  0.00     0.277 HD
ATOM     15  H22 UNL     1      75.146  15.405  21.779  1.00  0.00     0.277 HD
ATOM     16  H21 UNL     1      76.603  15.735  20.998  1.00  0.00     0.277 HD
ENDBRANCH  12  13
BRANCH  12  17
HETATM   17  N3  UNL     1      77.499  14.808  23.689  1.00  0.00    -0.045 N 
ATOM     18  H33 UNL     1      78.484  15.056  23.775  1.00  0.00     0.277 HD
ATOM     19  H32 UNL     1      77.303  14.704  24.684  1.00  0.00     0.277 HD
ATOM     20  H31 UNL     1      77.347  13.950  23.159  1.00  0.00     0.277 HD
ENDBRANCH  12  17
ENDBRANCH   7  12
BRANCH  10  21
HETATM   21  N6  UNL     1      73.365  14.653  26.322  1.00  0.00    -0.324 N 
ATOM     22  H62 UNL     1      72.484  14.777  26.821  1.00  0.00     0.179 HD
ATOM     23  H61 UNL     1      73.865  13.765  26.291  1.00  0.00     0.179 HD
ENDBRANCH  10  21
BRANCH  11  24
HETATM   24  C7  UNL     1      72.471  17.181  26.811  1.00  0.00     0.144 C 
HETATM   25  N7  UNL     1      71.094  16.991  26.543  1.00  0.00    -0.087 NA
HETATM   26  S1  UNL     1      72.832  17.703  28.329  1.00  0.00    -0.061 SA
ENDBRANCH  11  24
TORSDOF 5
ENDMDL
MODEL 3
REMARK VINA RESULT: -4.155298436      3.250      5.580
REMARK  5 active torsions:
REMARK  status: ('A' for Active; 'I' for Inactive)
REMARK    1  A    between atoms: C4_7  and  C5_8 
REMARK    2  A    between atoms: C5_8  and  N2_9 
REMARK    3  A    between atoms: C5_8  and  N3_13 
REMARK    4  A    between atoms: N5_19  and  N6_20 
REMARK    5  A    between atoms: C6_23  and  C7_24 
ROOT
HETATM    1  C1  UNL     1      75.101  12.948  29.050  1.00  0.00     0.028 C 
HETATM    2  C2  UNL     1      75.608  13.940  28.383  1.00  0.00     0.016 A 
HETATM    3  C3  UNL     1      75.131  14.205  27.001  1.00  0.00     0.066 A 
HETATM    4  N1  UNL     1      74.249  13.482  26.481  1.00  0.00    -0.397 N 
ATOM      5  H11 UNL     1      73.922  13.665  25.532  1.00  0.00     0.156 HD
ATOM      6  H12 UNL     1      73.863  12.708  27.021  1.00  0.00     0.156 HD
HETATM    7  C4  UNL     1      75.691  15.326  26.220  1.00  0.00     0.112 A 
HETATM    8  N4  UNL     1      76.569  16.009  26.801  1.00  0.00    -0.278 N 
ATOM      9  H4  UNL     1      76.967  16.788  26.276  1.00  0.00     0.189 HD
HETATM   10  N5  UNL     1      77.064  15.807  28.115  1.00  0.00    -0.200 N 
HETATM   11  C6  UNL     1      76.640  14.844  28.897  1.00  0.00     0.121 A 
ENDROOT
BRANCH   7  12
HETATM   12  C5  UNL     1      75.190  15.562  24.841  1.00  0.00     0.431 C 
BRANCH  12  13
HETATM   13  N2  UNL     1      76.215  15.279  23.844  1.00  0.00    -0.045 N 
ATOM     14  H23 UNL     1      76.738  14.435  24.076  1.00  0.00     0.277 HD
ATOM     15  H22 UNL     1      75.803  14.974  22.962  1.00  0.00     0.277 HD
ATOM     16  H21 UNL     1      76.837  16.076  23.709  1.00  0.00     0.277 HD
ENDBRANCH  12  13
BRANCH  12  17
HETATM   17  N3  UNL     1      74.843  16.970  24.749  1.00  0.00    -0.045 N 
ATOM     18  H33 UNL     1      75.496  17.577  25.245  1.00  0.00     0.277 HD
ATOM     19  H32 UNL     1      74.987  17.358  23.817  1.00  0.00     0.277 HD
ATOM     20  H31 UNL     1      73.882  17.064  25.077  1.00  0.00     0.277 HD
ENDBRANCH  12  17
ENDBRANCH   7  12
BRANCH  10  21
HETATM   21  N6  UNL     1      78.045  16.692  28.556  1.00  0.00    -0.324 N 
ATOM     22  H62 UNL     1      79.031  16.431  28.519  1.00  0.00     0.179 HD
ATOM     23  H61 UNL     1      77.723  17.594  28.906  1.00  0.00     0.179 HD
ENDBRANCH  10  21
BRANCH  11  24
HETATM   24  C7  UNL     1      77.203  14.711  30.227  1.00  0.00     0.144 C 
HETATM   25  N7  UNL     1      78.486  14.182  30.506  1.00  0.00    -0.087 NA
HETATM   26  S1  UNL     1      76.335  15.193  31.540  1.00  0.00    -0.061 SA
ENDBRANCH  11  24
TORSDOF 5
ENDMDL
MODEL 4
REMARK VINA RESULT: -4.057734898      1.320      1.447
REMARK  5 active torsions:
REMARK  status: ('A' for Active; 'I' for Inactive)
REMARK    1  A    between atoms: C4_7  and  C5_8 
REMARK    2  A    between atoms: C5_8  and  N2_9 
REMARK    3  A    between atoms: C5_8  and  N3_13 
REMARK    4  A    between atoms: N5_19  and  N6_20 
REMARK    5  A    between atoms: C6_23  and  C7_24 
ROOT
HETATM    1  C1  UNL     1      75.806  19.109  25.054  1.00  0.00     0.028 C 
HETATM    2  C2  UNL     1      75.639  17.849  24.787  1.00  0.00     0.016 A 
HETATM    3  C3  UNL     1      74.889  16.998  25.745  1.00  0.00     0.066 A 
HETATM    4  N1  UNL     1      74.420  17.485  26.800  1.00  0.00    -0.397 N 
ATOM      5  H11 UNL     1      73.904  16.900  27.458  1.00  0.00     0.156 HD
ATOM      6  H12 UNL     1      74.562  18.477  26.992  1.00  0.00     0.156 HD
HETATM    7  C4  UNL     1      74.684  15.563  25.468  1.00  0.00     0.112 A 
HETATM    8  N4  UNL     1      75.179  15.140  24.394  1.00  0.00    -0.278 N 
ATOM      9  H4  UNL     1      75.047  14.150  24.186  1.00  0.00     0.189 HD
HETATM   10  N5  UNL     1      75.903  15.901  23.441  1.00  0.00    -0.200 N 
HETATM   11  C6  UNL     1      76.144  17.182  23.585  1.00  0.00     0.121 A 
ENDROOT
BRANCH   7  12
HETATM   12  C5  UNL     1      73.928  14.740  26.448  1.00  0.00     0.431 C 
BRANCH  12  13
HETATM   13  N2  UNL     1      74.366  13.351  26.432  1.00  0.00    -0.045 N 
ATOM     14  H23 UNL     1      74.394  12.979  25.483  1.00  0.00     0.277 HD
ATOM     15  H22 UNL     1      75.356  13.270  26.663  1.00  0.00     0.277 HD
ATOM     16  H21 UNL     1      73.792  12.769  27.042  1.00  0.00     0.277 HD
ENDBRANCH  12  13
BRANCH  12  17
HETATM   17  N3  UNL     1      72.531  14.780  26.051  1.00  0.00    -0.045 N 
ATOM     18  H33 UNL     1      71.891  14.552  26.812  1.00  0.00     0.277 HD
ATOM     19  H32 UNL     1      72.191  15.726  25.875  1.00  0.00     0.277 HD
ATOM     20  H31 UNL     1      72.430  14.163  25.246  1.00  0.00     0.277 HD
ENDBRANCH  12  17
ENDBRANCH   7  12
BRANCH  10  21
HETATM   21  N6  UNL     1      76.362  15.219  22.316  1.00  0.00    -0.324 N 
ATOM     22  H62 UNL     1      77.352  14.996  22.216  1.00  0.00     0.179 HD
ATOM     23  H61 UNL     1      75.662  14.964  21.620  1.00  0.00     0.179 HD
ENDBRANCH  10  21
BRANCH  11  24
HETATM   24  C7  UNL     1      76.894  17.881  22.559  1.00  0.00     0.144 C 
HETATM   25  N7  UNL     1      76.337  18.379  21.357  1.00  0.00    -0.087 NA
HETATM   26  S1  UNL     1      78.507  18.142  22.753  1.00  0.00    -0.061 SA
ENDBRANCH  11  24
TORSDOF 5
ENDMDL
MODEL 5
REMARK VINA RESULT: -3.924784744      2.174      4.503
REMARK  5 active torsions:
REMARK  status: ('A' for Active; 'I' for Inactive)
REMARK    1  A    between atoms: C4_7  and  C5_8 
REMARK    2  A    between atoms: C5_8  and  N2_9 
REMARK    3  A    between atoms: C5_8  and  N3_13 
REMARK    4  A    between atoms: N5_19  and  N6_20 
REMARK    5  A    between atoms: C6_23  and  C7_24 
ROOT
HETATM    1  C1  UNL     1      74.331  18.530  24.367  1.00  0.00     0.028 C 
HETATM    2  C2  UNL     1      75.058  17.455  24.417  1.00  0.00     0.016 A 
HETATM    3  C3  UNL     1      76.264  17.354  23.555  1.00  0.00     0.066 A 
HETATM    4  N1  UNL     1      76.580  18.292  22.787  1.00  0.00    -0.397 N 
ATOM      5  H11 UNL     1      77.408  18.222  22.195  1.00  0.00     0.156 HD
ATOM      6  H12 UNL     1      75.995  19.128  22.761  1.00  0.00     0.156 HD
HETATM    7  C4  UNL     1      77.108  16.144  23.592  1.00  0.00     0.112 A 
HETATM    8  N4  UNL     1      76.735  15.244  24.384  1.00  0.00    -0.278 N 
ATOM      9  H4  UNL     1      77.307  14.400  24.422  1.00  0.00     0.189 HD
HETATM   10  N5  UNL     1      75.597  15.282  25.231  1.00  0.00    -0.200 N 
HETATM   11  C6  UNL     1      74.778  16.305  25.279  1.00  0.00     0.121 A 
ENDROOT
BRANCH   7  12
HETATM   12  C5  UNL     1      78.307  16.076  22.717  1.00  0.00     0.431 C 
BRANCH  12  13
HETATM   13  N2  UNL     1      77.967  15.612  21.378  1.00  0.00    -0.045 N 
ATOM     14  H23 UNL     1      78.478  14.762  21.137  1.00  0.00     0.277 HD
ATOM     15  H22 UNL     1      77.017  15.242  21.342  1.00  0.00     0.277 HD
ATOM     16  H21 UNL     1      78.110  16.342  20.681  1.00  0.00     0.277 HD
ENDBRANCH  12  13
BRANCH  12  17
HETATM   17  N3  UNL     1      79.217  15.113  23.314  1.00  0.00    -0.045 N 
ATOM     18  H33 UNL     1      78.800  14.191  23.438  1.00  0.00     0.277 HD
ATOM     19  H32 UNL     1      79.971  14.831  22.687  1.00  0.00     0.277 HD
ATOM     20  H31 UNL     1      79.554  15.520  24.186  1.00  0.00     0.277 HD
ENDBRANCH  12  17
ENDBRANCH   7  12
BRANCH  10  21
HETATM   21  N6  UNL     1      75.376  14.163  26.029  1.00  0.00    -0.324 N 
ATOM     22  H62 UNL     1      75.047  13.290  25.616  1.00  0.00     0.179 HD
ATOM     23  H61 UNL     1      75.560  14.269  27.027  1.00  0.00     0.179 HD
ENDBRANCH  10  21
BRANCH  11  24
HETATM   24  C7  UNL     1      73.639  16.257  26.175  1.00  0.00     0.144 C 
HETATM   25  N7  UNL     1      72.434  15.567  25.904  1.00  0.00    -0.087 NA
HETATM   26  S1  UNL     1      73.696  17.043  27.620  1.00  0.00    -0.061 SA
ENDBRANCH  11  24
TORSDOF 5
ENDMDL
