MODEL 1
REMARK VINA RESULT: -5.528568654      0.000      0.000
REMARK  10 active torsions:
REMARK  status: ('A' for Active; 'I' for Inactive)
REMARK    1  A    between atoms: N1_2  and  C3_4 
REMARK    2  A    between atoms: C4_7  and  N3_8 
REMARK    3  A    between atoms: C6_10  and  C7_11 
REMARK    4  A    between atoms: C6_10  and  C8_19 
REMARK       I    between atoms: C7_11  and  N4_13 
REMARK    5  A    between atoms: N4_13  and  N5_15 
REMARK    6  A    between atoms: N5_15  and  N6_16 
REMARK    7  A    between atoms: C8_19  and  O2_20 
REMARK    8  A    between atoms: C8_19  and  O3_22 
REMARK    9  A    between atoms: C9_25  and  N7_26 
REMARK   10  A    between atoms: C10_32  and  N9_33 
ROOT
HETATM    1  N3  UNL     1      22.435  29.989  24.066  1.00  0.00    -0.161 N 
HETATM    2  C5  UNL     1      22.499  31.434  24.166  1.00  0.00     0.199 C 
HETATM    3  C6  UNL     1      21.603  31.641  25.370  1.00  0.00     0.212 C 
HETATM    4  O4  UNL     1      21.388  30.392  25.948  1.00  0.00    -0.315 OA
HETATM    5  C9  UNL     1      22.425  29.583  25.474  1.00  0.00     0.444 C 
ENDROOT
BRANCH   1   6
HETATM    6  C4  UNL     1      22.375  29.205  22.899  1.00  0.00     0.713 A 
HETATM    7  N2  UNL     1      22.915  27.975  22.870  1.00  0.00    -0.021 N 
HETATM    8  C3  UNL     1      22.833  27.223  21.736  1.00  0.00     0.708 A 
ATOM      9  H2  UNL     1      23.386  27.605  23.696  1.00  0.00     0.203 HD
HETATM   10  N10 UNL     1      22.207  27.743  20.674  1.00  0.00    -0.022 N 
HETATM   11  C10 UNL     1      21.648  28.987  20.674  1.00  0.00     0.705 A 
ATOM     12  H10 UNL     1      22.145  27.183  19.824  1.00  0.00     0.203 HD
HETATM   13  N8  UNL     1      21.756  29.688  21.812  1.00  0.00    -0.021 N 
ATOM     14  H8  UNL     1      21.352  30.624  21.852  1.00  0.00     0.203 HD
BRANCH   8  15
HETATM   15  N1  UNL     1      23.429  25.940  21.756  1.00  0.00    -0.225 N 
HETATM   16  C1  UNL     1      23.965  25.414  22.988  1.00  0.00     0.168 C 
HETATM   17  C2  UNL     1      23.519  25.110  20.564  1.00  0.00     0.168 C 
ENDBRANCH   8  15
BRANCH  11  18
HETATM   18  N9  UNL     1      21.059  29.427  19.624  1.00  0.00    -0.234 N 
ATOM     19  H92 UNL     1      21.542  30.071  18.999  1.00  0.00     0.174 HD
ATOM     20  H91 UNL     1      20.108  29.166  19.361  1.00  0.00     0.174 HD
ENDBRANCH  11  18
ENDBRANCH   1   6
BRANCH   5  21
HETATM   21  N7  UNL     1      22.186  28.190  25.627  1.00  0.00    -0.034 N 
ATOM     22  H73 UNL     1      21.777  27.790  24.781  1.00  0.00     0.279 HD
ATOM     23  H72 UNL     1      23.059  27.665  25.647  1.00  0.00     0.279 HD
ATOM     24  H71 UNL     1      21.613  27.987  26.446  1.00  0.00     0.279 HD
ENDBRANCH   5  21
BRANCH   3  25
HETATM   25  C7  UNL     1      20.345  32.251  24.836  1.00  0.00     0.276 C 
HETATM   26  O1  UNL     1      20.179  32.549  23.645  1.00  0.00    -0.268 OA
HETATM   27  N4  UNL     1      19.315  32.478  25.794  1.00  0.00    -0.252 N 
ATOM     28  H4  UNL     1      19.474  32.221  26.768  1.00  0.00     0.187 HD
BRANCH  27  29
HETATM   29  N5  UNL     1      18.084  33.049  25.426  1.00  0.00    -0.027 NA
BRANCH  29  30
HETATM   30  N6  UNL     1      17.701  34.076  26.299  1.00  0.00    -0.329 N 
ATOM     31  H62 UNL     1      18.298  34.872  26.520  1.00  0.00     0.174 HD
ATOM     32  H61 UNL     1      16.765  33.926  26.676  1.00  0.00     0.174 HD
ENDBRANCH  29  30
ENDBRANCH  27  29
ENDBRANCH   3  25
BRANCH   3  33
HETATM   33  C8  UNL     1      22.171  32.589  26.386  1.00  0.00     0.300 C 
BRANCH  33  34
HETATM   34  O2  UNL     1      21.852  33.889  26.003  1.00  0.00    -0.368 OA
ATOM     35  H2  UNL     1      22.659  34.358  25.829  1.00  0.00     0.212 HD
ENDBRANCH  33  34
BRANCH  33  36
HETATM   36  O3  UNL     1      21.617  32.393  27.654  1.00  0.00    -0.368 OA
ATOM     37  H3  UNL     1      22.098  32.856  28.330  1.00  0.00     0.212 HD
ENDBRANCH  33  36
ENDBRANCH   3  33
TORSDOF 10
ENDMDL
MODEL 2
REMARK VINA RESULT: -5.419907578      2.619      4.017
REMARK  10 active torsions:
REMARK  status: ('A' for Active; 'I' for Inactive)
REMARK    1  A    between atoms: N1_2  and  C3_4 
REMARK    2  A    between atoms: C4_7  and  N3_8 
REMARK    3  A    between atoms: C6_10  and  C7_11 
REMARK    4  A    between atoms: C6_10  and  C8_19 
REMARK       I    between atoms: C7_11  and  N4_13 
REMARK    5  A    between atoms: N4_13  and  N5_15 
REMARK    6  A    between atoms: N5_15  and  N6_16 
REMARK    7  A    between atoms: C8_19  and  O2_20 
REMARK    8  A    between atoms: C8_19  and  O3_22 
REMARK    9  A    between atoms: C9_25  and  N7_26 
REMARK   10  A    between atoms: C10_32  and  N9_33 
ROOT
HETATM    1  N3  UNL     1      22.424  28.738  22.328  1.00  0.00    -0.161 N 
HETATM    2  C5  UNL     1      22.136  29.132  23.693  1.00  0.00     0.199 C 
HETATM    3  C6  UNL     1      22.215  30.637  23.540  1.00  0.00     0.212 C 
HETATM    4  O4  UNL     1      22.241  30.915  22.176  1.00  0.00    -0.315 OA
HETATM    5  C9  UNL     1      21.730  29.771  21.556  1.00  0.00     0.444 C 
ENDROOT
BRANCH   1   6
HETATM    6  C4  UNL     1      23.198  27.647  21.887  1.00  0.00     0.713 A 
HETATM    7  N2  UNL     1      24.483  27.524  22.259  1.00  0.00    -0.021 N 
HETATM    8  C3  UNL     1      25.212  26.453  21.836  1.00  0.00     0.708 A 
ATOM      9  H2  UNL     1      24.912  28.231  22.856  1.00  0.00     0.203 HD
HETATM   10  N10 UNL     1      24.614  25.547  21.054  1.00  0.00    -0.022 N 
HETATM   11  C10 UNL     1      23.312  25.645  20.663  1.00  0.00     0.705 A 
ATOM     12  H10 UNL     1      25.158  24.745  20.736  1.00  0.00     0.203 HD
HETATM   13  N8  UNL     1      22.636  26.716  21.103  1.00  0.00    -0.021 N 
ATOM     14  H8  UNL     1      21.660  26.827  20.831  1.00  0.00     0.203 HD
BRANCH   8  15
HETATM   15  N1  UNL     1      26.565  26.378  22.246  1.00  0.00    -0.225 N 
HETATM   16  C1  UNL     1      27.619  26.672  21.306  1.00  0.00     0.168 C 
HETATM   17  C2  UNL     1      26.942  26.017  23.604  1.00  0.00     0.168 C 
ENDBRANCH   8  15
BRANCH  11  18
HETATM   18  N9  UNL     1      22.796  24.740  19.915  1.00  0.00    -0.234 N 
ATOM     19  H92 UNL     1      21.948  24.939  19.384  1.00  0.00     0.174 HD
ATOM     20  H91 UNL     1      23.188  23.805  19.810  1.00  0.00     0.174 HD
ENDBRANCH  11  18
ENDBRANCH   1   6
BRANCH   5  21
HETATM   21  N7  UNL     1      22.024  29.689  20.167  1.00  0.00    -0.034 N 
ATOM     22  H73 UNL     1      22.347  28.755  19.912  1.00  0.00     0.279 HD
ATOM     23  H72 UNL     1      21.172  29.723  19.607  1.00  0.00     0.279 HD
ATOM     24  H71 UNL     1      22.689  30.403  19.872  1.00  0.00     0.279 HD
ENDBRANCH   5  21
BRANCH   3  25
HETATM   25  C7  UNL     1      23.475  31.048  24.235  1.00  0.00     0.276 C 
HETATM   26  O1  UNL     1      24.339  31.770  23.718  1.00  0.00    -0.268 OA
HETATM   27  N4  UNL     1      23.637  30.554  25.562  1.00  0.00    -0.252 N 
ATOM     28  H4  UNL     1      22.910  29.965  25.967  1.00  0.00     0.187 HD
BRANCH  27  29
HETATM   29  N5  UNL     1      24.777  30.862  26.324  1.00  0.00    -0.027 NA
BRANCH  29  30
HETATM   30  N6  UNL     1      24.847  32.226  26.635  1.00  0.00    -0.329 N 
ATOM     31  H62 UNL     1      24.342  32.943  26.115  1.00  0.00     0.174 HD
ATOM     32  H61 UNL     1      25.458  32.405  27.432  1.00  0.00     0.174 HD
ENDBRANCH  29  30
ENDBRANCH  27  29
ENDBRANCH   3  25
BRANCH   3  33
HETATM   33  C8  UNL     1      21.077  31.368  24.194  1.00  0.00     0.300 C 
BRANCH  33  34
HETATM   34  O2  UNL     1      20.546  30.554  25.191  1.00  0.00    -0.368 OA
ATOM     35  H2  UNL     1      19.758  30.143  24.857  1.00  0.00     0.212 HD
ENDBRANCH  33  34
BRANCH  33  36
HETATM   36  O3  UNL     1      21.498  32.547  24.815  1.00  0.00    -0.368 OA
ATOM     37  H3  UNL     1      20.774  33.023  25.204  1.00  0.00     0.212 HD
ENDBRANCH  33  36
ENDBRANCH   3  33
TORSDOF 10
ENDMDL
MODEL 3
REMARK VINA RESULT: -5.313732765      1.897      2.204
REMARK  10 active torsions:
REMARK  status: ('A' for Active; 'I' for Inactive)
REMARK    1  A    between atoms: N1_2  and  C3_4 
REMARK    2  A    between atoms: C4_7  and  N3_8 
REMARK    3  A    between atoms: C6_10  and  C7_11 
REMARK    4  A    between atoms: C6_10  and  C8_19 
REMARK       I    between atoms: C7_11  and  N4_13 
REMARK    5  A    between atoms: N4_13  and  N5_15 
REMARK    6  A    between atoms: N5_15  and  N6_16 
REMARK    7  A    between atoms: C8_19  and  O2_20 
REMARK    8  A    between atoms: C8_19  and  O3_22 
REMARK    9  A    between atoms: C9_25  and  N7_26 
REMARK   10  A    between atoms: C10_32  and  N9_33 
ROOT
HETATM    1  N3  UNL     1      22.090  30.939  23.549  1.00  0.00    -0.161 N 
HETATM    2  C5  UNL     1      20.989  31.797  23.942  1.00  0.00     0.199 C 
HETATM    3  C6  UNL     1      21.204  31.807  25.442  1.00  0.00     0.212 C 
HETATM    4  O4  UNL     1      22.458  31.252  25.685  1.00  0.00    -0.315 OA
HETATM    5  C9  UNL     1      23.148  31.352  24.474  1.00  0.00     0.444 C 
ENDROOT
BRANCH   1   6
HETATM    6  C4  UNL     1      22.101  29.953  22.545  1.00  0.00     0.713 A 
HETATM    7  N2  UNL     1      22.571  28.721  22.800  1.00  0.00    -0.021 N 
HETATM    8  C3  UNL     1      22.560  27.773  21.820  1.00  0.00     0.708 A 
ATOM      9  H2  UNL     1      22.936  28.494  23.725  1.00  0.00     0.203 HD
HETATM   10  N10 UNL     1      22.073  28.107  20.620  1.00  0.00    -0.022 N 
HETATM   11  C10 UNL     1      21.588  29.349  20.332  1.00  0.00     0.705 A 
ATOM     12  H10 UNL     1      22.064  27.400  19.885  1.00  0.00     0.203 HD
HETATM   13  N8  UNL     1      21.622  30.246  21.328  1.00  0.00    -0.021 N 
ATOM     14  H8  UNL     1      21.270  31.187  21.152  1.00  0.00     0.203 HD
BRANCH   8  15
HETATM   15  N1  UNL     1      23.078  26.495  22.138  1.00  0.00    -0.225 N 
HETATM   16  C1  UNL     1      23.385  25.559  21.084  1.00  0.00     0.168 C 
HETATM   17  C2  UNL     1      23.324  26.080  23.511  1.00  0.00     0.168 C 
ENDBRANCH   8  15
BRANCH  11  18
HETATM   18  N9  UNL     1      21.132  29.605  19.162  1.00  0.00    -0.234 N 
ATOM     19  H92 UNL     1      20.253  29.189  18.854  1.00  0.00     0.174 HD
ATOM     20  H91 UNL     1      21.602  30.218  18.496  1.00  0.00     0.174 HD
ENDBRANCH  11  18
ENDBRANCH   1   6
BRANCH   5  21
HETATM   21  N7  UNL     1      24.290  30.510  24.390  1.00  0.00    -0.034 N 
ATOM     22  H73 UNL     1      24.503  30.084  25.293  1.00  0.00     0.279 HD
ATOM     23  H72 UNL     1      24.087  29.665  23.857  1.00  0.00     0.279 HD
ATOM     24  H71 UNL     1      25.101  31.000  24.012  1.00  0.00     0.279 HD
ENDBRANCH   5  21
BRANCH   3  25
HETATM   25  C7  UNL     1      20.091  30.988  26.015  1.00  0.00     0.276 C 
HETATM   26  O1  UNL     1      18.895  31.301  25.929  1.00  0.00    -0.268 OA
HETATM   27  N4  UNL     1      20.485  29.793  26.684  1.00  0.00    -0.252 N 
ATOM     28  H4  UNL     1      21.475  29.556  26.738  1.00  0.00     0.187 HD
BRANCH  27  29
HETATM   29  N5  UNL     1      19.539  28.935  27.271  1.00  0.00    -0.027 NA
BRANCH  29  30
HETATM   30  N6  UNL     1      19.038  29.452  28.473  1.00  0.00    -0.329 N 
ATOM     31  H62 UNL     1      19.520  29.354  29.366  1.00  0.00     0.174 HD
ATOM     32  H61 UNL     1      18.145  29.928  28.341  1.00  0.00     0.174 HD
ENDBRANCH  29  30
ENDBRANCH  27  29
ENDBRANCH   3  25
BRANCH   3  33
HETATM   33  C8  UNL     1      21.119  33.177  26.051  1.00  0.00     0.300 C 
BRANCH  33  34
HETATM   34  O2  UNL     1      20.153  33.907  25.364  1.00  0.00    -0.368 OA
ATOM     35  H2  UNL     1      20.491  34.115  24.501  1.00  0.00     0.212 HD
ENDBRANCH  33  34
BRANCH  33  36
HETATM   36  O3  UNL     1      20.716  33.132  27.389  1.00  0.00    -0.368 OA
ATOM     37  H3  UNL     1      19.789  33.314  27.489  1.00  0.00     0.212 HD
ENDBRANCH  33  36
ENDBRANCH   3  33
TORSDOF 10
ENDMDL
MODEL 4
REMARK VINA RESULT: -5.312069072      2.626      7.329
REMARK  10 active torsions:
REMARK  status: ('A' for Active; 'I' for Inactive)
REMARK    1  A    between atoms: N1_2  and  C3_4 
REMARK    2  A    between atoms: C4_7  and  N3_8 
REMARK    3  A    between atoms: C6_10  and  C7_11 
REMARK    4  A    between atoms: C6_10  and  C8_19 
REMARK       I    between atoms: C7_11  and  N4_13 
REMARK    5  A    between atoms: N4_13  and  N5_15 
REMARK    6  A    between atoms: N5_15  and  N6_16 
REMARK    7  A    between atoms: C8_19  and  O2_20 
REMARK    8  A    between atoms: C8_19  and  O3_22 
REMARK    9  A    between atoms: C9_25  and  N7_26 
REMARK   10  A    between atoms: C10_32  and  N9_33 
ROOT
HETATM    1  N3  UNL     1      21.235  32.242  25.777  1.00  0.00    -0.161 N 
HETATM    2  C5  UNL     1      20.768  31.058  25.082  1.00  0.00     0.199 C 
HETATM    3  C6  UNL     1      21.994  30.760  24.244  1.00  0.00     0.212 C 
HETATM    4  O4  UNL     1      23.031  31.554  24.728  1.00  0.00    -0.315 OA
HETATM    5  C9  UNL     1      22.643  31.920  26.021  1.00  0.00     0.444 C 
ENDROOT
BRANCH   1   6
HETATM    6  C4  UNL     1      20.503  33.401  26.099  1.00  0.00     0.713 A 
HETATM    7  N2  UNL     1      21.120  34.587  26.228  1.00  0.00    -0.021 N 
HETATM    8  C3  UNL     1      20.394  35.702  26.526  1.00  0.00     0.708 A 
ATOM      9  H2  UNL     1      22.131  34.654  26.104  1.00  0.00     0.203 HD
HETATM   10  N10 UNL     1      19.071  35.574  26.680  1.00  0.00    -0.022 N 
HETATM   11  C10 UNL     1      18.418  34.384  26.554  1.00  0.00     0.705 A 
ATOM     12  H10 UNL     1      18.525  36.406  26.903  1.00  0.00     0.203 HD
HETATM   13  N8  UNL     1      19.176  33.316  26.262  1.00  0.00    -0.021 N 
ATOM     14  H8  UNL     1      18.725  32.407  26.161  1.00  0.00     0.203 HD
BRANCH   8  15
HETATM   15  N1  UNL     1      21.094  36.923  26.662  1.00  0.00    -0.225 N 
HETATM   16  C1  UNL     1      22.448  36.926  27.163  1.00  0.00     0.168 C 
HETATM   17  C2  UNL     1      20.497  38.201  26.303  1.00  0.00     0.168 C 
ENDBRANCH   8  15
BRANCH  11  18
HETATM   18  N9  UNL     1      17.147  34.329  26.711  1.00  0.00    -0.234 N 
ATOM     19  H92 UNL     1      16.755  34.085  27.620  1.00  0.00     0.174 HD
ATOM     20  H91 UNL     1      16.478  34.519  25.965  1.00  0.00     0.174 HD
ENDBRANCH  11  18
ENDBRANCH   1   6
BRANCH   5  21
HETATM   21  N7  UNL     1      23.362  33.029  26.545  1.00  0.00    -0.034 N 
ATOM     22  H73 UNL     1      22.728  33.757  26.878  1.00  0.00     0.279 HD
ATOM     23  H72 UNL     1      23.814  32.793  27.428  1.00  0.00     0.279 HD
ATOM     24  H71 UNL     1      24.033  33.403  25.875  1.00  0.00     0.279 HD
ENDBRANCH   5  21
BRANCH   3  25
HETATM   25  C7  UNL     1      21.616  31.103  22.838  1.00  0.00     0.276 C 
HETATM   26  O1  UNL     1      21.471  32.264  22.431  1.00  0.00    -0.268 OA
HETATM   27  N4  UNL     1      21.424  29.995  21.963  1.00  0.00    -0.252 N 
ATOM     28  H4  UNL     1      21.553  29.048  22.321  1.00  0.00     0.187 HD
BRANCH  27  29
HETATM   29  N5  UNL     1      21.063  30.178  20.617  1.00  0.00    -0.027 NA
BRANCH  29  30
HETATM   30  N6  UNL     1      21.619  29.196  19.786  1.00  0.00    -0.329 N 
ATOM     31  H62 UNL     1      21.349  28.214  19.827  1.00  0.00     0.174 HD
ATOM     32  H61 UNL     1      22.314  29.585  19.149  1.00  0.00     0.174 HD
ENDBRANCH  29  30
ENDBRANCH  27  29
ENDBRANCH   3  25
BRANCH   3  33
HETATM   33  C8  UNL     1      22.399  29.313  24.266  1.00  0.00     0.300 C 
BRANCH  33  34
HETATM   34  O2  UNL     1      23.790  29.245  24.247  1.00  0.00    -0.368 OA
ATOM     35  H2  UNL     1      24.088  28.959  25.102  1.00  0.00     0.212 HD
ENDBRANCH  33  34
BRANCH  33  36
HETATM   36  O3  UNL     1      21.979  28.668  25.433  1.00  0.00    -0.368 OA
ATOM     37  H3  UNL     1      22.647  28.681  26.108  1.00  0.00     0.212 HD
ENDBRANCH  33  36
ENDBRANCH   3  33
TORSDOF 10
ENDMDL
MODEL 5
REMARK VINA RESULT: -5.253544537      3.676      5.719
REMARK  10 active torsions:
REMARK  status: ('A' for Active; 'I' for Inactive)
REMARK    1  A    between atoms: N1_2  and  C3_4 
REMARK    2  A    between atoms: C4_7  and  N3_8 
REMARK    3  A    between atoms: C6_10  and  C7_11 
REMARK    4  A    between atoms: C6_10  and  C8_19 
REMARK       I    between atoms: C7_11  and  N4_13 
REMARK    5  A    between atoms: N4_13  and  N5_15 
REMARK    6  A    between atoms: N5_15  and  N6_16 
REMARK    7  A    between atoms: C8_19  and  O2_20 
REMARK    8  A    between atoms: C8_19  and  O3_22 
REMARK    9  A    between atoms: C9_25  and  N7_26 
REMARK   10  A    between atoms: C10_32  and  N9_33 
ROOT
HETATM    1  N3  UNL     1      23.196  27.443  22.402  1.00  0.00    -0.161 N 
HETATM    2  C5  UNL     1      23.753  28.018  23.610  1.00  0.00     0.199 C 
HETATM    3  C6  UNL     1      23.974  29.438  23.133  1.00  0.00     0.212 C 
HETATM    4  O4  UNL     1      23.307  29.576  21.918  1.00  0.00    -0.315 OA
HETATM    5  C9  UNL     1      22.370  28.540  21.891  1.00  0.00     0.444 C 
ENDROOT
BRANCH   1   6
HETATM    6  C4  UNL     1      23.428  26.161  21.867  1.00  0.00     0.713 A 
HETATM    7  N2  UNL     1      24.364  25.972  20.923  1.00  0.00    -0.021 N 
HETATM    8  C3  UNL     1      24.586  24.722  20.428  1.00  0.00     0.708 A 
ATOM      9  H2  UNL     1      24.908  26.762  20.577  1.00  0.00     0.203 HD
HETATM   10  N10 UNL     1      23.853  23.710  20.907  1.00  0.00    -0.022 N 
HETATM   11  C10 UNL     1      22.897  23.872  21.866  1.00  0.00     0.705 A 
ATOM     12  H10 UNL     1      24.017  22.773  20.538  1.00  0.00     0.203 HD
HETATM   13  N8  UNL     1      22.715  25.121  22.320  1.00  0.00    -0.021 N 
ATOM     14  H8  UNL     1      22.008  25.284  23.037  1.00  0.00     0.203 HD
BRANCH   8  15
HETATM   15  N1  UNL     1      25.576  24.579  19.426  1.00  0.00    -0.225 N 
HETATM   16  C1  UNL     1      25.242  23.960  18.167  1.00  0.00     0.168 C 
HETATM   17  C2  UNL     1      26.941  25.048  19.615  1.00  0.00     0.168 C 
ENDBRANCH   8  15
BRANCH  11  18
HETATM   18  N9  UNL     1      22.231  22.861  22.286  1.00  0.00    -0.234 N 
ATOM     19  H92 UNL     1      21.382  23.001  22.834  1.00  0.00     0.174 HD
ATOM     20  H91 UNL     1      22.499  21.894  22.103  1.00  0.00     0.174 HD
ENDBRANCH  11  18
ENDBRANCH   1   6
BRANCH   5  21
HETATM   21  N7  UNL     1      21.854  28.262  20.596  1.00  0.00    -0.034 N 
ATOM     22  H73 UNL     1      22.479  28.608  19.867  1.00  0.00     0.279 HD
ATOM     23  H72 UNL     1      21.897  27.265  20.386  1.00  0.00     0.279 HD
ATOM     24  H71 UNL     1      20.909  28.625  20.474  1.00  0.00     0.279 HD
ENDBRANCH   5  21
BRANCH   3  25
HETATM   25  C7  UNL     1      25.456  29.592  22.996  1.00  0.00     0.276 C 
HETATM   26  O1  UNL     1      26.204  29.892  23.937  1.00  0.00    -0.268 OA
HETATM   27  N4  UNL     1      25.982  29.369  21.690  1.00  0.00    -0.252 N 
ATOM     28  H4  UNL     1      25.346  29.119  20.932  1.00  0.00     0.187 HD
BRANCH  27  29
HETATM   29  N5  UNL     1      27.357  29.485  21.424  1.00  0.00    -0.027 NA
BRANCH  29  30
HETATM   30  N6  UNL     1      27.698  28.939  20.180  1.00  0.00    -0.329 N 
ATOM     31  H62 UNL     1      27.905  29.508  19.359  1.00  0.00     0.174 HD
ATOM     32  H61 UNL     1      27.712  27.919  20.202  1.00  0.00     0.174 HD
ENDBRANCH  29  30
ENDBRANCH  27  29
ENDBRANCH   3  25
BRANCH   3  33
HETATM   33  C8  UNL     1      23.498  30.480  24.104  1.00  0.00     0.300 C 
BRANCH  33  34
HETATM   34  O2  UNL     1      23.826  30.065  25.392  1.00  0.00    -0.368 OA
ATOM     35  H2  UNL     1      24.770  29.984  25.450  1.00  0.00     0.212 HD
ENDBRANCH  33  34
BRANCH  33  36
HETATM   36  O3  UNL     1      24.128  31.712  23.904  1.00  0.00    -0.368 OA
ATOM     37  H3  UNL     1      23.588  32.440  24.187  1.00  0.00     0.212 HD
ENDBRANCH  33  36
ENDBRANCH   3  33
TORSDOF 10
ENDMDL
