MODEL 1
REMARK VINA RESULT: -10.018298084      0.000      0.000
REMARK  9 active torsions:
REMARK  status: ('A' for Active; 'I' for Inactive)
REMARK    1  A    between atoms: S1_2  and  C2_3 
REMARK    2  A    between atoms: C5_7  and  C6_8 
REMARK    3  A    between atoms: C7_17  and  C8_18 
REMARK    4  A    between atoms: C8_18  and  O2_21 
REMARK    5  A    between atoms: N7_30  and  C14_31 
REMARK    6  A    between atoms: C14_31  and  C15_32 
REMARK       I    between atoms: N9_35  and  C16_36 
REMARK    7  A    between atoms: C16_36  and  C17_38 
REMARK    8  A    between atoms: C17_38  and  N10_39 
REMARK    9  A    between atoms: C19_47  and  C20_48 
ROOT
HETATM    1  C20 UNL     1      38.509  -4.041 133.054  1.00  0.00     0.184 C 
HETATM    2  C21 UNL     1      38.646  -4.649 131.722  1.00  0.00     0.065 C 
HETATM    3  N15 UNL     1      38.751  -5.127 130.697  1.00  0.00    -0.197 NA
ENDROOT
BRANCH   1   4
HETATM    4  C19 UNL     1      38.122  -2.602 132.887  1.00  0.00     0.066 A 
HETATM    5  C15 UNL     1      38.125  -1.572 133.777  1.00  0.00     0.071 A 
HETATM    6  N8  UNL     1      37.567  -0.505 133.101  1.00  0.00    -0.277 N 
HETATM    7  N9  UNL     1      37.251  -0.867 131.883  1.00  0.00    -0.159 N 
ATOM      8  H8  UNL     1      37.421   0.426 133.492  1.00  0.00     0.189 HD
HETATM    9  C16 UNL     1      36.675   0.000 130.918  1.00  0.00     0.277 C 
HETATM   10  N14 UNL     1      37.573  -2.132 131.714  1.00  0.00    -0.278 N 
HETATM   11  O3  UNL     1      36.469   1.194 131.203  1.00  0.00    -0.268 OA
ATOM     12  H14 UNL     1      37.439  -2.673 130.859  1.00  0.00     0.189 HD
BRANCH   5  13
HETATM   13  C14 UNL     1      38.676  -1.512 135.120  1.00  0.00     0.191 C 
BRANCH  13  14
HETATM   14  N7  UNL     1      38.436  -0.367 135.928  1.00  0.00    -0.325 N 
HETATM   15  C2  UNL     1      39.202   0.699 136.040  1.00  0.00     0.091 A 
HETATM   16  C3  UNL     1      38.936   1.784 136.902  1.00  0.00     0.093 A 
HETATM   17  C4  UNL     1      39.766   2.874 137.015  1.00  0.00     0.204 A 
HETATM   18  C11 UNL     1      37.788   1.689 137.657  1.00  0.00     0.124 A 
HETATM   19  O1  UNL     1      40.817   2.977 136.346  1.00  0.00    -0.286 OA
HETATM   20  C5  UNL     1      39.426   3.901 137.911  1.00  0.00     0.087 A 
HETATM   21  C7  UNL     1      38.278   3.795 138.654  1.00  0.00     0.063 A 
HETATM   22  N5  UNL     1      37.492   2.684 138.501  1.00  0.00    -0.342 N 
ATOM     23  H5  UNL     1      36.641   2.612 139.058  1.00  0.00     0.167 HD
HETATM   24  N6  UNL     1      37.023   0.602 137.527  1.00  0.00    -0.331 N 
HETATM   25  C12 UNL     1      37.293  -0.423 136.704  1.00  0.00     0.082 A 
ATOM     26  H6  UNL     1      36.175   0.547 138.091  1.00  0.00     0.168 HD
HETATM   27  C13 UNL     1      36.345  -1.564 136.674  1.00  0.00     0.089 C 
BRANCH  15  28
HETATM   28  S1  UNL     1      40.701   0.956 135.065  1.00  0.00    -0.115 SA
HETATM   29  C1  UNL     1      42.035  -0.150 135.657  1.00  0.00     0.097 C 
ENDBRANCH  15  28
BRANCH  20  30
HETATM   30  C6  UNL     1      40.322   5.050 138.049  1.00  0.00     0.153 A 
HETATM   31  N1  UNL     1      41.367   5.164 138.873  1.00  0.00    -0.268 N 
HETATM   32  N2  UNL     1      41.867   6.362 138.653  1.00  0.00    -0.227 N 
ATOM     33  H1  UNL     1      41.707   4.467 139.536  1.00  0.00     0.190 HD
HETATM   34  N3  UNL     1      41.173   6.988 137.727  1.00  0.00    -0.227 N 
ATOM     35  H2  UNL     1      42.679   6.751 139.133  1.00  0.00     0.210 HD
HETATM   36  N4  UNL     1      40.214   6.175 137.351  1.00  0.00    -0.268 N 
ATOM     37  H3  UNL     1      41.348   7.927 137.370  1.00  0.00     0.210 HD
ATOM     38  H4  UNL     1      39.507   6.374 136.644  1.00  0.00     0.190 HD
ENDBRANCH  20  30
BRANCH  21  39
HETATM   39  C8  UNL     1      37.854   4.854 139.590  1.00  0.00     0.094 C 
HETATM   40  C9  UNL     1      36.537   5.501 139.240  1.00  0.00     0.052 C 
HETATM   41  C10 UNL     1      37.617   4.185 140.961  1.00  0.00     0.052 C 
BRANCH  39  42
HETATM   42  O2  UNL     1      38.823   5.840 139.793  1.00  0.00    -0.384 OA
ATOM     43  H2  UNL     1      38.798   6.223 140.662  1.00  0.00     0.211 HD
ENDBRANCH  39  42
ENDBRANCH  21  39
ENDBRANCH  13  14
ENDBRANCH   5  13
BRANCH   9  44
HETATM   44  C17 UNL     1      36.314  -0.496 129.571  1.00  0.00     0.253 C 
BRANCH  44  45
HETATM   45  N10 UNL     1      34.966  -1.027 129.584  1.00  0.00    -0.263 N 
HETATM   46  C18 UNL     1      34.092  -0.857 130.569  1.00  0.00     0.213 A 
HETATM   47  N11 UNL     1      32.959  -1.509 130.208  1.00  0.00    -0.281 N 
HETATM   48  N12 UNL     1      33.192  -2.052 129.009  1.00  0.00    -0.008 NA
ATOM     49  H11 UNL     1      32.096  -1.573 130.747  1.00  0.00     0.184 HD
HETATM   50  N13 UNL     1      34.429  -1.757 128.622  1.00  0.00    -0.005 NA
ENDBRANCH  44  45
ENDBRANCH   9  44
ENDBRANCH   1   4
TORSDOF 9
ENDMDL
MODEL 2
REMARK VINA RESULT: -9.984034157      2.825      4.492
REMARK  9 active torsions:
REMARK  status: ('A' for Active; 'I' for Inactive)
REMARK    1  A    between atoms: S1_2  and  C2_3 
REMARK    2  A    between atoms: C5_7  and  C6_8 
REMARK    3  A    between atoms: C7_17  and  C8_18 
REMARK    4  A    between atoms: C8_18  and  O2_21 
REMARK    5  A    between atoms: N7_30  and  C14_31 
REMARK    6  A    between atoms: C14_31  and  C15_32 
REMARK       I    between atoms: N9_35  and  C16_36 
REMARK    7  A    between atoms: C16_36  and  C17_38 
REMARK    8  A    between atoms: C17_38  and  N10_39 
REMARK    9  A    between atoms: C19_47  and  C20_48 
ROOT
HETATM    1  C20 UNL     1      35.457  -1.244 134.930  1.00  0.00     0.184 C 
HETATM    2  C21 UNL     1      34.880  -0.553 136.092  1.00  0.00     0.065 C 
HETATM    3  N15 UNL     1      34.433  -0.025 136.994  1.00  0.00    -0.197 NA
ENDROOT
BRANCH   1   4
HETATM    4  C19 UNL     1      36.358  -0.291 134.202  1.00  0.00     0.066 A 
HETATM    5  C15 UNL     1      37.432   0.422 134.636  1.00  0.00     0.071 A 
HETATM    6  N8  UNL     1      37.803   1.211 133.564  1.00  0.00    -0.277 N 
HETATM    7  N9  UNL     1      37.006   0.985 132.551  1.00  0.00    -0.159 N 
ATOM      8  H8  UNL     1      38.581   1.871 133.563  1.00  0.00     0.189 HD
HETATM    9  C16 UNL     1      37.127   1.618 131.286  1.00  0.00     0.277 C 
HETATM   10  N14 UNL     1      36.116   0.079 132.897  1.00  0.00    -0.278 N 
HETATM   11  O3  UNL     1      38.053   2.424 131.083  1.00  0.00    -0.268 OA
ATOM     12  H14 UNL     1      35.373  -0.286 132.301  1.00  0.00     0.189 HD
BRANCH   5  13
HETATM   13  C14 UNL     1      38.147   0.343 135.899  1.00  0.00     0.191 C 
BRANCH  13  14
HETATM   14  N7  UNL     1      39.371   1.047 136.060  1.00  0.00    -0.325 N 
HETATM   15  C2  UNL     1      39.525   2.280 136.500  1.00  0.00     0.091 A 
HETATM   16  C3  UNL     1      40.766   2.946 136.586  1.00  0.00     0.093 A 
HETATM   17  C4  UNL     1      40.893   4.241 137.028  1.00  0.00     0.204 A 
HETATM   18  C11 UNL     1      41.868   2.226 136.181  1.00  0.00     0.124 A 
HETATM   19  O1  UNL     1      39.906   4.915 137.393  1.00  0.00    -0.286 OA
HETATM   20  C5  UNL     1      42.169   4.826 137.068  1.00  0.00     0.087 A 
HETATM   21  C7  UNL     1      43.259   4.097 136.664  1.00  0.00     0.063 A 
HETATM   22  N5  UNL     1      43.070   2.812 136.230  1.00  0.00    -0.342 N 
ATOM     23  H5  UNL     1      43.884   2.276 135.931  1.00  0.00     0.167 HD
HETATM   24  N6  UNL     1      41.692   0.977 135.741  1.00  0.00    -0.331 N 
HETATM   25  C12 UNL     1      40.503   0.360 135.661  1.00  0.00     0.082 A 
ATOM     26  H6  UNL     1      42.518   0.456 135.446  1.00  0.00     0.168 HD
HETATM   27  C13 UNL     1      40.470  -1.031 135.148  1.00  0.00     0.089 C 
BRANCH  15  28
HETATM   28  S1  UNL     1      38.161   3.299 137.105  1.00  0.00    -0.115 SA
HETATM   29  C1  UNL     1      37.496   2.605 138.663  1.00  0.00     0.097 C 
ENDBRANCH  15  28
BRANCH  20  30
HETATM   30  C6  UNL     1      42.302   6.213 137.516  1.00  0.00     0.153 A 
HETATM   31  N1  UNL     1      42.382   6.651 138.776  1.00  0.00    -0.268 N 
HETATM   32  N2  UNL     1      42.487   7.961 138.694  1.00  0.00    -0.227 N 
ATOM     33  H1  UNL     1      42.364   6.087 139.626  1.00  0.00     0.190 HD
HETATM   34  N3  UNL     1      42.476   8.346 137.436  1.00  0.00    -0.227 N 
ATOM     35  H2  UNL     1      42.566   8.589 139.493  1.00  0.00     0.210 HD
HETATM   36  N4  UNL     1      42.361   7.263 136.704  1.00  0.00    -0.268 N 
ATOM     37  H3  UNL     1      42.545   9.304 137.095  1.00  0.00     0.210 HD
ATOM     38  H4  UNL     1      42.324   7.233 135.685  1.00  0.00     0.190 HD
ENDBRANCH  20  30
BRANCH  21  39
HETATM   39  C8  UNL     1      44.627   4.648 136.710  1.00  0.00     0.094 C 
HETATM   40  C9  UNL     1      45.690   3.639 137.065  1.00  0.00     0.052 C 
HETATM   41  C10 UNL     1      44.981   5.113 135.281  1.00  0.00     0.052 C 
BRANCH  39  42
HETATM   42  O2  UNL     1      44.749   5.771 137.533  1.00  0.00    -0.384 OA
ATOM     43  H2  UNL     1      45.516   5.748 138.093  1.00  0.00     0.211 HD
ENDBRANCH  39  42
ENDBRANCH  21  39
ENDBRANCH  13  14
ENDBRANCH   5  13
BRANCH   9  44
HETATM   44  C17 UNL     1      36.162   1.335 130.200  1.00  0.00     0.253 C 
BRANCH  44  45
HETATM   45  N10 UNL     1      34.881   1.937 130.505  1.00  0.00    -0.263 N 
HETATM   46  C18 UNL     1      34.643   3.243 130.532  1.00  0.00     0.213 A 
HETATM   47  N11 UNL     1      33.337   3.399 130.862  1.00  0.00    -0.281 N 
HETATM   48  N12 UNL     1      32.830   2.173 131.023  1.00  0.00    -0.008 NA
ATOM     49  H11 UNL     1      32.838   4.283 130.969  1.00  0.00     0.184 HD
HETATM   50  N13 UNL     1      33.780   1.269 130.804  1.00  0.00    -0.005 NA
ENDBRANCH  44  45
ENDBRANCH   9  44
ENDBRANCH   1   4
TORSDOF 9
ENDMDL
MODEL 3
REMARK VINA RESULT: -9.743004202      2.655      4.369
REMARK  9 active torsions:
REMARK  status: ('A' for Active; 'I' for Inactive)
REMARK    1  A    between atoms: S1_2  and  C2_3 
REMARK    2  A    between atoms: C5_7  and  C6_8 
REMARK    3  A    between atoms: C7_17  and  C8_18 
REMARK    4  A    between atoms: C8_18  and  O2_21 
REMARK    5  A    between atoms: N7_30  and  C14_31 
REMARK    6  A    between atoms: C14_31  and  C15_32 
REMARK       I    between atoms: N9_35  and  C16_36 
REMARK    7  A    between atoms: C16_36  and  C17_38 
REMARK    8  A    between atoms: C17_38  and  N10_39 
REMARK    9  A    between atoms: C19_47  and  C20_48 
ROOT
HETATM    1  C20 UNL     1      35.308  -0.552 135.788  1.00  0.00     0.184 C 
HETATM    2  C21 UNL     1      35.932  -1.852 136.075  1.00  0.00     0.065 C 
HETATM    3  N15 UNL     1      36.407  -2.859 136.299  1.00  0.00    -0.197 NA
ENDROOT
BRANCH   1   4
HETATM    4  C19 UNL     1      36.165   0.185 134.802  1.00  0.00     0.066 A 
HETATM    5  C15 UNL     1      37.458   0.598 134.882  1.00  0.00     0.071 A 
HETATM    6  N8  UNL     1      37.684   1.319 133.726  1.00  0.00    -0.277 N 
HETATM    7  N9  UNL     1      36.598   1.337 132.995  1.00  0.00    -0.159 N 
ATOM      8  H8  UNL     1      38.565   1.771 133.479  1.00  0.00     0.189 HD
HETATM    9  C16 UNL     1      36.499   1.975 131.731  1.00  0.00     0.277 C 
HETATM   10  N14 UNL     1      35.653   0.659 133.612  1.00  0.00    -0.278 N 
HETATM   11  O3  UNL     1      37.495   2.541 131.243  1.00  0.00    -0.268 OA
ATOM     12  H14 UNL     1      34.704   0.510 133.269  1.00  0.00     0.189 HD
BRANCH   5  13
HETATM   13  C14 UNL     1      38.466   0.294 135.885  1.00  0.00     0.191 C 
BRANCH  13  14
HETATM   14  N7  UNL     1      39.644   1.085 135.960  1.00  0.00    -0.325 N 
HETATM   15  C2  UNL     1      39.818   2.184 136.667  1.00  0.00     0.091 A 
HETATM   16  C3  UNL     1      40.997   2.958 136.659  1.00  0.00     0.093 A 
HETATM   17  C4  UNL     1      41.142   4.113 137.390  1.00  0.00     0.204 A 
HETATM   18  C11 UNL     1      42.015   2.501 135.851  1.00  0.00     0.124 A 
HETATM   19  O1  UNL     1      40.229   4.550 138.123  1.00  0.00    -0.286 OA
HETATM   20  C5  UNL     1      42.350   4.825 137.309  1.00  0.00     0.087 A 
HETATM   21  C7  UNL     1      43.356   4.357 136.503  1.00  0.00     0.063 A 
HETATM   22  N5  UNL     1      43.153   3.203 135.796  1.00  0.00    -0.342 N 
ATOM     23  H5  UNL     1      43.905   2.861 135.198  1.00  0.00     0.167 HD
HETATM   24  N6  UNL     1      41.821   1.384 135.145  1.00  0.00    -0.331 N 
HETATM   25  C12 UNL     1      40.690   0.661 135.162  1.00  0.00     0.082 A 
ATOM     26  H6  UNL     1      42.584   1.057 134.553  1.00  0.00     0.168 HD
HETATM   27  C13 UNL     1      40.627  -0.557 134.318  1.00  0.00     0.089 C 
BRANCH  15  28
HETATM   28  S1  UNL     1      38.575   2.848 137.797  1.00  0.00    -0.115 SA
HETATM   29  C1  UNL     1      37.163   3.532 136.853  1.00  0.00     0.097 C 
ENDBRANCH  15  28
BRANCH  20  30
HETATM   30  C6  UNL     1      42.495   6.068 138.068  1.00  0.00     0.153 A 
HETATM   31  N1  UNL     1      41.951   7.255 137.785  1.00  0.00    -0.268 N 
HETATM   32  N2  UNL     1      42.356   8.071 138.736  1.00  0.00    -0.227 N 
ATOM     33  H1  UNL     1      41.347   7.483 136.995  1.00  0.00     0.190 HD
HETATM   34  N3  UNL     1      43.126   7.434 139.591  1.00  0.00    -0.227 N 
ATOM     35  H2  UNL     1      42.109   9.058 138.800  1.00  0.00     0.210 HD
HETATM   36  N4  UNL     1      43.213   6.191 139.178  1.00  0.00    -0.268 N 
ATOM     37  H3  UNL     1      43.570   7.830 140.419  1.00  0.00     0.210 HD
ATOM     38  H4  UNL     1      43.742   5.447 139.633  1.00  0.00     0.190 HD
ENDBRANCH  20  30
BRANCH  21  39
HETATM   39  C8  UNL     1      44.657   5.047 136.398  1.00  0.00     0.094 C 
HETATM   40  C9  UNL     1      45.779   4.370 137.145  1.00  0.00     0.052 C 
HETATM   41  C10 UNL     1      45.081   5.001 134.915  1.00  0.00     0.052 C 
BRANCH  39  42
HETATM   42  O2  UNL     1      44.602   6.398 136.753  1.00  0.00    -0.384 OA
ATOM     43  H2  UNL     1      45.146   6.615 137.501  1.00  0.00     0.211 HD
ENDBRANCH  39  42
ENDBRANCH  21  39
ENDBRANCH  13  14
ENDBRANCH   5  13
BRANCH   9  44
HETATM   44  C17 UNL     1      35.223   1.980 130.981  1.00  0.00     0.253 C 
BRANCH  44  45
HETATM   45  N10 UNL     1      34.970   0.667 130.425  1.00  0.00    -0.263 N 
HETATM   46  C18 UNL     1      35.651   0.121 129.425  1.00  0.00     0.213 A 
HETATM   47  N11 UNL     1      35.107  -1.100 129.197  1.00  0.00    -0.281 N 
HETATM   48  N12 UNL     1      34.110  -1.248 130.075  1.00  0.00    -0.008 NA
ATOM     49  H11 UNL     1      35.402  -1.775 128.491  1.00  0.00     0.184 HD
HETATM   50  N13 UNL     1      34.023  -0.160 130.833  1.00  0.00    -0.005 NA
ENDBRANCH  44  45
ENDBRANCH   9  44
ENDBRANCH   1   4
TORSDOF 9
ENDMDL
MODEL 4
REMARK VINA RESULT: -9.659002643      2.952      4.288
REMARK  9 active torsions:
REMARK  status: ('A' for Active; 'I' for Inactive)
REMARK    1  A    between atoms: S1_2  and  C2_3 
REMARK    2  A    between atoms: C5_7  and  C6_8 
REMARK    3  A    between atoms: C7_17  and  C8_18 
REMARK    4  A    between atoms: C8_18  and  O2_21 
REMARK    5  A    between atoms: N7_30  and  C14_31 
REMARK    6  A    between atoms: C14_31  and  C15_32 
REMARK       I    between atoms: N9_35  and  C16_36 
REMARK    7  A    between atoms: C16_36  and  C17_38 
REMARK    8  A    between atoms: C17_38  and  N10_39 
REMARK    9  A    between atoms: C19_47  and  C20_48 
ROOT
HETATM    1  C20 UNL     1      38.837  -1.159 132.505  1.00  0.00     0.184 C 
HETATM    2  C21 UNL     1      38.128  -1.726 131.348  1.00  0.00     0.065 C 
HETATM    3  N15 UNL     1      37.585  -2.172 130.456  1.00  0.00    -0.197 NA
ENDROOT
BRANCH   1   4
HETATM    4  C19 UNL     1      38.106   0.069 132.961  1.00  0.00     0.066 A 
HETATM    5  C15 UNL     1      37.998   0.632 134.195  1.00  0.00     0.071 A 
HETATM    6  N8  UNL     1      37.115   1.683 134.040  1.00  0.00    -0.277 N 
HETATM    7  N9  UNL     1      36.720   1.751 132.794  1.00  0.00    -0.159 N 
ATOM      8  H8  UNL     1      36.815   2.312 134.785  1.00  0.00     0.189 HD
HETATM    9  C16 UNL     1      35.825   2.733 132.294  1.00  0.00     0.277 C 
HETATM   10  N14 UNL     1      37.299   0.789 132.106  1.00  0.00    -0.278 N 
HETATM   11  O3  UNL     1      35.391   3.619 133.053  1.00  0.00    -0.268 OA
ATOM     12  H14 UNL     1      37.172   0.608 131.110  1.00  0.00     0.189 HD
BRANCH   5  13
HETATM   13  C14 UNL     1      38.707   0.314 135.423  1.00  0.00     0.191 C 
BRANCH  13  14
HETATM   14  N7  UNL     1      39.895   1.021 135.752  1.00  0.00    -0.325 N 
HETATM   15  C2  UNL     1      39.981   2.225 136.281  1.00  0.00     0.091 A 
HETATM   16  C3  UNL     1      41.194   2.899 136.536  1.00  0.00     0.093 A 
HETATM   17  C4  UNL     1      41.251   4.165 137.067  1.00  0.00     0.204 A 
HETATM   18  C11 UNL     1      42.345   2.219 136.203  1.00  0.00     0.124 A 
HETATM   19  O1  UNL     1      40.220   4.803 137.369  1.00  0.00    -0.286 OA
HETATM   20  C5  UNL     1      42.506   4.761 137.275  1.00  0.00     0.087 A 
HETATM   21  C7  UNL     1      43.644   4.072 136.942  1.00  0.00     0.063 A 
HETATM   22  N5  UNL     1      43.524   2.815 136.413  1.00  0.00    -0.342 N 
ATOM     23  H5  UNL     1      44.374   2.309 136.168  1.00  0.00     0.167 HD
HETATM   24  N6  UNL     1      42.237   0.998 135.672  1.00  0.00    -0.331 N 
HETATM   25  C12 UNL     1      41.074   0.373 135.432  1.00  0.00     0.082 A 
ATOM     26  H6  UNL     1      43.098   0.507 135.432  1.00  0.00     0.168 HD
HETATM   27  C13 UNL     1      41.120  -0.983 134.833  1.00  0.00     0.089 C 
BRANCH  15  28
HETATM   28  S1  UNL     1      38.544   3.188 136.802  1.00  0.00    -0.115 SA
HETATM   29  C1  UNL     1      37.764   2.417 138.268  1.00  0.00     0.097 C 
ENDBRANCH  15  28
BRANCH  20  30
HETATM   30  C6  UNL     1      42.567   6.119 137.818  1.00  0.00     0.153 A 
HETATM   31  N1  UNL     1      42.545   6.475 139.106  1.00  0.00    -0.268 N 
HETATM   32  N2  UNL     1      42.618   7.790 139.115  1.00  0.00    -0.227 N 
ATOM     33  H1  UNL     1      42.485   5.856 139.915  1.00  0.00     0.190 HD
HETATM   34  N3  UNL     1      42.684   8.256 137.887  1.00  0.00    -0.227 N 
ATOM     35  H2  UNL     1      42.622   8.366 139.956  1.00  0.00     0.210 HD
HETATM   36  N4  UNL     1      42.652   7.221 137.081  1.00  0.00    -0.268 N 
ATOM     37  H3  UNL     1      42.748   9.236 137.613  1.00  0.00     0.210 HD
ATOM     38  H4  UNL     1      42.687   7.257 136.062  1.00  0.00     0.190 HD
ENDBRANCH  20  30
BRANCH  21  39
HETATM   39  C8  UNL     1      44.990   4.635 137.163  1.00  0.00     0.094 C 
HETATM   40  C9  UNL     1      46.065   3.601 137.388  1.00  0.00     0.052 C 
HETATM   41  C10 UNL     1      45.401   5.360 135.864  1.00  0.00     0.052 C 
BRANCH  39  42
HETATM   42  O2  UNL     1      45.035   5.591 138.182  1.00  0.00    -0.384 OA
ATOM     43  H2  UNL     1      45.757   5.467 138.786  1.00  0.00     0.211 HD
ENDBRANCH  39  42
ENDBRANCH  21  39
ENDBRANCH  13  14
ENDBRANCH   5  13
BRANCH   9  44
HETATM   44  C17 UNL     1      35.398   2.720 130.877  1.00  0.00     0.253 C 
BRANCH  44  45
HETATM   45  N10 UNL     1      33.986   2.416 130.788  1.00  0.00    -0.263 N 
HETATM   46  C18 UNL     1      33.029   3.306 130.552  1.00  0.00     0.213 A 
HETATM   47  N11 UNL     1      31.853   2.632 130.554  1.00  0.00    -0.281 N 
HETATM   48  N12 UNL     1      32.144   1.349 130.790  1.00  0.00    -0.008 NA
ATOM     49  H11 UNL     1      30.925   3.027 130.403  1.00  0.00     0.184 HD
HETATM   50  N13 UNL     1      33.458   1.213 130.936  1.00  0.00    -0.005 NA
ENDBRANCH  44  45
ENDBRANCH   9  44
ENDBRANCH   1   4
TORSDOF 9
ENDMDL
MODEL 5
REMARK VINA RESULT: -9.592409709      4.236      5.973
REMARK  9 active torsions:
REMARK  status: ('A' for Active; 'I' for Inactive)
REMARK    1  A    between atoms: S1_2  and  C2_3 
REMARK    2  A    between atoms: C5_7  and  C6_8 
REMARK    3  A    between atoms: C7_17  and  C8_18 
REMARK    4  A    between atoms: C8_18  and  O2_21 
REMARK    5  A    between atoms: N7_30  and  C14_31 
REMARK    6  A    between atoms: C14_31  and  C15_32 
REMARK       I    between atoms: N9_35  and  C16_36 
REMARK    7  A    between atoms: C16_36  and  C17_38 
REMARK    8  A    between atoms: C17_38  and  N10_39 
REMARK    9  A    between atoms: C19_47  and  C20_48 
ROOT
HETATM    1  C20 UNL     1      38.588  -2.652 136.808  1.00  0.00     0.184 C 
HETATM    2  C21 UNL     1      38.266  -3.766 137.711  1.00  0.00     0.065 C 
HETATM    3  N15 UNL     1      38.024  -4.630 138.408  1.00  0.00    -0.197 NA
ENDROOT
BRANCH   1   4
HETATM    4  C19 UNL     1      37.572  -1.566 137.003  1.00  0.00     0.066 A 
HETATM    5  C15 UNL     1      37.486  -0.321 136.460  1.00  0.00     0.071 A 
HETATM    6  N8  UNL     1      36.408   0.276 137.084  1.00  0.00    -0.277 N 
HETATM    7  N9  UNL     1      35.878  -0.556 137.944  1.00  0.00    -0.159 N 
ATOM      8  H8  UNL     1      36.076   1.223 136.902  1.00  0.00     0.189 HD
HETATM    9  C16 UNL     1      34.739  -0.261 138.739  1.00  0.00     0.277 C 
HETATM   10  N14 UNL     1      36.555  -1.685 137.925  1.00  0.00    -0.278 N 
HETATM   11  O3  UNL     1      34.166   0.837 138.616  1.00  0.00    -0.268 OA
ATOM     12  H14 UNL     1      36.359  -2.508 138.495  1.00  0.00     0.189 HD
BRANCH   5  13
HETATM   13  C14 UNL     1      38.259   0.273 135.382  1.00  0.00     0.191 C 
BRANCH  13  14
HETATM   14  N7  UNL     1      39.476   0.945 135.678  1.00  0.00    -0.325 N 
HETATM   15  C2  UNL     1      39.612   2.150 136.195  1.00  0.00     0.091 A 
HETATM   16  C3  UNL     1      40.851   2.787 136.416  1.00  0.00     0.093 A 
HETATM   17  C4  UNL     1      40.961   4.055 136.936  1.00  0.00     0.204 A 
HETATM   18  C11 UNL     1      41.972   2.070 136.060  1.00  0.00     0.124 A 
HETATM   19  O1  UNL     1      39.957   4.727 137.257  1.00  0.00    -0.286 OA
HETATM   20  C5  UNL     1      42.238   4.613 137.108  1.00  0.00     0.087 A 
HETATM   21  C7  UNL     1      43.346   3.887 136.754  1.00  0.00     0.063 A 
HETATM   22  N5  UNL     1      43.174   2.630 136.237  1.00  0.00    -0.342 N 
ATOM     23  H5  UNL     1      44.002   2.096 135.975  1.00  0.00     0.167 HD
HETATM   24  N6  UNL     1      41.814   0.849 135.541  1.00  0.00    -0.331 N 
HETATM   25  C12 UNL     1      40.626   0.259 135.334  1.00  0.00     0.082 A 
ATOM     26  H6  UNL     1      42.653   0.330 135.285  1.00  0.00     0.168 HD
HETATM   27  C13 UNL     1      40.616  -1.102 134.745  1.00  0.00     0.089 C 
BRANCH  15  28
HETATM   28  S1  UNL     1      38.218   3.161 136.743  1.00  0.00    -0.115 SA
HETATM   29  C1  UNL     1      37.817   2.789 138.490  1.00  0.00     0.097 C 
ENDBRANCH  15  28
BRANCH  20  30
HETATM   30  C6  UNL     1      42.354   5.972 137.640  1.00  0.00     0.153 A 
HETATM   31  N1  UNL     1      42.385   6.337 138.925  1.00  0.00    -0.268 N 
HETATM   32  N2  UNL     1      42.494   7.649 138.922  1.00  0.00    -0.227 N 
ATOM     33  H1  UNL     1      42.334   5.725 139.740  1.00  0.00     0.190 HD
HETATM   34  N3  UNL     1      42.532   8.105 137.689  1.00  0.00    -0.227 N 
ATOM     35  H2  UNL     1      42.542   8.230 139.758  1.00  0.00     0.210 HD
HETATM   36  N4  UNL     1      42.445   7.067 136.892  1.00  0.00    -0.268 N 
ATOM     37  H3  UNL     1      42.613   9.082 137.406  1.00  0.00     0.210 HD
ATOM     38  H4  UNL     1      42.447   7.095 135.873  1.00  0.00     0.190 HD
ENDBRANCH  20  30
BRANCH  21  39
HETATM   39  C8  UNL     1      44.714   4.409 136.938  1.00  0.00     0.094 C 
HETATM   40  C9  UNL     1      45.767   3.342 137.107  1.00  0.00     0.052 C 
HETATM   41  C10 UNL     1      45.099   5.148 135.639  1.00  0.00     0.052 C 
BRANCH  39  42
HETATM   42  O2  UNL     1      44.819   5.344 137.972  1.00  0.00    -0.384 OA
ATOM     43  H2  UNL     1      45.697   5.691 138.079  1.00  0.00     0.211 HD
ENDBRANCH  39  42
ENDBRANCH  21  39
ENDBRANCH  13  14
ENDBRANCH   5  13
BRANCH   9  44
HETATM   44  C17 UNL     1      34.220  -1.244 139.717  1.00  0.00     0.253 C 
BRANCH  44  45
HETATM   45  N10 UNL     1      33.107  -1.973 139.144  1.00  0.00    -0.263 N 
HETATM   46  C18 UNL     1      32.155  -2.579 139.844  1.00  0.00     0.213 A 
HETATM   47  N11 UNL     1      31.310  -3.149 138.950  1.00  0.00    -0.281 N 
HETATM   48  N12 UNL     1      31.786  -2.863 137.733  1.00  0.00    -0.008 NA
ATOM     49  H11 UNL     1      30.473  -3.691 139.163  1.00  0.00     0.184 HD
HETATM   50  N13 UNL     1      32.894  -2.139 137.850  1.00  0.00    -0.005 NA
ENDBRANCH  44  45
ENDBRANCH   9  44
ENDBRANCH   1   4
TORSDOF 9
ENDMDL
