MODEL 1
REMARK VINA RESULT: -7.919456005      0.000      0.000
REMARK  14 active torsions:
REMARK  status: ('A' for Active; 'I' for Inactive)
REMARK    1  A    between atoms: O1_2  and  C2_3 
REMARK    2  A    between atoms: C5_7  and  O3_8 
REMARK    3  A    between atoms: O3_8  and  C6_9 
REMARK    4  A    between atoms: C7_10  and  O4_11 
REMARK    5  A    between atoms: C8_13  and  O5_14 
REMARK    6  A    between atoms: C9_16  and  O6_17 
REMARK    7  A    between atoms: C10_19  and  O7_20 
REMARK    8  A    between atoms: O7_20  and  C11_21 
REMARK    9  A    between atoms: C11_21  and  C12_23 
REMARK   10  A    between atoms: N1_27  and  C14_28 
REMARK   11  A    between atoms: N2_30  and  O9_32 
REMARK   12  A    between atoms: C16_34  and  O10_35 
REMARK   13  A    between atoms: C18_37  and  O11_38 
REMARK   14  A    between atoms: O11_38  and  C19_39 
ROOT
HETATM    1  C6  UNL     1      35.643  -1.008 128.278  1.00  0.00     0.187 C 
HETATM    2  C7  UNL     1      34.898  -2.295 128.200  1.00  0.00     0.181 C 
HETATM    3  C8  UNL     1      35.081  -2.926 126.840  1.00  0.00     0.180 C 
HETATM    4  C9  UNL     1      36.498  -2.802 126.345  1.00  0.00     0.181 C 
HETATM    5  C10 UNL     1      37.466  -2.481 127.461  1.00  0.00     0.194 C 
HETATM    6  C16 UNL     1      37.109  -1.271 128.256  1.00  0.00     0.184 C 
ENDROOT
BRANCH   5   7
HETATM    7  O7  UNL     1      38.750  -2.350 126.874  1.00  0.00    -0.308 OA
BRANCH   7   8
HETATM    8  C11 UNL     1      39.882  -2.974 127.420  1.00  0.00     0.293 C 
HETATM    9  O8  UNL     1      40.201  -2.572 128.561  1.00  0.00    -0.262 OA
BRANCH   8  10
HETATM   10  C12 UNL     1      40.640  -4.004 126.742  1.00  0.00     0.259 C 
HETATM   11  S1  UNL     1      40.232  -4.109 124.938  1.00  0.00    -0.060 SA
HETATM   12  S2  UNL     1      40.808  -6.203 124.815  1.00  0.00    -0.075 SA
HETATM   13  C13 UNL     1      41.289  -6.282 126.598  1.00  0.00     0.212 C 
HETATM   14  N1  UNL     1      40.273  -5.344 127.148  1.00  0.00    -0.337 N 
BRANCH  14  15
HETATM   15  C14 UNL     1      39.172  -5.785 127.917  1.00  0.00     0.097 C 
HETATM   16  C15 UNL     1      37.930  -6.204 127.243  1.00  0.00     0.091 C 
HETATM   17  N2  UNL     1      39.272  -5.825 129.190  1.00  0.00    -0.257 N 
ATOM     18  H2  UNL     1      38.472  -6.144 129.737  1.00  0.00     0.195 HD
BRANCH  17  19
HETATM   19  O9  UNL     1      40.413  -5.454 129.847  1.00  0.00    -0.288 OA
ATOM     20  H9  UNL     1      40.395  -5.004 130.684  1.00  0.00     0.244 HD
ENDBRANCH  17  19
ENDBRANCH  14  15
ENDBRANCH   8  10
ENDBRANCH   7   8
ENDBRANCH   5   7
BRANCH   4  21
HETATM   21  O6  UNL     1      36.629  -1.884 125.306  1.00  0.00    -0.390 OA
ATOM     22  H6  UNL     1      37.462  -1.428 125.320  1.00  0.00     0.210 HD
ENDBRANCH   4  21
BRANCH   6  23
HETATM   23  O10 UNL     1      37.848  -0.159 127.842  1.00  0.00    -0.385 OA
HETATM   24  C17 UNL     1      37.064   0.722 127.100  1.00  0.00     0.202 C 
ENDBRANCH   6  23
BRANCH   3  25
HETATM   25  O5  UNL     1      34.258  -2.252 125.940  1.00  0.00    -0.390 OA
ATOM     26  H5  UNL     1      34.784  -1.596 125.499  1.00  0.00     0.210 HD
ENDBRANCH   3  25
BRANCH   1  27
HETATM   27  O3  UNL     1      35.236  -0.200 129.326  1.00  0.00    -0.348 OA
BRANCH  27  28
HETATM   28  C5  UNL     1      36.095  -0.164 130.385  1.00  0.00     0.293 C 
HETATM   29  O2  UNL     1      35.720  -1.060 131.413  1.00  0.00    -0.351 OA
HETATM   30  C3  UNL     1      36.393  -0.656 132.543  1.00  0.00     0.152 C 
HETATM   31  C2  UNL     1      36.619   0.836 132.429  1.00  0.00     0.183 C 
HETATM   32  C4  UNL     1      35.675  -0.954 133.826  1.00  0.00     0.042 C 
HETATM   33  C18 UNL     1      35.906   1.153 131.116  1.00  0.00     0.218 C 
BRANCH  31  34
HETATM   34  O1  UNL     1      37.963   1.051 132.239  1.00  0.00    -0.385 OA
HETATM   35  C1  UNL     1      38.702   0.921 133.415  1.00  0.00     0.202 C 
ENDBRANCH  31  34
BRANCH  33  36
HETATM   36  O11 UNL     1      34.538   1.269 131.415  1.00  0.00    -0.309 OA
BRANCH  36  37
HETATM   37  C19 UNL     1      33.756   2.338 131.007  1.00  0.00     0.255 C 
HETATM   38  C20 UNL     1      34.346   3.679 130.815  1.00  0.00     0.126 C 
HETATM   39  O12 UNL     1      32.527   2.084 130.815  1.00  0.00    -0.266 OA
ENDBRANCH  36  37
ENDBRANCH  33  36
ENDBRANCH  27  28
ENDBRANCH   1  27
BRANCH   2  40
HETATM   40  O4  UNL     1      33.562  -2.079 128.479  1.00  0.00    -0.390 OA
ATOM     41  H4  UNL     1      33.028  -2.387 127.757  1.00  0.00     0.210 HD
ENDBRANCH   2  40
TORSDOF 14
ENDMDL
MODEL 2
REMARK VINA RESULT: -7.667449962      1.412      1.559
REMARK  14 active torsions:
REMARK  status: ('A' for Active; 'I' for Inactive)
REMARK    1  A    between atoms: O1_2  and  C2_3 
REMARK    2  A    between atoms: C5_7  and  O3_8 
REMARK    3  A    between atoms: O3_8  and  C6_9 
REMARK    4  A    between atoms: C7_10  and  O4_11 
REMARK    5  A    between atoms: C8_13  and  O5_14 
REMARK    6  A    between atoms: C9_16  and  O6_17 
REMARK    7  A    between atoms: C10_19  and  O7_20 
REMARK    8  A    between atoms: O7_20  and  C11_21 
REMARK    9  A    between atoms: C11_21  and  C12_23 
REMARK   10  A    between atoms: N1_27  and  C14_28 
REMARK   11  A    between atoms: N2_30  and  O9_32 
REMARK   12  A    between atoms: C16_34  and  O10_35 
REMARK   13  A    between atoms: C18_37  and  O11_38 
REMARK   14  A    between atoms: O11_38  and  C19_39 
ROOT
HETATM    1  C6  UNL     1      35.588  -0.957 128.293  1.00  0.00     0.187 C 
HETATM    2  C7  UNL     1      34.865  -2.258 128.247  1.00  0.00     0.181 C 
HETATM    3  C8  UNL     1      35.028  -2.902 126.890  1.00  0.00     0.180 C 
HETATM    4  C9  UNL     1      36.430  -2.757 126.360  1.00  0.00     0.181 C 
HETATM    5  C10 UNL     1      37.419  -2.405 127.449  1.00  0.00     0.194 C 
HETATM    6  C16 UNL     1      37.058  -1.193 128.239  1.00  0.00     0.184 C 
ENDROOT
BRANCH   5   7
HETATM    7  O7  UNL     1      38.685  -2.257 126.830  1.00  0.00    -0.308 OA
BRANCH   7   8
HETATM    8  C11 UNL     1      39.651  -3.275 126.865  1.00  0.00     0.293 C 
HETATM    9  O8  UNL     1      39.843  -3.852 125.772  1.00  0.00    -0.262 OA
BRANCH   8  10
HETATM   10  C12 UNL     1      40.382  -3.651 128.056  1.00  0.00     0.259 C 
HETATM   11  S1  UNL     1      42.085  -4.271 127.674  1.00  0.00    -0.060 SA
HETATM   12  S2  UNL     1      42.177  -5.474 129.483  1.00  0.00    -0.075 SA
HETATM   13  C13 UNL     1      40.495  -4.946 130.041  1.00  0.00     0.212 C 
HETATM   14  N1  UNL     1      39.843  -4.825 128.711  1.00  0.00    -0.337 N 
BRANCH  14  15
HETATM   15  C14 UNL     1      38.879  -5.752 128.251  1.00  0.00     0.097 C 
HETATM   16  C15 UNL     1      37.495  -5.679 128.752  1.00  0.00     0.091 C 
HETATM   17  N2  UNL     1      39.220  -6.639 127.396  1.00  0.00    -0.257 N 
ATOM     18  H2  UNL     1      38.519  -7.304 127.070  1.00  0.00     0.195 HD
BRANCH  17  19
HETATM   19  O9  UNL     1      40.494  -6.728 126.903  1.00  0.00    -0.288 OA
ATOM     20  H9  UNL     1      41.197  -7.149 127.385  1.00  0.00     0.244 HD
ENDBRANCH  17  19
ENDBRANCH  14  15
ENDBRANCH   8  10
ENDBRANCH   7   8
ENDBRANCH   5   7
BRANCH   4  21
HETATM   21  O6  UNL     1      36.520  -1.848 125.308  1.00  0.00    -0.390 OA
ATOM     22  H6  UNL     1      37.244  -1.241 125.405  1.00  0.00     0.210 HD
ENDBRANCH   4  21
BRANCH   6  23
HETATM   23  O10 UNL     1      37.766  -0.072 127.796  1.00  0.00    -0.385 OA
HETATM   24  C17 UNL     1      38.796   0.255 128.674  1.00  0.00     0.202 C 
ENDBRANCH   6  23
BRANCH   3  25
HETATM   25  O5  UNL     1      34.172  -2.253 126.002  1.00  0.00    -0.390 OA
ATOM     26  H5  UNL     1      33.404  -1.975 126.488  1.00  0.00     0.210 HD
ENDBRANCH   3  25
BRANCH   1  27
HETATM   27  O3  UNL     1      35.190  -0.146 129.341  1.00  0.00    -0.348 OA
BRANCH  27  28
HETATM   28  C5  UNL     1      36.012  -0.176 130.430  1.00  0.00     0.293 C 
HETATM   29  O2  UNL     1      35.565  -1.087 131.417  1.00  0.00    -0.351 OA
HETATM   30  C3  UNL     1      36.214  -0.744 132.580  1.00  0.00     0.152 C 
HETATM   31  C2  UNL     1      36.504   0.740 132.521  1.00  0.00     0.183 C 
HETATM   32  C4  UNL     1      35.440  -1.049 133.829  1.00  0.00     0.042 C 
HETATM   33  C18 UNL     1      35.851   1.125 131.195  1.00  0.00     0.218 C 
BRANCH  31  34
HETATM   34  O1  UNL     1      37.861   0.904 132.383  1.00  0.00    -0.385 OA
HETATM   35  C1  UNL     1      38.549   0.756 133.588  1.00  0.00     0.202 C 
ENDBRANCH  31  34
BRANCH  33  36
HETATM   36  O11 UNL     1      34.479   1.288 131.450  1.00  0.00    -0.309 OA
BRANCH  36  37
HETATM   37  C19 UNL     1      33.748   2.385 131.019  1.00  0.00     0.255 C 
HETATM   38  C20 UNL     1      34.403   3.690 130.791  1.00  0.00     0.126 C 
HETATM   39  O12 UNL     1      32.508   2.187 130.840  1.00  0.00    -0.266 OA
ENDBRANCH  36  37
ENDBRANCH  33  36
ENDBRANCH  27  28
ENDBRANCH   1  27
BRANCH   2  40
HETATM   40  O4  UNL     1      33.532  -2.064 128.555  1.00  0.00    -0.390 OA
ATOM     41  H4  UNL     1      33.323  -2.506 129.369  1.00  0.00     0.210 HD
ENDBRANCH   2  40
TORSDOF 14
ENDMDL
MODEL 3
REMARK VINA RESULT: -7.554850282      2.522      4.298
REMARK  14 active torsions:
REMARK  status: ('A' for Active; 'I' for Inactive)
REMARK    1  A    between atoms: O1_2  and  C2_3 
REMARK    2  A    between atoms: C5_7  and  O3_8 
REMARK    3  A    between atoms: O3_8  and  C6_9 
REMARK    4  A    between atoms: C7_10  and  O4_11 
REMARK    5  A    between atoms: C8_13  and  O5_14 
REMARK    6  A    between atoms: C9_16  and  O6_17 
REMARK    7  A    between atoms: C10_19  and  O7_20 
REMARK    8  A    between atoms: O7_20  and  C11_21 
REMARK    9  A    between atoms: C11_21  and  C12_23 
REMARK   10  A    between atoms: N1_27  and  C14_28 
REMARK   11  A    between atoms: N2_30  and  O9_32 
REMARK   12  A    between atoms: C16_34  and  O10_35 
REMARK   13  A    between atoms: C18_37  and  O11_38 
REMARK   14  A    between atoms: O11_38  and  C19_39 
ROOT
HETATM    1  C6  UNL     1      36.796  -0.449 131.904  1.00  0.00     0.187 C 
HETATM    2  C7  UNL     1      35.451  -0.821 131.382  1.00  0.00     0.181 C 
HETATM    3  C8  UNL     1      35.463  -0.842 129.871  1.00  0.00     0.180 C 
HETATM    4  C9  UNL     1      36.723  -1.460 129.324  1.00  0.00     0.181 C 
HETATM    5  C10 UNL     1      37.455  -2.280 130.363  1.00  0.00     0.194 C 
HETATM    6  C16 UNL     1      37.768  -1.541 131.620  1.00  0.00     0.184 C 
ENDROOT
BRANCH   5   7
HETATM    7  O7  UNL     1      38.633  -2.774 129.749  1.00  0.00    -0.308 OA
BRANCH   7   8
HETATM    8  C11 UNL     1      38.827  -4.143 129.512  1.00  0.00     0.293 C 
HETATM    9  O8  UNL     1      38.458  -4.893 130.443  1.00  0.00    -0.262 OA
BRANCH   8  10
HETATM   10  C12 UNL     1      39.405  -4.676 128.297  1.00  0.00     0.259 C 
HETATM   11  S1  UNL     1      39.859  -3.348 127.088  1.00  0.00    -0.060 SA
HETATM   12  S2  UNL     1      39.669  -4.680 125.380  1.00  0.00    -0.075 SA
HETATM   13  C13 UNL     1      39.222  -6.132 126.433  1.00  0.00     0.212 C 
HETATM   14  N1  UNL     1      38.459  -5.419 127.491  1.00  0.00    -0.337 N 
BRANCH  14  15
HETATM   15  C14 UNL     1      37.052  -5.507 127.603  1.00  0.00     0.097 C 
HETATM   16  C15 UNL     1      36.198  -4.573 126.849  1.00  0.00     0.091 C 
HETATM   17  N2  UNL     1      36.538  -6.406 128.352  1.00  0.00    -0.257 N 
ATOM     18  H2  UNL     1      35.523  -6.463 128.426  1.00  0.00     0.195 HD
BRANCH  17  19
HETATM   19  O9  UNL     1      37.302  -7.296 129.057  1.00  0.00    -0.288 OA
ATOM     20  H9  UNL     1      37.169  -8.235 129.003  1.00  0.00     0.244 HD
ENDBRANCH  17  19
ENDBRANCH  14  15
ENDBRANCH   8  10
ENDBRANCH   7   8
ENDBRANCH   5   7
BRANCH   4  21
HETATM   21  O6  UNL     1      37.579  -0.523 128.750  1.00  0.00    -0.390 OA
ATOM     22  H6  UNL     1      38.496  -0.745 128.860  1.00  0.00     0.210 HD
ENDBRANCH   4  21
BRANCH   6  23
HETATM   23  O10 UNL     1      39.093  -1.096 131.627  1.00  0.00    -0.385 OA
HETATM   24  C17 UNL     1      39.819  -1.685 132.658  1.00  0.00     0.202 C 
ENDBRANCH   6  23
BRANCH   3  25
HETATM   25  O5  UNL     1      35.410   0.476 129.424  1.00  0.00    -0.390 OA
ATOM     26  H5  UNL     1      35.593   0.476 128.492  1.00  0.00     0.210 HD
ENDBRANCH   3  25
BRANCH   1  27
HETATM   27  O3  UNL     1      36.777  -0.049 133.229  1.00  0.00    -0.348 OA
BRANCH  27  28
HETATM   28  C5  UNL     1      36.348  -1.001 134.108  1.00  0.00     0.293 C 
HETATM   29  O2  UNL     1      35.146  -0.632 134.756  1.00  0.00    -0.351 OA
HETATM   30  C3  UNL     1      35.039  -1.444 135.861  1.00  0.00     0.152 C 
HETATM   31  C2  UNL     1      36.441  -1.811 136.296  1.00  0.00     0.183 C 
HETATM   32  C4  UNL     1      34.308  -0.821 137.014  1.00  0.00     0.042 C 
HETATM   33  C18 UNL     1      37.285  -1.017 135.301  1.00  0.00     0.218 C 
BRANCH  31  34
HETATM   34  O1  UNL     1      36.633  -3.147 136.035  1.00  0.00    -0.385 OA
HETATM   35  C1  UNL     1      37.907  -3.588 136.390  1.00  0.00     0.202 C 
ENDBRANCH  31  34
BRANCH  33  36
HETATM   36  O11 UNL     1      37.356   0.299 135.789  1.00  0.00    -0.309 OA
BRANCH  36  37
HETATM   37  C19 UNL     1      38.529   0.882 136.245  1.00  0.00     0.255 C 
HETATM   38  C20 UNL     1      38.497   1.974 137.239  1.00  0.00     0.126 C 
HETATM   39  O12 UNL     1      39.604   0.417 135.756  1.00  0.00    -0.266 OA
ENDBRANCH  36  37
ENDBRANCH  33  36
ENDBRANCH  27  28
ENDBRANCH   1  27
BRANCH   2  40
HETATM   40  O4  UNL     1      34.502   0.058 131.866  1.00  0.00    -0.390 OA
ATOM     41  H4  UNL     1      33.741  -0.423 132.168  1.00  0.00     0.210 HD
ENDBRANCH   2  40
TORSDOF 14
ENDMDL
MODEL 4
REMARK VINA RESULT: -7.500182369      1.479      2.280
REMARK  14 active torsions:
REMARK  status: ('A' for Active; 'I' for Inactive)
REMARK    1  A    between atoms: O1_2  and  C2_3 
REMARK    2  A    between atoms: C5_7  and  O3_8 
REMARK    3  A    between atoms: O3_8  and  C6_9 
REMARK    4  A    between atoms: C7_10  and  O4_11 
REMARK    5  A    between atoms: C8_13  and  O5_14 
REMARK    6  A    between atoms: C9_16  and  O6_17 
REMARK    7  A    between atoms: C10_19  and  O7_20 
REMARK    8  A    between atoms: O7_20  and  C11_21 
REMARK    9  A    between atoms: C11_21  and  C12_23 
REMARK   10  A    between atoms: N1_27  and  C14_28 
REMARK   11  A    between atoms: N2_30  and  O9_32 
REMARK   12  A    between atoms: C16_34  and  O10_35 
REMARK   13  A    between atoms: C18_37  and  O11_38 
REMARK   14  A    between atoms: O11_38  and  C19_39 
ROOT
HETATM    1  C6  UNL     1      35.477  -0.896 128.431  1.00  0.00     0.187 C 
HETATM    2  C7  UNL     1      34.831  -2.218 128.203  1.00  0.00     0.181 C 
HETATM    3  C8  UNL     1      35.076  -2.685 126.787  1.00  0.00     0.180 C 
HETATM    4  C9  UNL     1      36.485  -2.404 126.335  1.00  0.00     0.181 C 
HETATM    5  C10 UNL     1      37.415  -2.134 127.497  1.00  0.00     0.194 C 
HETATM    6  C16 UNL     1      36.959  -1.046 128.409  1.00  0.00     0.184 C 
ENDROOT
BRANCH   5   7
HETATM    7  O7  UNL     1      38.690  -1.847 126.951  1.00  0.00    -0.308 OA
BRANCH   7   8
HETATM    8  C11 UNL     1      39.815  -2.634 127.241  1.00  0.00     0.293 C 
HETATM    9  O8  UNL     1      40.651  -2.094 128.000  1.00  0.00    -0.262 OA
BRANCH   8  10
HETATM   10  C12 UNL     1      40.021  -3.968 126.718  1.00  0.00     0.259 C 
HETATM   11  S1  UNL     1      41.508  -4.793 127.453  1.00  0.00    -0.060 SA
HETATM   12  S2  UNL     1      41.793  -6.076 125.720  1.00  0.00    -0.075 SA
HETATM   13  C13 UNL     1      40.321  -5.387 124.840  1.00  0.00     0.212 C 
HETATM   14  N1  UNL     1      40.406  -3.983 125.323  1.00  0.00    -0.337 N 
BRANCH  14  15
HETATM   15  C14 UNL     1      40.811  -2.916 124.487  1.00  0.00     0.097 C 
HETATM   16  C15 UNL     1      41.960  -2.080 124.874  1.00  0.00     0.091 C 
HETATM   17  N2  UNL     1      40.178  -2.698 123.399  1.00  0.00    -0.257 N 
ATOM     18  H2  UNL     1      40.477  -1.926 122.802  1.00  0.00     0.195 HD
BRANCH  17  19
HETATM   19  O9  UNL     1      39.114  -3.462 123.005  1.00  0.00    -0.288 OA
ATOM     20  H9  UNL     1      39.185  -4.399 122.864  1.00  0.00     0.244 HD
ENDBRANCH  17  19
ENDBRANCH  14  15
ENDBRANCH   8  10
ENDBRANCH   7   8
ENDBRANCH   5   7
BRANCH   4  21
HETATM   21  O6  UNL     1      36.558  -1.372 125.402  1.00  0.00    -0.390 OA
ATOM     22  H6  UNL     1      36.954  -0.584 125.754  1.00  0.00     0.210 HD
ENDBRANCH   4  21
BRANCH   6  23
HETATM   23  O10 UNL     1      37.616   0.155 128.130  1.00  0.00    -0.385 OA
HETATM   24  C17 UNL     1      36.775   1.052 127.477  1.00  0.00     0.202 C 
ENDBRANCH   6  23
BRANCH   3  25
HETATM   25  O5  UNL     1      34.214  -1.980 125.949  1.00  0.00    -0.390 OA
ATOM     26  H5  UNL     1      33.698  -1.393 126.488  1.00  0.00     0.210 HD
ENDBRANCH   3  25
BRANCH   1  27
HETATM   27  O3  UNL     1      34.999  -0.238 129.552  1.00  0.00    -0.348 OA
BRANCH  27  28
HETATM   28  C5  UNL     1      35.842  -0.251 130.625  1.00  0.00     0.293 C 
HETATM   29  O2  UNL     1      35.371  -1.082 131.668  1.00  0.00    -0.351 OA
HETATM   30  C3  UNL     1      36.062  -0.711 132.798  1.00  0.00     0.152 C 
HETATM   31  C2  UNL     1      36.425   0.751 132.651  1.00  0.00     0.183 C 
HETATM   32  C4  UNL     1      35.301  -0.908 134.077  1.00  0.00     0.042 C 
HETATM   33  C18 UNL     1      35.763   1.096 131.319  1.00  0.00     0.218 C 
BRANCH  31  34
HETATM   34  O1  UNL     1      37.785   0.838 132.479  1.00  0.00    -0.385 OA
HETATM   35  C1  UNL     1      38.153   1.839 131.580  1.00  0.00     0.202 C 
ENDBRANCH  31  34
BRANCH  33  36
HETATM   36  O11 UNL     1      34.407   1.343 131.591  1.00  0.00    -0.309 OA
BRANCH  36  37
HETATM   37  C19 UNL     1      33.707   2.419 131.066  1.00  0.00     0.255 C 
HETATM   38  C20 UNL     1      34.363   3.729 130.874  1.00  0.00     0.126 C 
HETATM   39  O12 UNL     1      32.493   2.198 130.770  1.00  0.00    -0.266 OA
ENDBRANCH  36  37
ENDBRANCH  33  36
ENDBRANCH  27  28
ENDBRANCH   1  27
BRANCH   2  40
HETATM   40  O4  UNL     1      33.480  -2.132 128.479  1.00  0.00    -0.390 OA
ATOM     41  H4  UNL     1      33.160  -2.973 128.785  1.00  0.00     0.210 HD
ENDBRANCH   2  40
TORSDOF 14
ENDMDL
MODEL 5
REMARK VINA RESULT: -7.496962471      4.580      8.710
REMARK  14 active torsions:
REMARK  status: ('A' for Active; 'I' for Inactive)
REMARK    1  A    between atoms: O1_2  and  C2_3 
REMARK    2  A    between atoms: C5_7  and  O3_8 
REMARK    3  A    between atoms: O3_8  and  C6_9 
REMARK    4  A    between atoms: C7_10  and  O4_11 
REMARK    5  A    between atoms: C8_13  and  O5_14 
REMARK    6  A    between atoms: C9_16  and  O6_17 
REMARK    7  A    between atoms: C10_19  and  O7_20 
REMARK    8  A    between atoms: O7_20  and  C11_21 
REMARK    9  A    between atoms: C11_21  and  C12_23 
REMARK   10  A    between atoms: N1_27  and  C14_28 
REMARK   11  A    between atoms: N2_30  and  O9_32 
REMARK   12  A    between atoms: C16_34  and  O10_35 
REMARK   13  A    between atoms: C18_37  and  O11_38 
REMARK   14  A    between atoms: O11_38  and  C19_39 
ROOT
HETATM    1  C6  UNL     1      39.622  -4.397 130.936  1.00  0.00     0.187 C 
HETATM    2  C7  UNL     1      38.589  -5.387 131.349  1.00  0.00     0.181 C 
HETATM    3  C8  UNL     1      38.358  -5.313 132.840  1.00  0.00     0.180 C 
HETATM    4  C9  UNL     1      38.337  -3.893 133.340  1.00  0.00     0.181 C 
HETATM    5  C10 UNL     1      38.119  -2.898 132.222  1.00  0.00     0.194 C 
HETATM    6  C16 UNL     1      39.090  -3.015 131.097  1.00  0.00     0.184 C 
ENDROOT
BRANCH   5   7
HETATM    7  O7  UNL     1      38.158  -1.605 132.802  1.00  0.00    -0.308 OA
BRANCH   7   8
HETATM    8  C11 UNL     1      36.991  -0.942 133.213  1.00  0.00     0.293 C 
HETATM    9  O8  UNL     1      35.948  -1.304 132.624  1.00  0.00    -0.262 OA
BRANCH   8  10
HETATM   10  C12 UNL     1      36.964   0.083 134.235  1.00  0.00     0.259 C 
HETATM   11  S1  UNL     1      38.663   0.577 134.785  1.00  0.00    -0.060 SA
HETATM   12  S2  UNL     1      37.965   1.218 136.743  1.00  0.00    -0.075 SA
HETATM   13  C13 UNL     1      36.204   0.805 136.363  1.00  0.00     0.212 C 
HETATM   14  N1  UNL     1      36.431  -0.383 135.498  1.00  0.00    -0.337 N 
BRANCH  14  15
HETATM   15  C14 UNL     1      36.150  -1.700 135.929  1.00  0.00     0.097 C 
HETATM   16  C15 UNL     1      37.171  -2.460 136.670  1.00  0.00     0.091 C 
HETATM   17  N2  UNL     1      35.006  -2.211 135.677  1.00  0.00    -0.257 N 
ATOM     18  H2  UNL     1      34.812  -3.162 135.991  1.00  0.00     0.195 HD
BRANCH  17  19
HETATM   19  O9  UNL     1      34.032  -1.528 135.000  1.00  0.00    -0.288 OA
ATOM     20  H9  UNL     1      33.149  -1.866 134.903  1.00  0.00     0.244 HD
ENDBRANCH  17  19
ENDBRANCH  14  15
ENDBRANCH   8  10
ENDBRANCH   7   8
ENDBRANCH   5   7
BRANCH   4  21
HETATM   21  O6  UNL     1      39.473  -3.561 134.074  1.00  0.00    -0.390 OA
ATOM     22  H6  UNL     1      39.307  -2.893 134.729  1.00  0.00     0.210 HD
ENDBRANCH   4  21
BRANCH   6  23
HETATM   23  O10 UNL     1      40.105  -2.059 131.203  1.00  0.00    -0.385 OA
HETATM   24  C17 UNL     1      40.092  -1.185 130.119  1.00  0.00     0.202 C 
ENDBRANCH   6  23
BRANCH   3  25
HETATM   25  O5  UNL     1      39.415  -5.967 133.471  1.00  0.00    -0.390 OA
ATOM     26  H5  UNL     1      39.172  -6.879 133.577  1.00  0.00     0.210 HD
ENDBRANCH   3  25
BRANCH   1  27
HETATM   27  O3  UNL     1      40.153  -4.649 129.682  1.00  0.00    -0.348 OA
BRANCH  27  28
HETATM   28  C5  UNL     1      39.283  -4.467 128.647  1.00  0.00     0.293 C 
HETATM   29  O2  UNL     1      38.905  -5.687 128.040  1.00  0.00    -0.351 OA
HETATM   30  C3  UNL     1      38.378  -5.360 126.812  1.00  0.00     0.152 C 
HETATM   31  C2  UNL     1      39.040  -4.078 126.357  1.00  0.00     0.183 C 
HETATM   32  C4  UNL     1      38.564  -6.415 125.762  1.00  0.00     0.042 C 
HETATM   33  C18 UNL     1      40.032  -3.830 127.491  1.00  0.00     0.218 C 
BRANCH  31  34
HETATM   34  O1  UNL     1      38.100  -3.075 126.396  1.00  0.00    -0.385 OA
HETATM   35  C1  UNL     1      38.025  -2.360 125.201  1.00  0.00     0.202 C 
ENDBRANCH  31  34
BRANCH  33  36
HETATM   36  O11 UNL     1      41.155  -4.634 127.232  1.00  0.00    -0.309 OA
BRANCH  36  37
HETATM   37  C19 UNL     1      42.433  -4.128 127.058  1.00  0.00     0.255 C 
HETATM   38  C20 UNL     1      43.578  -4.686 127.806  1.00  0.00     0.126 C 
HETATM   39  O12 UNL     1      42.542  -3.173 126.229  1.00  0.00    -0.266 OA
ENDBRANCH  36  37
ENDBRANCH  33  36
ENDBRANCH  27  28
ENDBRANCH   1  27
BRANCH   2  40
HETATM   40  O4  UNL     1      38.975  -6.655 130.962  1.00  0.00    -0.390 OA
ATOM     41  H4  UNL     1      38.271  -7.073 130.480  1.00  0.00     0.210 HD
ENDBRANCH   2  40
TORSDOF 14
ENDMDL
