MODEL 1
REMARK VINA RESULT: -9.989921489      0.000      0.000
REMARK  10 active torsions:
REMARK  status: ('A' for Active; 'I' for Inactive)
REMARK    1  A    between atoms: C1_2  and  C2_4 
REMARK    2  A    between atoms: C2_4  and  C3_5 
REMARK    3  A    between atoms: C3_5  and  C4_6 
REMARK    4  A    between atoms: C4_6  and  C5_7 
REMARK    5  A    between atoms: C13_16  and  C14_17 
REMARK    6  A    between atoms: C14_17  and  C15_18 
REMARK    7  A    between atoms: C15_18  and  N2_19 
REMARK    8  A    between atoms: N2_19  and  C16_21 
REMARK    9  A    between atoms: C20_25  and  C21_26 
REMARK   10  A    between atoms: C21_26  and  C22_27 
ROOT
HETATM    1  C5  UNL     1      10.893  -8.850  23.563  1.00  0.00     0.190 C 
HETATM    2  C6  UNL     1       9.943 -10.002  23.348  1.00  0.00     0.033 C 
HETATM    3  C7  UNL     1       8.889  -9.652  22.310  1.00  0.00     0.004 C 
HETATM    4  C8  UNL     1       9.484  -8.995  21.107  1.00  0.00     0.028 C 
HETATM    5  C9  UNL     1      10.707  -8.184  21.330  1.00  0.00     0.238 C 
HETATM    6  N1  UNL     1      11.627  -8.689  22.323  1.00  0.00    -0.063 N 
HETATM    7  C10 UNL     1      12.697  -7.724  22.423  1.00  0.00     0.238 C 
HETATM    8  C11 UNL     1      13.793  -8.100  23.340  1.00  0.00     0.028 C 
HETATM    9  C12 UNL     1      14.568  -9.301  23.054  1.00  0.00     0.006 C 
HETATM   10  C13 UNL     1      14.641  -9.774  21.654  1.00  0.00    -0.011 C 
HETATM   11  C28 UNL     1      13.326  -9.853  20.946  1.00  0.00     0.032 C 
HETATM   12  C29 UNL     1      12.160  -9.970  21.911  1.00  0.00     0.238 C 
ENDROOT
BRANCH  10  13
HETATM   13  C14 UNL     1      15.697  -9.016  20.836  1.00  0.00     0.024 C 
BRANCH  13  14
HETATM   14  C15 UNL     1      16.831  -9.976  20.473  1.00  0.00     0.114 C 
BRANCH  14  15
HETATM   15  N2  UNL     1      16.274 -11.046  19.725  1.00  0.00    -0.417 N 
ATOM     16  H2  UNL     1      15.305 -11.338  19.848  1.00  0.00     0.153 HD
BRANCH  15  17
HETATM   17  C16 UNL     1      17.137 -11.689  18.796  1.00  0.00     0.080 C 
HETATM   18  C17 UNL     1      18.571 -11.226  18.873  1.00  0.00     0.025 C 
HETATM   19  C18 UNL     1      19.330 -12.309  19.604  1.00  0.00     0.002 C 
HETATM   20  C19 UNL     1      18.449 -13.521  19.652  1.00  0.00     0.007 C 
HETATM   21  C20 UNL     1      17.180 -13.202  18.929  1.00  0.00     0.008 C 
BRANCH  21  22
HETATM   22  C21 UNL     1      17.076 -13.780  17.561  1.00  0.00     0.011 C 
BRANCH  22  23
HETATM   23  C22 UNL     1      16.036 -13.198  16.680  1.00  0.00    -0.014 C 
HETATM   24  C23 UNL     1      15.023 -14.319  16.392  1.00  0.00     0.005 C 
HETATM   25  C24 UNL     1      13.828 -13.612  15.760  1.00  0.00     0.000 C 
HETATM   26  C25 UNL     1      14.265 -13.191  14.372  1.00  0.00     0.000 C 
HETATM   27  C26 UNL     1      15.761 -13.303  14.183  1.00  0.00     0.000 C 
HETATM   28  C27 UNL     1      16.548 -12.752  15.334  1.00  0.00     0.005 C 
ENDBRANCH  22  23
ENDBRANCH  21  22
ENDBRANCH  15  17
ENDBRANCH  14  15
ENDBRANCH  13  14
ENDBRANCH  10  13
BRANCH   1  29
HETATM   29  C4  UNL     1      10.127  -7.658  23.977  1.00  0.00     0.034 C 
BRANCH  29  30
HETATM   30  C3  UNL     1      10.356  -7.351  25.437  1.00  0.00     0.012 C 
BRANCH  30  31
HETATM   31  C2  UNL     1       9.083  -7.840  26.159  1.00  0.00     0.113 C 
BRANCH  31  32
HETATM   32  C1  UNL     1       9.439  -8.853  27.180  1.00  0.00     0.172 C 
HETATM   33  O1  UNL     1       9.262  -8.678  28.397  1.00  0.00    -0.648 OA
HETATM   34  O2  UNL     1       9.996 -10.052  26.757  1.00  0.00    -0.648 OA
ENDBRANCH  31  32
ENDBRANCH  30  31
ENDBRANCH  29  30
ENDBRANCH   1  29
TORSDOF 10
ENDMDL
MODEL 2
REMARK VINA RESULT: -9.925618146      0.445      1.085
REMARK  10 active torsions:
REMARK  status: ('A' for Active; 'I' for Inactive)
REMARK    1  A    between atoms: C1_2  and  C2_4 
REMARK    2  A    between atoms: C2_4  and  C3_5 
REMARK    3  A    between atoms: C3_5  and  C4_6 
REMARK    4  A    between atoms: C4_6  and  C5_7 
REMARK    5  A    between atoms: C13_16  and  C14_17 
REMARK    6  A    between atoms: C14_17  and  C15_18 
REMARK    7  A    between atoms: C15_18  and  N2_19 
REMARK    8  A    between atoms: N2_19  and  C16_21 
REMARK    9  A    between atoms: C20_25  and  C21_26 
REMARK   10  A    between atoms: C21_26  and  C22_27 
ROOT
HETATM    1  C5  UNL     1      10.927  -8.848  23.562  1.00  0.00     0.190 C 
HETATM    2  C6  UNL     1      10.009 -10.019  23.310  1.00  0.00     0.033 C 
HETATM    3  C7  UNL     1       8.970  -9.678  22.255  1.00  0.00     0.004 C 
HETATM    4  C8  UNL     1       9.574  -8.989  21.074  1.00  0.00     0.028 C 
HETATM    5  C9  UNL     1      10.771  -8.153  21.335  1.00  0.00     0.238 C 
HETATM    6  N1  UNL     1      11.682  -8.651  22.340  1.00  0.00    -0.063 N 
HETATM    7  C10 UNL     1      12.727  -7.663  22.478  1.00  0.00     0.238 C 
HETATM    8  C11 UNL     1      13.813  -8.028  23.412  1.00  0.00     0.028 C 
HETATM    9  C12 UNL     1      14.621  -9.205  23.125  1.00  0.00     0.006 C 
HETATM   10  C13 UNL     1      14.735  -9.655  21.720  1.00  0.00    -0.011 C 
HETATM   11  C28 UNL     1      13.437  -9.754  20.983  1.00  0.00     0.032 C 
HETATM   12  C29 UNL     1      12.255  -9.913  21.921  1.00  0.00     0.238 C 
ENDROOT
BRANCH  10  13
HETATM   13  C14 UNL     1      15.790  -8.859  20.936  1.00  0.00     0.024 C 
BRANCH  13  14
HETATM   14  C15 UNL     1      16.998  -9.759  20.672  1.00  0.00     0.114 C 
BRANCH  14  15
HETATM   15  N2  UNL     1      16.608 -10.749  19.734  1.00  0.00    -0.417 N 
ATOM     16  H2  UNL     1      15.645 -11.080  19.672  1.00  0.00     0.153 HD
BRANCH  15  17
HETATM   17  C16 UNL     1      17.629 -11.259  18.885  1.00  0.00     0.080 C 
HETATM   18  C17 UNL     1      19.019 -11.127  19.456  1.00  0.00     0.025 C 
HETATM   19  C18 UNL     1      19.407 -12.501  19.954  1.00  0.00     0.002 C 
HETATM   20  C19 UNL     1      18.423 -13.479  19.386  1.00  0.00     0.007 C 
HETATM   21  C20 UNL     1      17.464 -12.725  18.522  1.00  0.00     0.008 C 
BRANCH  21  22
HETATM   22  C21 UNL     1      17.701 -12.858  17.058  1.00  0.00     0.011 C 
BRANCH  22  23
HETATM   23  C22 UNL     1      16.622 -13.504  16.274  1.00  0.00    -0.014 C 
HETATM   24  C23 UNL     1      16.316 -12.571  15.091  1.00  0.00     0.005 C 
HETATM   25  C24 UNL     1      15.447 -13.402  14.152  1.00  0.00     0.000 C 
HETATM   26  C25 UNL     1      14.098 -13.540  14.829  1.00  0.00     0.000 C 
HETATM   27  C26 UNL     1      14.138 -13.118  16.281  1.00  0.00     0.000 C 
HETATM   28  C27 UNL     1      15.323 -13.657  17.023  1.00  0.00     0.005 C 
ENDBRANCH  22  23
ENDBRANCH  21  22
ENDBRANCH  15  17
ENDBRANCH  14  15
ENDBRANCH  13  14
ENDBRANCH  10  13
BRANCH   1  29
HETATM   29  C4  UNL     1      10.124  -7.682  23.977  1.00  0.00     0.034 C 
BRANCH  29  30
HETATM   30  C3  UNL     1      10.307  -7.398  25.449  1.00  0.00     0.012 C 
BRANCH  30  31
HETATM   31  C2  UNL     1       9.037  -7.951  26.130  1.00  0.00     0.113 C 
BRANCH  31  32
HETATM   32  C1  UNL     1       9.405  -9.016  27.093  1.00  0.00     0.172 C 
HETATM   33  O1  UNL     1       9.936 -10.085  26.749  1.00  0.00    -0.648 OA
HETATM   34  O2  UNL     1       9.142  -8.810  28.440  1.00  0.00    -0.648 OA
ENDBRANCH  31  32
ENDBRANCH  30  31
ENDBRANCH  29  30
ENDBRANCH   1  29
TORSDOF 10
ENDMDL
MODEL 3
REMARK VINA RESULT: -9.569481763      2.211      2.562
REMARK  10 active torsions:
REMARK  status: ('A' for Active; 'I' for Inactive)
REMARK    1  A    between atoms: C1_2  and  C2_4 
REMARK    2  A    between atoms: C2_4  and  C3_5 
REMARK    3  A    between atoms: C3_5  and  C4_6 
REMARK    4  A    between atoms: C4_6  and  C5_7 
REMARK    5  A    between atoms: C13_16  and  C14_17 
REMARK    6  A    between atoms: C14_17  and  C15_18 
REMARK    7  A    between atoms: C15_18  and  N2_19 
REMARK    8  A    between atoms: N2_19  and  C16_21 
REMARK    9  A    between atoms: C20_25  and  C21_26 
REMARK   10  A    between atoms: C21_26  and  C22_27 
ROOT
HETATM    1  C5  UNL     1      11.252  -7.941  23.941  1.00  0.00     0.190 C 
HETATM    2  C6  UNL     1      10.300  -9.107  24.042  1.00  0.00     0.033 C 
HETATM    3  C7  UNL     1       9.224  -9.025  22.972  1.00  0.00     0.004 C 
HETATM    4  C8  UNL     1       9.792  -8.694  21.630  1.00  0.00     0.028 C 
HETATM    5  C9  UNL     1      11.017  -7.857  21.617  1.00  0.00     0.238 C 
HETATM    6  N1  UNL     1      11.959  -8.099  22.685  1.00  0.00    -0.063 N 
HETATM    7  C10 UNL     1      13.029  -7.143  22.518  1.00  0.00     0.238 C 
HETATM    8  C11 UNL     1      14.146  -7.281  23.476  1.00  0.00     0.028 C 
HETATM    9  C12 UNL     1      14.916  -8.518  23.484  1.00  0.00     0.006 C 
HETATM   10  C13 UNL     1      14.961  -9.327  22.246  1.00  0.00    -0.011 C 
HETATM   11  C28 UNL     1      13.631  -9.577  21.609  1.00  0.00     0.032 C 
HETATM   12  C29 UNL     1      12.487  -9.444  22.597  1.00  0.00     0.238 C 
ENDROOT
BRANCH  10  13
HETATM   13  C14 UNL     1      15.998  -8.802  21.242  1.00  0.00     0.024 C 
BRANCH  13  14
HETATM   14  C15 UNL     1      17.044  -9.889  20.991  1.00  0.00     0.114 C 
BRANCH  14  15
HETATM   15  N2  UNL     1      16.569 -10.718  19.942  1.00  0.00    -0.417 N 
ATOM     16  H2  UNL     1      15.578 -10.942  19.842  1.00  0.00     0.153 HD
BRANCH  15  17
HETATM   17  C16 UNL     1      17.543 -11.219  19.036  1.00  0.00     0.080 C 
HETATM   18  C17 UNL     1      18.940 -11.261  19.605  1.00  0.00     0.025 C 
HETATM   19  C18 UNL     1      19.213 -12.706  19.956  1.00  0.00     0.002 C 
HETATM   20  C19 UNL     1      18.151 -13.536  19.301  1.00  0.00     0.007 C 
HETATM   21  C20 UNL     1      17.258 -12.622  18.526  1.00  0.00     0.008 C 
BRANCH  21  22
HETATM   22  C21 UNL     1      17.482 -12.623  17.054  1.00  0.00     0.011 C 
BRANCH  22  23
HETATM   23  C22 UNL     1      16.491 -13.364  16.240  1.00  0.00    -0.014 C 
HETATM   24  C23 UNL     1      16.248 -12.528  14.972  1.00  0.00     0.005 C 
HETATM   25  C24 UNL     1      15.483 -13.455  14.033  1.00  0.00     0.000 C 
HETATM   26  C25 UNL     1      14.091 -13.597  14.613  1.00  0.00     0.000 C 
HETATM   27  C26 UNL     1      14.002 -13.074  16.029  1.00  0.00     0.000 C 
HETATM   28  C27 UNL     1      15.142 -13.514  16.897  1.00  0.00     0.005 C 
ENDBRANCH  22  23
ENDBRANCH  21  22
ENDBRANCH  15  17
ENDBRANCH  14  15
ENDBRANCH  13  14
ENDBRANCH  10  13
BRANCH   1  29
HETATM   29  C4  UNL     1      10.492  -6.681  24.059  1.00  0.00     0.034 C 
BRANCH  29  30
HETATM   30  C3  UNL     1      11.036  -5.827  25.179  1.00  0.00     0.012 C 
BRANCH  30  31
HETATM   31  C2  UNL     1      10.564  -4.392  24.861  1.00  0.00     0.113 C 
BRANCH  31  32
HETATM   32  C1  UNL     1      11.371  -3.830  23.753  1.00  0.00     0.172 C 
HETATM   33  O1  UNL     1      10.866  -3.326  22.736  1.00  0.00    -0.648 OA
HETATM   34  O2  UNL     1      12.755  -3.867  23.856  1.00  0.00    -0.648 OA
ENDBRANCH  31  32
ENDBRANCH  30  31
ENDBRANCH  29  30
ENDBRANCH   1  29
TORSDOF 10
ENDMDL
MODEL 4
REMARK VINA RESULT: -9.497448934      4.644      9.270
REMARK  10 active torsions:
REMARK  status: ('A' for Active; 'I' for Inactive)
REMARK    1  A    between atoms: C1_2  and  C2_4 
REMARK    2  A    between atoms: C2_4  and  C3_5 
REMARK    3  A    between atoms: C3_5  and  C4_6 
REMARK    4  A    between atoms: C4_6  and  C5_7 
REMARK    5  A    between atoms: C13_16  and  C14_17 
REMARK    6  A    between atoms: C14_17  and  C15_18 
REMARK    7  A    between atoms: C15_18  and  N2_19 
REMARK    8  A    between atoms: N2_19  and  C16_21 
REMARK    9  A    between atoms: C20_25  and  C21_26 
REMARK   10  A    between atoms: C21_26  and  C22_27 
ROOT
HETATM    1  C5  UNL     1      17.106 -12.901  17.498  1.00  0.00     0.190 C 
HETATM    2  C6  UNL     1      16.134 -11.934  16.870  1.00  0.00     0.033 C 
HETATM    3  C7  UNL     1      14.775 -12.012  17.544  1.00  0.00     0.004 C 
HETATM    4  C8  UNL     1      14.888 -12.029  19.034  1.00  0.00     0.028 C 
HETATM    5  C9  UNL     1      16.113 -12.647  19.599  1.00  0.00     0.238 C 
HETATM    6  N1  UNL     1      17.331 -12.433  18.852  1.00  0.00    -0.063 N 
HETATM    7  C10 UNL     1      18.370 -13.167  19.536  1.00  0.00     0.238 C 
HETATM    8  C11 UNL     1      19.725 -13.009  18.966  1.00  0.00     0.028 C 
HETATM    9  C12 UNL     1      20.329 -11.683  18.946  1.00  0.00     0.006 C 
HETATM   10  C13 UNL     1      19.876 -10.689  19.943  1.00  0.00    -0.011 C 
HETATM   11  C28 UNL     1      18.391 -10.554  20.069  1.00  0.00     0.032 C 
HETATM   12  C29 UNL     1      17.664 -11.025  18.823  1.00  0.00     0.238 C 
ENDROOT
BRANCH  10  13
HETATM   13  C14 UNL     1      20.561 -10.873  21.305  1.00  0.00     0.024 C 
BRANCH  13  14
HETATM   14  C15 UNL     1      19.693 -10.235  22.391  1.00  0.00     0.114 C 
BRANCH  14  15
HETATM   15  N2  UNL     1      20.375  -9.088  22.875  1.00  0.00    -0.417 N 
ATOM     16  H2  UNL     1      21.292  -8.820  22.520  1.00  0.00     0.153 HD
BRANCH  15  17
HETATM   17  C16 UNL     1      19.713  -8.334  23.883  1.00  0.00     0.080 C 
HETATM   18  C17 UNL     1      20.628  -7.421  24.661  1.00  0.00     0.025 C 
HETATM   19  C18 UNL     1      20.391  -6.026  24.128  1.00  0.00     0.002 C 
HETATM   20  C19 UNL     1      19.136  -6.065  23.308  1.00  0.00     0.007 C 
HETATM   21  C20 UNL     1      18.587  -7.455  23.365  1.00  0.00     0.008 C 
BRANCH  21  22
HETATM   22  C21 UNL     1      17.420  -7.631  24.272  1.00  0.00     0.011 C 
BRANCH  22  23
HETATM   23  C22 UNL     1      16.332  -8.508  23.780  1.00  0.00    -0.014 C 
HETATM   24  C23 UNL     1      16.353  -8.417  22.244  1.00  0.00     0.005 C 
HETATM   25  C24 UNL     1      15.450  -9.553  21.773  1.00  0.00     0.000 C 
HETATM   26  C25 UNL     1      14.033  -9.142  22.115  1.00  0.00     0.000 C 
HETATM   27  C26 UNL     1      13.989  -7.958  23.054  1.00  0.00     0.000 C 
HETATM   28  C27 UNL     1      14.951  -8.071  24.198  1.00  0.00     0.005 C 
ENDBRANCH  22  23
ENDBRANCH  21  22
ENDBRANCH  15  17
ENDBRANCH  14  15
ENDBRANCH  13  14
ENDBRANCH  10  13
BRANCH   1  29
HETATM   29  C4  UNL     1      16.556 -14.268  17.410  1.00  0.00     0.034 C 
BRANCH  29  30
HETATM   30  C3  UNL     1      16.826 -14.870  16.050  1.00  0.00     0.012 C 
BRANCH  30  31
HETATM   31  C2  UNL     1      15.434 -15.186  15.464  1.00  0.00     0.113 C 
BRANCH  31  32
HETATM   32  C1  UNL     1      15.091 -14.196  14.417  1.00  0.00     0.172 C 
HETATM   33  O1  UNL     1      15.871 -13.881  13.502  1.00  0.00    -0.648 OA
HETATM   34  O2  UNL     1      13.841 -13.593  14.458  1.00  0.00    -0.648 OA
ENDBRANCH  31  32
ENDBRANCH  30  31
ENDBRANCH  29  30
ENDBRANCH   1  29
TORSDOF 10
ENDMDL
MODEL 5
REMARK VINA RESULT: -9.482849068      1.732      1.988
REMARK  10 active torsions:
REMARK  status: ('A' for Active; 'I' for Inactive)
REMARK    1  A    between atoms: C1_2  and  C2_4 
REMARK    2  A    between atoms: C2_4  and  C3_5 
REMARK    3  A    between atoms: C3_5  and  C4_6 
REMARK    4  A    between atoms: C4_6  and  C5_7 
REMARK    5  A    between atoms: C13_16  and  C14_17 
REMARK    6  A    between atoms: C14_17  and  C15_18 
REMARK    7  A    between atoms: C15_18  and  N2_19 
REMARK    8  A    between atoms: N2_19  and  C16_21 
REMARK    9  A    between atoms: C20_25  and  C21_26 
REMARK   10  A    between atoms: C21_26  and  C22_27 
ROOT
HETATM    1  C5  UNL     1      11.320  -7.891  24.148  1.00  0.00     0.190 C 
HETATM    2  C6  UNL     1      10.347  -9.037  24.273  1.00  0.00     0.033 C 
HETATM    3  C7  UNL     1       9.216  -8.904  23.266  1.00  0.00     0.004 C 
HETATM    4  C8  UNL     1       9.718  -8.551  21.903  1.00  0.00     0.028 C 
HETATM    5  C9  UNL     1      10.960  -7.742  21.843  1.00  0.00     0.238 C 
HETATM    6  N1  UNL     1      11.953  -8.032  22.852  1.00  0.00    -0.063 N 
HETATM    7  C10 UNL     1      13.035  -7.097  22.649  1.00  0.00     0.238 C 
HETATM    8  C11 UNL     1      14.198  -7.284  23.541  1.00  0.00     0.028 C 
HETATM    9  C12 UNL     1      14.938  -8.537  23.477  1.00  0.00     0.006 C 
HETATM   10  C13 UNL     1      14.896  -9.315  22.219  1.00  0.00    -0.011 C 
HETATM   11  C28 UNL     1      13.528  -9.520  21.650  1.00  0.00     0.032 C 
HETATM   12  C29 UNL     1      12.443  -9.386  22.702  1.00  0.00     0.238 C 
ENDROOT
BRANCH  10  13
HETATM   13  C14 UNL     1      15.889  -8.788  21.173  1.00  0.00     0.024 C 
BRANCH  13  14
HETATM   14  C15 UNL     1      16.964  -9.848  20.927  1.00  0.00     0.114 C 
BRANCH  14  15
HETATM   15  N2  UNL     1      16.474 -10.747  19.944  1.00  0.00    -0.417 N 
ATOM     16  H2  UNL     1      15.491 -11.015  19.906  1.00  0.00     0.153 HD
BRANCH  15  17
HETATM   17  C16 UNL     1      17.424 -11.254  19.015  1.00  0.00     0.080 C 
HETATM   18  C17 UNL     1      18.855 -11.134  19.479  1.00  0.00     0.025 C 
HETATM   19  C18 UNL     1      19.271 -12.514  19.934  1.00  0.00     0.002 C 
HETATM   20  C19 UNL     1      18.241 -13.482  19.436  1.00  0.00     0.007 C 
HETATM   21  C20 UNL     1      17.223 -12.716  18.653  1.00  0.00     0.008 C 
BRANCH  21  22
HETATM   22  C21 UNL     1      17.347 -12.838  17.174  1.00  0.00     0.011 C 
BRANCH  22  23
HETATM   23  C22 UNL     1      16.108 -12.620  16.392  1.00  0.00    -0.014 C 
HETATM   24  C23 UNL     1      15.215 -13.849  16.627  1.00  0.00     0.005 C 
HETATM   25  C24 UNL     1      13.849 -13.452  16.076  1.00  0.00     0.000 C 
HETATM   26  C25 UNL     1      13.989 -13.423  14.568  1.00  0.00     0.000 C 
HETATM   27  C26 UNL     1      15.434 -13.471  14.124  1.00  0.00     0.000 C 
HETATM   28  C27 UNL     1      16.325 -12.550  14.901  1.00  0.00     0.005 C 
ENDBRANCH  22  23
ENDBRANCH  21  22
ENDBRANCH  15  17
ENDBRANCH  14  15
ENDBRANCH  13  14
ENDBRANCH  10  13
BRANCH   1  29
HETATM   29  C4  UNL     1      10.597  -6.618  24.338  1.00  0.00     0.034 C 
BRANCH  29  30
HETATM   30  C3  UNL     1      10.727  -6.132  25.762  1.00  0.00     0.012 C 
BRANCH  30  31
HETATM   31  C2  UNL     1       9.742  -4.950  25.878  1.00  0.00     0.113 C 
BRANCH  31  32
HETATM   32  C1  UNL     1      10.227  -3.987  26.895  1.00  0.00     0.172 C 
HETATM   33  O1  UNL     1      11.298  -4.134  27.508  1.00  0.00    -0.648 OA
HETATM   34  O2  UNL     1       9.451  -2.871  27.175  1.00  0.00    -0.648 OA
ENDBRANCH  31  32
ENDBRANCH  30  31
ENDBRANCH  29  30
ENDBRANCH   1  29
TORSDOF 10
ENDMDL
