MODEL 1
REMARK VINA RESULT: -6.777236125      0.000      0.000
REMARK  10 active torsions:
REMARK  status: ('A' for Active; 'I' for Inactive)
REMARK    1  A    between atoms: N1_1  and  C1_5 
REMARK    2  A    between atoms: C1_5  and  C2_6 
REMARK    3  A    between atoms: C2_6  and  N2_7 
REMARK    4  A    between atoms: N2_7  and  C3_9 
REMARK    5  A    between atoms: N4_13  and  C5_15 
REMARK    6  A    between atoms: C5_15  and  C6_16 
REMARK    7  A    between atoms: C6_16  and  C7_17 
REMARK    8  A    between atoms: C7_17  and  N5_18 
REMARK    9  A    between atoms: C7_17  and  N6_22 
REMARK   10  A    between atoms: N6_22  and  N7_23 
ROOT
HETATM    1  C3  UNL     1      -0.032   1.417  51.828  1.00  0.00     0.681 A 
HETATM    2  N3  UNL     1      -0.926   0.454  51.623  1.00  0.00    -0.174 N 
ATOM      3  H3  UNL     1      -0.586  -0.447  51.287  1.00  0.00     0.186 HD
HETATM    4  C4  UNL     1      -2.264   0.594  51.831  1.00  0.00     0.151 A 
HETATM    5  N4  UNL     1      -3.059  -0.382  51.611  1.00  0.00    -0.353 N 
ATOM      6  H4  UNL     1      -2.609  -1.235  51.278  1.00  0.00     0.166 HD
HETATM    7  C8  UNL     1      -2.703   1.815  52.283  1.00  0.00     0.123 A 
HETATM    8  N8  UNL     1      -3.890   2.357  52.603  1.00  0.00    -0.346 N 
ATOM      9  H8  UNL     1      -4.779   1.859  52.549  1.00  0.00     0.167 HD
HETATM   10  C9  UNL     1      -3.767   3.622  53.000  1.00  0.00     0.182 A 
HETATM   11  N9  UNL     1      -2.454   3.922  52.937  1.00  0.00    -0.336 N 
ATOM     12  H9  UNL     1      -2.039   4.822  53.179  1.00  0.00     0.168 HD
HETATM   13  C10 UNL     1      -1.774   2.829  52.499  1.00  0.00     0.152 A 
HETATM   14  N10 UNL     1      -0.452   2.614  52.268  1.00  0.00    -0.174 N 
ATOM     15  H10 UNL     1       0.222   3.363  52.430  1.00  0.00     0.186 HD
ENDROOT
BRANCH   5  16
HETATM   16  C5  UNL     1      -4.458  -0.467  51.754  1.00  0.00     0.066 C 
BRANCH  16  17
HETATM   17  C6  UNL     1      -5.207  -0.295  50.436  1.00  0.00     0.096 C 
BRANCH  17  18
HETATM   18  C7  UNL     1      -6.606  -0.804  50.640  1.00  0.00     0.299 C 
BRANCH  18  19
HETATM   19  N5  UNL     1      -6.883  -1.083  52.038  1.00  0.00    -0.059 N 
ATOM     20  H53 UNL     1      -6.735  -2.069  52.254  1.00  0.00     0.276 HD
ATOM     21  H52 UNL     1      -6.171  -0.676  52.645  1.00  0.00     0.276 HD
ATOM     22  H51 UNL     1      -7.819  -0.781  52.309  1.00  0.00     0.276 HD
ENDBRANCH  18  19
BRANCH  18  23
HETATM   23  N6  UNL     1      -6.758  -2.042  49.904  1.00  0.00    -0.115 NA
BRANCH  23  24
HETATM   24  N7  UNL     1      -8.046  -2.230  49.450  1.00  0.00    -0.346 N 
ATOM     25  H72 UNL     1      -8.312  -2.108  48.473  1.00  0.00     0.172 HD
ATOM     26  H71 UNL     1      -8.686  -2.502  50.196  1.00  0.00     0.172 HD
ENDBRANCH  23  24
ENDBRANCH  18  23
ENDBRANCH  17  18
ENDBRANCH  16  17
ENDBRANCH   5  16
BRANCH   1  27
HETATM   27  N2  UNL     1       1.235   1.245  51.618  1.00  0.00    -0.224 N 
ATOM     28  H2  UNL     1       1.873   1.930  52.025  1.00  0.00     0.177 HD
BRANCH  27  29
HETATM   29  C2  UNL     1       1.815   0.185  50.869  1.00  0.00     0.165 C 
BRANCH  29  30
HETATM   30  C1  UNL     1       2.956   0.633  49.981  1.00  0.00     0.249 C 
BRANCH  30  31
HETATM   31  N1  UNL     1       3.661   1.745  50.587  1.00  0.00    -0.078 N 
ATOM     32  H13 UNL     1       3.155   2.126  51.387  1.00  0.00     0.274 HD
ATOM     33  H12 UNL     1       4.505   1.440  51.073  1.00  0.00     0.274 HD
ATOM     34  H11 UNL     1       3.861   2.462  49.890  1.00  0.00     0.274 HD
ENDBRANCH  30  31
ENDBRANCH  29  30
ENDBRANCH  27  29
ENDBRANCH   1  27
TORSDOF 10
ENDMDL
MODEL 2
REMARK VINA RESULT: -6.731561506      1.091      1.515
REMARK  10 active torsions:
REMARK  status: ('A' for Active; 'I' for Inactive)
REMARK    1  A    between atoms: N1_1  and  C1_5 
REMARK    2  A    between atoms: C1_5  and  C2_6 
REMARK    3  A    between atoms: C2_6  and  N2_7 
REMARK    4  A    between atoms: N2_7  and  C3_9 
REMARK    5  A    between atoms: N4_13  and  C5_15 
REMARK    6  A    between atoms: C5_15  and  C6_16 
REMARK    7  A    between atoms: C6_16  and  C7_17 
REMARK    8  A    between atoms: C7_17  and  N5_18 
REMARK    9  A    between atoms: C7_17  and  N6_22 
REMARK   10  A    between atoms: N6_22  and  N7_23 
ROOT
HETATM    1  C3  UNL     1       0.124   1.263  51.778  1.00  0.00     0.681 A 
HETATM    2  N3  UNL     1      -0.777   0.290  51.688  1.00  0.00    -0.174 N 
ATOM      3  H3  UNL     1      -0.457  -0.629  51.379  1.00  0.00     0.186 HD
HETATM    4  C4  UNL     1      -2.099   0.439  51.979  1.00  0.00     0.151 A 
HETATM    5  N4  UNL     1      -2.902  -0.548  51.867  1.00  0.00    -0.353 N 
ATOM      6  H4  UNL     1      -2.471  -1.418  51.552  1.00  0.00     0.166 HD
HETATM    7  C8  UNL     1      -2.512   1.683  52.392  1.00  0.00     0.123 A 
HETATM    8  N8  UNL     1      -3.677   2.240  52.763  1.00  0.00    -0.346 N 
ATOM      9  H8  UNL     1      -4.565   1.739  52.797  1.00  0.00     0.167 HD
HETATM   10  C9  UNL     1      -3.533   3.525  53.080  1.00  0.00     0.182 A 
HETATM   11  N9  UNL     1      -2.229   3.823  52.912  1.00  0.00    -0.336 N 
ATOM     12  H9  UNL     1      -1.803   4.735  53.075  1.00  0.00     0.168 HD
HETATM   13  C10 UNL     1      -1.575   2.708  52.488  1.00  0.00     0.152 A 
HETATM   14  N10 UNL     1      -0.271   2.482  52.180  1.00  0.00    -0.174 N 
ATOM     15  H10 UNL     1       0.409   3.240  52.254  1.00  0.00     0.186 HD
ENDROOT
BRANCH   5  16
HETATM   16  C5  UNL     1      -4.288  -0.627  52.110  1.00  0.00     0.066 C 
BRANCH  16  17
HETATM   17  C6  UNL     1      -5.077  -1.149  50.914  1.00  0.00     0.096 C 
BRANCH  17  18
HETATM   18  C7  UNL     1      -6.195  -0.180  50.652  1.00  0.00     0.299 C 
BRANCH  18  19
HETATM   19  N5  UNL     1      -6.786  -0.374  49.339  1.00  0.00    -0.059 N 
ATOM     20  H53 UNL     1      -6.242   0.095  48.616  1.00  0.00     0.276 HD
ATOM     21  H52 UNL     1      -6.677  -1.338  49.023  1.00  0.00     0.276 HD
ATOM     22  H51 UNL     1      -7.763  -0.084  49.315  1.00  0.00     0.276 HD
ENDBRANCH  18  19
BRANCH  18  23
HETATM   23  N6  UNL     1      -5.660   1.166  50.700  1.00  0.00    -0.115 NA
BRANCH  23  24
HETATM   24  N7  UNL     1      -6.611   2.099  51.052  1.00  0.00    -0.346 N 
ATOM     25  H72 UNL     1      -7.317   2.443  50.401  1.00  0.00     0.172 HD
ATOM     26  H71 UNL     1      -6.525   2.396  52.024  1.00  0.00     0.172 HD
ENDBRANCH  23  24
ENDBRANCH  18  23
ENDBRANCH  17  18
ENDBRANCH  16  17
ENDBRANCH   5  16
BRANCH   1  27
HETATM   27  N2  UNL     1       1.375   1.082  51.491  1.00  0.00    -0.224 N 
ATOM     28  H2  UNL     1       2.056   1.655  51.990  1.00  0.00     0.177 HD
BRANCH  27  29
HETATM   29  C2  UNL     1       1.881   0.152  50.542  1.00  0.00     0.165 C 
BRANCH  29  30
HETATM   30  C1  UNL     1       3.194   0.582  49.925  1.00  0.00     0.249 C 
BRANCH  30  31
HETATM   31  N1  UNL     1       3.649   1.824  50.519  1.00  0.00    -0.078 N 
ATOM     32  H13 UNL     1       4.205   2.377  49.866  1.00  0.00     0.274 HD
ATOM     33  H12 UNL     1       2.882   2.481  50.661  1.00  0.00     0.274 HD
ATOM     34  H11 UNL     1       4.155   1.639  51.385  1.00  0.00     0.274 HD
ENDBRANCH  30  31
ENDBRANCH  29  30
ENDBRANCH  27  29
ENDBRANCH   1  27
TORSDOF 10
ENDMDL
MODEL 3
REMARK VINA RESULT: -6.590491692      1.201      6.953
REMARK  10 active torsions:
REMARK  status: ('A' for Active; 'I' for Inactive)
REMARK    1  A    between atoms: N1_1  and  C1_5 
REMARK    2  A    between atoms: C1_5  and  C2_6 
REMARK    3  A    between atoms: C2_6  and  N2_7 
REMARK    4  A    between atoms: N2_7  and  C3_9 
REMARK    5  A    between atoms: N4_13  and  C5_15 
REMARK    6  A    between atoms: C5_15  and  C6_16 
REMARK    7  A    between atoms: C6_16  and  C7_17 
REMARK    8  A    between atoms: C7_17  and  N5_18 
REMARK    9  A    between atoms: C7_17  and  N6_22 
REMARK   10  A    between atoms: N6_22  and  N7_23 
ROOT
HETATM    1  C3  UNL     1      -3.323   0.826  52.054  1.00  0.00     0.681 A 
HETATM    2  N3  UNL     1      -2.195   0.256  51.642  1.00  0.00    -0.174 N 
ATOM      3  H3  UNL     1      -2.251  -0.689  51.261  1.00  0.00     0.186 HD
HETATM    4  C4  UNL     1      -0.971   0.851  51.696  1.00  0.00     0.151 A 
HETATM    5  N4  UNL     1       0.067   0.234  51.278  1.00  0.00    -0.353 N 
ATOM      6  H4  UNL     1      -0.108  -0.704  50.917  1.00  0.00     0.166 HD
HETATM    7  C8  UNL     1      -0.915   2.122  52.213  1.00  0.00     0.123 A 
HETATM    8  N8  UNL     1       0.047   3.032  52.439  1.00  0.00    -0.346 N 
ATOM      9  H8  UNL     1       1.034   2.885  52.224  1.00  0.00     0.167 HD
HETATM   10  C9  UNL     1      -0.440   4.147  52.978  1.00  0.00     0.182 A 
HETATM   11  N9  UNL     1      -1.770   3.964  53.111  1.00  0.00    -0.336 N 
ATOM     12  H9  UNL     1      -2.426   4.643  53.496  1.00  0.00     0.168 HD
HETATM   13  C10 UNL     1      -2.091   2.727  52.649  1.00  0.00     0.152 A 
HETATM   14  N10 UNL     1      -3.277   2.069  52.563  1.00  0.00    -0.174 N 
ATOM     15  H10 UNL     1      -4.134   2.520  52.884  1.00  0.00     0.186 HD
ENDROOT
BRANCH   5  16
HETATM   16  C5  UNL     1       1.415   0.644  51.235  1.00  0.00     0.066 C 
BRANCH  16  17
HETATM   17  C6  UNL     1       2.163   0.119  50.014  1.00  0.00     0.096 C 
BRANCH  17  18
HETATM   18  C7  UNL     1       3.510   0.783  49.988  1.00  0.00     0.299 C 
BRANCH  18  19
HETATM   19  N5  UNL     1       3.596   1.873  50.944  1.00  0.00    -0.059 N 
ATOM     20  H53 UNL     1       2.768   2.466  50.904  1.00  0.00     0.276 HD
ATOM     21  H52 UNL     1       3.506   1.534  51.902  1.00  0.00     0.276 HD
ATOM     22  H51 UNL     1       4.450   2.419  50.823  1.00  0.00     0.276 HD
ENDBRANCH  18  19
BRANCH  18  23
HETATM   23  N6  UNL     1       3.726   1.337  48.667  1.00  0.00    -0.115 NA
BRANCH  23  24
HETATM   24  N7  UNL     1       4.179   2.638  48.708  1.00  0.00    -0.346 N 
ATOM     25  H72 UNL     1       5.045   2.908  49.176  1.00  0.00     0.172 HD
ATOM     26  H71 UNL     1       3.556   3.283  48.224  1.00  0.00     0.172 HD
ENDBRANCH  23  24
ENDBRANCH  18  23
ENDBRANCH  17  18
ENDBRANCH  16  17
ENDBRANCH   5  16
BRANCH   1  27
HETATM   27  N2  UNL     1      -4.470   0.228  51.987  1.00  0.00    -0.224 N 
ATOM     28  H2  UNL     1      -5.254   0.666  52.471  1.00  0.00     0.177 HD
BRANCH  27  29
HETATM   29  C2  UNL     1      -4.731  -0.987  51.296  1.00  0.00     0.165 C 
BRANCH  29  30
HETATM   30  C1  UNL     1      -6.126  -1.057  50.714  1.00  0.00     0.249 C 
BRANCH  30  31
HETATM   31  N1  UNL     1      -7.107  -1.223  51.769  1.00  0.00    -0.078 N 
ATOM     32  H13 UNL     1      -6.667  -1.334  52.683  1.00  0.00     0.274 HD
ATOM     33  H12 UNL     1      -7.619  -0.359  51.951  1.00  0.00     0.274 HD
ATOM     34  H11 UNL     1      -7.733  -1.997  51.554  1.00  0.00     0.274 HD
ENDBRANCH  30  31
ENDBRANCH  29  30
ENDBRANCH  27  29
ENDBRANCH   1  27
TORSDOF 10
ENDMDL
MODEL 4
REMARK VINA RESULT: -6.525014947      3.417      4.994
REMARK  10 active torsions:
REMARK  status: ('A' for Active; 'I' for Inactive)
REMARK    1  A    between atoms: N1_1  and  C1_5 
REMARK    2  A    between atoms: C1_5  and  C2_6 
REMARK    3  A    between atoms: C2_6  and  N2_7 
REMARK    4  A    between atoms: N2_7  and  C3_9 
REMARK    5  A    between atoms: N4_13  and  C5_15 
REMARK    6  A    between atoms: C5_15  and  C6_16 
REMARK    7  A    between atoms: C6_16  and  C7_17 
REMARK    8  A    between atoms: C7_17  and  N5_18 
REMARK    9  A    between atoms: C7_17  and  N6_22 
REMARK   10  A    between atoms: N6_22  and  N7_23 
ROOT
HETATM    1  C3  UNL     1       0.680   1.042  51.999  1.00  0.00     0.681 A 
HETATM    2  N3  UNL     1       0.407   0.053  52.843  1.00  0.00    -0.174 N 
ATOM      3  H3  UNL     1       1.117  -0.666  52.980  1.00  0.00     0.186 HD
HETATM    4  C4  UNL     1      -0.760  -0.062  53.537  1.00  0.00     0.151 A 
HETATM    5  N4  UNL     1      -0.945  -1.045  54.332  1.00  0.00    -0.353 N 
ATOM      6  H4  UNL     1      -0.167  -1.702  54.391  1.00  0.00     0.166 HD
HETATM    7  C8  UNL     1      -1.705   0.915  53.339  1.00  0.00     0.123 A 
HETATM    8  N8  UNL     1      -2.939   1.173  53.803  1.00  0.00    -0.346 N 
ATOM      9  H8  UNL     1      -3.431   0.586  54.477  1.00  0.00     0.167 HD
HETATM   10  C9  UNL     1      -3.444   2.287  53.276  1.00  0.00     0.182 A 
HETATM   11  N9  UNL     1      -2.510   2.777  52.437  1.00  0.00    -0.336 N 
ATOM     12  H9  UNL     1      -2.599   3.627  51.880  1.00  0.00     0.168 HD
HETATM   13  C10 UNL     1      -1.428   1.954  52.455  1.00  0.00     0.152 A 
HETATM   14  N10 UNL     1      -0.239   2.002  51.798  1.00  0.00    -0.174 N 
ATOM     15  H10 UNL     1      -0.044   2.767  51.152  1.00  0.00     0.186 HD
ENDROOT
BRANCH   5  16
HETATM   16  C5  UNL     1      -2.053  -1.365  55.142  1.00  0.00     0.066 C 
BRANCH  16  17
HETATM   17  C6  UNL     1      -1.662  -2.025  56.460  1.00  0.00     0.096 C 
BRANCH  17  18
HETATM   18  C7  UNL     1      -0.264  -2.552  56.305  1.00  0.00     0.299 C 
BRANCH  18  19
HETATM   19  N5  UNL     1      -0.172  -3.959  56.650  1.00  0.00    -0.059 N 
ATOM     20  H53 UNL     1      -0.638  -4.154  57.535  1.00  0.00     0.276 HD
ATOM     21  H52 UNL     1      -0.751  -4.530  56.033  1.00  0.00     0.276 HD
ATOM     22  H51 UNL     1       0.794  -4.287  56.660  1.00  0.00     0.276 HD
ENDBRANCH  18  19
BRANCH  18  23
HETATM   23  N6  UNL     1       0.607  -1.820  57.203  1.00  0.00    -0.115 NA
BRANCH  23  24
HETATM   24  N7  UNL     1      -0.013  -0.723  57.760  1.00  0.00    -0.346 N 
ATOM     25  H72 UNL     1      -0.091  -0.582  58.768  1.00  0.00     0.172 HD
ATOM     26  H71 UNL     1      -0.377  -0.081  57.056  1.00  0.00     0.172 HD
ENDBRANCH  23  24
ENDBRANCH  18  23
ENDBRANCH  17  18
ENDBRANCH  16  17
ENDBRANCH   5  16
BRANCH   1  27
HETATM   27  N2  UNL     1       1.803   1.118  51.356  1.00  0.00    -0.224 N 
ATOM     28  H2  UNL     1       2.431   1.883  51.603  1.00  0.00     0.177 HD
BRANCH  27  29
HETATM   29  C2  UNL     1       2.234   0.226  50.336  1.00  0.00     0.165 C 
BRANCH  29  30
HETATM   30  C1  UNL     1       3.615   0.548  49.805  1.00  0.00     0.249 C 
BRANCH  30  31
HETATM   31  N1  UNL     1       3.976   1.914  50.131  1.00  0.00    -0.078 N 
ATOM     32  H13 UNL     1       4.985   2.059  50.098  1.00  0.00     0.274 HD
ATOM     33  H12 UNL     1       3.705   2.564  49.392  1.00  0.00     0.274 HD
ATOM     34  H11 UNL     1       3.584   2.180  51.033  1.00  0.00     0.274 HD
ENDBRANCH  30  31
ENDBRANCH  29  30
ENDBRANCH  27  29
ENDBRANCH   1  27
TORSDOF 10
ENDMDL
MODEL 5
REMARK VINA RESULT: -6.470806841      1.544      1.936
REMARK  10 active torsions:
REMARK  status: ('A' for Active; 'I' for Inactive)
REMARK    1  A    between atoms: N1_1  and  C1_5 
REMARK    2  A    between atoms: C1_5  and  C2_6 
REMARK    3  A    between atoms: C2_6  and  N2_7 
REMARK    4  A    between atoms: N2_7  and  C3_9 
REMARK    5  A    between atoms: N4_13  and  C5_15 
REMARK    6  A    between atoms: C5_15  and  C6_16 
REMARK    7  A    between atoms: C6_16  and  C7_17 
REMARK    8  A    between atoms: C7_17  and  N5_18 
REMARK    9  A    between atoms: C7_17  and  N6_22 
REMARK   10  A    between atoms: N6_22  and  N7_23 
ROOT
HETATM    1  C3  UNL     1      -0.255   1.544  52.141  1.00  0.00     0.681 A 
HETATM    2  N3  UNL     1      -1.167   0.651  52.512  1.00  0.00    -0.174 N 
ATOM      3  H3  UNL     1      -0.899  -0.334  52.506  1.00  0.00     0.186 HD
HETATM    4  C4  UNL     1      -2.434   0.964  52.899  1.00  0.00     0.151 A 
HETATM    5  N4  UNL     1      -3.252   0.045  53.242  1.00  0.00    -0.353 N 
ATOM      6  H4  UNL     1      -2.876  -0.903  53.199  1.00  0.00     0.166 HD
HETATM    7  C8  UNL     1      -2.778   2.294  52.899  1.00  0.00     0.123 A 
HETATM    8  N8  UNL     1      -3.876   3.009  53.197  1.00  0.00    -0.346 N 
ATOM      9  H8  UNL     1      -4.754   2.600  53.516  1.00  0.00     0.167 HD
HETATM   10  C9  UNL     1      -3.681   4.314  53.024  1.00  0.00     0.182 A 
HETATM   11  N9  UNL     1      -2.410   4.463  52.597  1.00  0.00    -0.336 N 
ATOM     12  H9  UNL     1      -1.959   5.351  52.376  1.00  0.00     0.168 HD
HETATM   13  C10 UNL     1      -1.829   3.237  52.511  1.00  0.00     0.152 A 
HETATM   14  N10 UNL     1      -0.582   2.847  52.138  1.00  0.00    -0.174 N 
ATOM     15  H10 UNL     1       0.107   3.545  51.855  1.00  0.00     0.186 HD
ENDROOT
BRANCH   5  16
HETATM   16  C5  UNL     1      -4.592   0.131  53.671  1.00  0.00     0.066 C 
BRANCH  16  17
HETATM   17  C6  UNL     1      -5.572  -0.538  52.713  1.00  0.00     0.096 C 
BRANCH  17  18
HETATM   18  C7  UNL     1      -6.529   0.518  52.235  1.00  0.00     0.299 C 
BRANCH  18  19
HETATM   19  N5  UNL     1      -7.655  -0.054  51.518  1.00  0.00    -0.059 N 
ATOM     20  H53 UNL     1      -8.127  -0.763  52.077  1.00  0.00     0.276 HD
ATOM     21  H52 UNL     1      -8.418   0.617  51.431  1.00  0.00     0.276 HD
ATOM     22  H51 UNL     1      -7.379  -0.423  50.608  1.00  0.00     0.276 HD
ENDBRANCH  18  19
BRANCH  18  23
HETATM   23  N6  UNL     1      -5.826   1.398  51.323  1.00  0.00    -0.115 NA
BRANCH  23  24
HETATM   24  N7  UNL     1      -6.559   2.521  51.006  1.00  0.00    -0.346 N 
ATOM     25  H72 UNL     1      -7.512   2.672  51.336  1.00  0.00     0.172 HD
ATOM     26  H71 UNL     1      -6.040   3.170  50.415  1.00  0.00     0.172 HD
ENDBRANCH  23  24
ENDBRANCH  18  23
ENDBRANCH  17  18
ENDBRANCH  16  17
ENDBRANCH   5  16
BRANCH   1  27
HETATM   27  N2  UNL     1       0.943   1.206  51.779  1.00  0.00    -0.224 N 
ATOM     28  H2  UNL     1       1.713   1.780  52.124  1.00  0.00     0.177 HD
BRANCH  27  29
HETATM   29  C2  UNL     1       1.276   0.106  50.943  1.00  0.00     0.165 C 
BRANCH  29  30
HETATM   30  C1  UNL     1       2.539   0.327  50.139  1.00  0.00     0.249 C 
BRANCH  30  31
HETATM   31  N1  UNL     1       2.480  -0.411  48.892  1.00  0.00    -0.078 N 
ATOM     32  H13 UNL     1       1.559  -0.823  48.738  1.00  0.00     0.274 HD
ATOM     33  H12 UNL     1       2.506   0.209  48.082  1.00  0.00     0.274 HD
ATOM     34  H11 UNL     1       3.219  -1.112  48.858  1.00  0.00     0.274 HD
ENDBRANCH  30  31
ENDBRANCH  29  30
ENDBRANCH  27  29
ENDBRANCH   1  27
TORSDOF 10
ENDMDL
