MODEL 1
REMARK VINA RESULT: -7.805404775      0.000      0.000
REMARK  4 active torsions:
REMARK  status: ('A' for Active; 'I' for Inactive)
REMARK    1  A    between atoms: N1_1  and  C1_4 
REMARK    2  A    between atoms: N4_11  and  C3_12 
REMARK    3  A    between atoms: N6_16  and  N7_17 
REMARK    4  A    between atoms: C7_22  and  N8_23 
ROOT
HETATM    1  C3  UNL     1      45.216   5.632  10.801  1.00  0.00     0.117 A 
HETATM    2  C4  UNL     1      45.820   5.412   9.581  1.00  0.00     0.082 A 
HETATM    3  C5  UNL     1      45.664   4.212   8.893  1.00  0.00     0.143 A 
HETATM    4  N5  UNL     1      46.312   4.075   7.662  1.00  0.00    -0.081 NA
HETATM    5  N6  UNL     1      44.909   3.237   9.420  1.00  0.00    -0.211 N 
HETATM    6  C6  UNL     1      44.301   3.402  10.603  1.00  0.00     0.303 A 
HETATM    7  O2  UNL     1      43.584   2.485  11.111  1.00  0.00    -0.263 OA
HETATM    8  C7  UNL     1      44.447   4.605  11.309  1.00  0.00     0.201 A 
ENDROOT
BRANCH   1   9
HETATM    9  N4  UNL     1      45.333   6.825  11.549  1.00  0.00    -0.080 N 
HETATM   10  C1  UNL     1      44.502   7.899  11.559  1.00  0.00     0.702 A 
HETATM   11  N2  UNL     1      45.050   8.760  12.427  1.00  0.00    -0.139 N 
HETATM   12  C2  UNL     1      46.182   8.254  12.946  1.00  0.00     0.354 A 
ATOM     13  H2  UNL     1      44.662   9.673  12.661  1.00  0.00     0.189 HD
HETATM   14  O1  UNL     1      46.983   8.743  13.785  1.00  0.00    -0.245 OA
HETATM   15  N3  UNL     1      46.350   7.054  12.396  1.00  0.00    -0.229 N 
ATOM     16  H3  UNL     1      47.121   6.415  12.586  1.00  0.00     0.193 HD
BRANCH  10  17
HETATM   17  N1  UNL     1      43.444   7.984  10.858  1.00  0.00    -0.233 N 
ATOM     18  H12 UNL     1      43.364   8.553  10.014  1.00  0.00     0.174 HD
ATOM     19  H11 UNL     1      42.530   7.545  10.973  1.00  0.00     0.174 HD
ENDBRANCH  10  17
ENDBRANCH   1   9
BRANCH   8  20
HETATM   20  N8  UNL     1      43.817   4.795  12.548  1.00  0.00    -0.107 N 
HETATM   21  O3  UNL     1      44.400   4.513  13.586  1.00  0.00    -0.531 OA
HETATM   22  O4  UNL     1      42.560   5.294  12.580  1.00  0.00    -0.531 OA
ENDBRANCH   8  20
BRANCH   5  23
HETATM   23  N7  UNL     1      44.771   2.045   8.710  1.00  0.00    -0.334 N 
ATOM     24  H72 UNL     1      44.894   2.025   7.697  1.00  0.00     0.177 HD
ATOM     25  H71 UNL     1      44.543   1.195   9.226  1.00  0.00     0.177 HD
ENDBRANCH   5  23
TORSDOF 4
ENDMDL
MODEL 2
REMARK VINA RESULT: -7.587497930      0.979      1.536
REMARK  4 active torsions:
REMARK  status: ('A' for Active; 'I' for Inactive)
REMARK    1  A    between atoms: N1_1  and  C1_4 
REMARK    2  A    between atoms: N4_11  and  C3_12 
REMARK    3  A    between atoms: N6_16  and  N7_17 
REMARK    4  A    between atoms: C7_22  and  N8_23 
ROOT
HETATM    1  C3  UNL     1      45.336   5.510  10.754  1.00  0.00     0.117 A 
HETATM    2  C4  UNL     1      45.945   5.321   9.532  1.00  0.00     0.082 A 
HETATM    3  C5  UNL     1      45.758   4.156   8.792  1.00  0.00     0.143 A 
HETATM    4  N5  UNL     1      46.414   4.050   7.563  1.00  0.00    -0.081 NA
HETATM    5  N6  UNL     1      44.965   3.186   9.270  1.00  0.00    -0.211 N 
HETATM    6  C6  UNL     1      44.350   3.322  10.454  1.00  0.00     0.303 A 
HETATM    7  O2  UNL     1      43.598   2.409  10.915  1.00  0.00    -0.263 OA
HETATM    8  C7  UNL     1      44.528   4.489  11.210  1.00  0.00     0.201 A 
ENDROOT
BRANCH   1   9
HETATM    9  N4  UNL     1      45.484   6.666  11.552  1.00  0.00    -0.080 N 
HETATM   10  C1  UNL     1      46.292   6.849  12.629  1.00  0.00     0.702 A 
HETATM   11  N2  UNL     1      46.066   8.108  13.027  1.00  0.00    -0.139 N 
HETATM   12  C2  UNL     1      45.154   8.700  12.237  1.00  0.00     0.354 A 
ATOM     13  H2  UNL     1      46.524   8.556  13.821  1.00  0.00     0.189 HD
HETATM   14  O1  UNL     1      44.674   9.863  12.277  1.00  0.00    -0.245 OA
HETATM   15  N3  UNL     1      44.799   7.798  11.326  1.00  0.00    -0.229 N 
ATOM     16  H3  UNL     1      44.119   7.943  10.579  1.00  0.00     0.193 HD
BRANCH  10  17
HETATM   17  N1  UNL     1      47.069   5.956  13.094  1.00  0.00    -0.233 N 
ATOM     18  H12 UNL     1      47.597   6.056  13.961  1.00  0.00     0.174 HD
ATOM     19  H11 UNL     1      47.312   5.031  12.737  1.00  0.00     0.174 HD
ENDBRANCH  10  17
ENDBRANCH   1   9
BRANCH   8  20
HETATM   20  N8  UNL     1      43.891   4.648  12.451  1.00  0.00    -0.107 N 
HETATM   21  O3  UNL     1      44.365   4.138  13.458  1.00  0.00    -0.531 OA
HETATM   22  O4  UNL     1      42.750   5.372  12.519  1.00  0.00    -0.531 OA
ENDBRANCH   8  20
BRANCH   5  23
HETATM   23  N7  UNL     1      44.795   2.030   8.509  1.00  0.00    -0.334 N 
ATOM     24  H72 UNL     1      44.361   1.200   8.913  1.00  0.00     0.177 HD
ATOM     25  H71 UNL     1      45.117   2.034   7.541  1.00  0.00     0.177 HD
ENDBRANCH   5  23
TORSDOF 4
ENDMDL
MODEL 3
REMARK VINA RESULT: -7.286014925      2.726      4.502
REMARK  4 active torsions:
REMARK  status: ('A' for Active; 'I' for Inactive)
REMARK    1  A    between atoms: N1_1  and  C1_4 
REMARK    2  A    between atoms: N4_11  and  C3_12 
REMARK    3  A    between atoms: N6_16  and  N7_17 
REMARK    4  A    between atoms: C7_22  and  N8_23 
ROOT
HETATM    1  C3  UNL     1      45.996   6.436  12.985  1.00  0.00     0.117 A 
HETATM    2  C4  UNL     1      45.989   7.811  12.876  1.00  0.00     0.082 A 
HETATM    3  C5  UNL     1      45.052   8.478  12.091  1.00  0.00     0.143 A 
HETATM    4  N5  UNL     1      45.118   9.873  12.039  1.00  0.00    -0.081 NA
HETATM    5  N6  UNL     1      44.127   7.776  11.420  1.00  0.00    -0.211 N 
HETATM    6  C6  UNL     1      44.093   6.438  11.494  1.00  0.00     0.303 A 
HETATM    7  O2  UNL     1      43.222   5.764  10.861  1.00  0.00    -0.263 OA
HETATM    8  C7  UNL     1      45.029   5.751  12.280  1.00  0.00     0.201 A 
ENDROOT
BRANCH   1   9
HETATM    9  N4  UNL     1      46.918   5.700  13.763  1.00  0.00    -0.080 N 
HETATM   10  C1  UNL     1      48.274   5.747  13.730  1.00  0.00     0.702 A 
HETATM   11  N2  UNL     1      48.679   4.865  14.656  1.00  0.00    -0.139 N 
HETATM   12  C2  UNL     1      47.624   4.284  15.250  1.00  0.00     0.354 A 
ATOM     13  H2  UNL     1      49.653   4.664  14.878  1.00  0.00     0.189 HD
HETATM   14  O1  UNL     1      47.577   3.413  16.158  1.00  0.00    -0.245 OA
HETATM   15  N3  UNL     1      46.536   4.807  14.690  1.00  0.00    -0.229 N 
ATOM     16  H3  UNL     1      45.572   4.570  14.927  1.00  0.00     0.193 HD
BRANCH  10  17
HETATM   17  N1  UNL     1      48.941   6.500  12.952  1.00  0.00    -0.233 N 
ATOM     18  H12 UNL     1      49.783   7.006  13.231  1.00  0.00     0.174 HD
ATOM     19  H11 UNL     1      48.795   6.742  11.971  1.00  0.00     0.174 HD
ENDBRANCH  10  17
ENDBRANCH   1   9
BRANCH   8  20
HETATM   20  N8  UNL     1      45.007   4.351  12.369  1.00  0.00    -0.107 N 
HETATM   21  O3  UNL     1      45.789   3.678  11.710  1.00  0.00    -0.531 OA
HETATM   22  O4  UNL     1      44.113   3.755  13.191  1.00  0.00    -0.531 OA
ENDBRANCH   8  20
BRANCH   5  23
HETATM   23  N7  UNL     1      43.201   8.470  10.641  1.00  0.00    -0.334 N 
ATOM     24  H72 UNL     1      43.104   8.268   9.646  1.00  0.00     0.177 HD
ATOM     25  H71 UNL     1      42.626   9.182  11.090  1.00  0.00     0.177 HD
ENDBRANCH   5  23
TORSDOF 4
ENDMDL
MODEL 4
REMARK VINA RESULT: -7.271564966      0.953      1.201
REMARK  4 active torsions:
REMARK  status: ('A' for Active; 'I' for Inactive)
REMARK    1  A    between atoms: N1_1  and  C1_4 
REMARK    2  A    between atoms: N4_11  and  C3_12 
REMARK    3  A    between atoms: N6_16  and  N7_17 
REMARK    4  A    between atoms: C7_22  and  N8_23 
ROOT
HETATM    1  C3  UNL     1      45.760   5.827  10.723  1.00  0.00     0.117 A 
HETATM    2  C4  UNL     1      46.052   5.483   9.420  1.00  0.00     0.082 A 
HETATM    3  C5  UNL     1      45.846   4.191   8.941  1.00  0.00     0.143 A 
HETATM    4  N5  UNL     1      46.169   3.930   7.606  1.00  0.00    -0.081 NA
HETATM    5  N6  UNL     1      45.351   3.250   9.758  1.00  0.00    -0.211 N 
HETATM    6  C6  UNL     1      45.052   3.536  11.033  1.00  0.00     0.303 A 
HETATM    7  O2  UNL     1      44.583   2.652  11.815  1.00  0.00    -0.263 OA
HETATM    8  C7  UNL     1      45.253   4.831  11.531  1.00  0.00     0.201 A 
ENDROOT
BRANCH   1   9
HETATM    9  N4  UNL     1      45.946   7.116  11.270  1.00  0.00    -0.080 N 
HETATM   10  C1  UNL     1      45.026   8.102  11.435  1.00  0.00     0.702 A 
HETATM   11  N2  UNL     1      45.698   9.119  11.993  1.00  0.00    -0.139 N 
HETATM   12  C2  UNL     1      46.988   8.793  12.173  1.00  0.00     0.354 A 
ATOM     13  H2  UNL     1      45.285  10.017  12.245  1.00  0.00     0.189 HD
HETATM   14  O1  UNL     1      47.937   9.462  12.660  1.00  0.00    -0.245 OA
HETATM   15  N3  UNL     1      47.134   7.550  11.722  1.00  0.00    -0.229 N 
ATOM     16  H3  UNL     1      48.002   7.015  11.720  1.00  0.00     0.193 HD
BRANCH  10  17
HETATM   17  N1  UNL     1      43.803   7.996  11.102  1.00  0.00    -0.233 N 
ATOM     18  H12 UNL     1      43.455   8.148  10.155  1.00  0.00     0.174 HD
ATOM     19  H11 UNL     1      42.980   7.757  11.656  1.00  0.00     0.174 HD
ENDBRANCH  10  17
ENDBRANCH   1   9
BRANCH   8  20
HETATM   20  N8  UNL     1      44.944   5.148  12.863  1.00  0.00    -0.107 N 
HETATM   21  O3  UNL     1      43.804   5.471  13.172  1.00  0.00    -0.531 OA
HETATM   22  O4  UNL     1      45.920   5.093  13.798  1.00  0.00    -0.531 OA
ENDBRANCH   8  20
BRANCH   5  23
HETATM   23  N7  UNL     1      45.155   1.966   9.252  1.00  0.00    -0.334 N 
ATOM     24  H72 UNL     1      45.518   1.708   8.334  1.00  0.00     0.177 HD
ATOM     25  H71 UNL     1      44.640   1.293   9.820  1.00  0.00     0.177 HD
ENDBRANCH   5  23
TORSDOF 4
ENDMDL
MODEL 5
REMARK VINA RESULT: -7.124978854      2.268      4.726
REMARK  4 active torsions:
REMARK  status: ('A' for Active; 'I' for Inactive)
REMARK    1  A    between atoms: N1_1  and  C1_4 
REMARK    2  A    between atoms: N4_11  and  C3_12 
REMARK    3  A    between atoms: N6_16  and  N7_17 
REMARK    4  A    between atoms: C7_22  and  N8_23 
ROOT
HETATM    1  C3  UNL     1      46.087   5.235  11.458  1.00  0.00     0.117 A 
HETATM    2  C4  UNL     1      46.989   6.278  11.470  1.00  0.00     0.082 A 
HETATM    3  C5  UNL     1      47.680   6.634  12.625  1.00  0.00     0.143 A 
HETATM    4  N5  UNL     1      48.576   7.704  12.547  1.00  0.00    -0.081 NA
HETATM    5  N6  UNL     1      47.472   5.953  13.761  1.00  0.00    -0.211 N 
HETATM    6  C6  UNL     1      46.605   4.931  13.800  1.00  0.00     0.303 A 
HETATM    7  O2  UNL     1      46.400   4.280  14.871  1.00  0.00    -0.263 OA
HETATM    8  C7  UNL     1      45.901   4.559  12.646  1.00  0.00     0.201 A 
ENDROOT
BRANCH   1   9
HETATM    9  N4  UNL     1      45.356   4.824  10.321  1.00  0.00    -0.080 N 
HETATM   10  C1  UNL     1      44.065   5.101  10.004  1.00  0.00     0.702 A 
HETATM   11  N2  UNL     1      43.850   4.484   8.833  1.00  0.00    -0.139 N 
HETATM   12  C2  UNL     1      44.957   3.842   8.426  1.00  0.00     0.354 A 
ATOM     13  H2  UNL     1      42.968   4.500   8.323  1.00  0.00     0.189 HD
HETATM   14  O1  UNL     1      45.166   3.153   7.393  1.00  0.00    -0.245 OA
HETATM   15  N3  UNL     1      45.886   4.057   9.354  1.00  0.00    -0.229 N 
ATOM     16  H3  UNL     1      46.841   3.701   9.335  1.00  0.00     0.193 HD
BRANCH  10  17
HETATM   17  N1  UNL     1      43.292   5.809  10.725  1.00  0.00    -0.233 N 
ATOM     18  H12 UNL     1      42.282   5.867  10.591  1.00  0.00     0.174 HD
ATOM     19  H11 UNL     1      43.493   6.416  11.520  1.00  0.00     0.174 HD
ENDBRANCH  10  17
ENDBRANCH   1   9
BRANCH   8  20
HETATM   20  N8  UNL     1      44.991   3.492  12.668  1.00  0.00    -0.107 N 
HETATM   21  O3  UNL     1      45.323   2.389  12.253  1.00  0.00    -0.531 OA
HETATM   22  O4  UNL     1      43.745   3.696  13.152  1.00  0.00    -0.531 OA
ENDBRANCH   8  20
BRANCH   5  23
HETATM   23  N7  UNL     1      48.176   6.332  14.903  1.00  0.00    -0.334 N 
ATOM     24  H72 UNL     1      47.880   7.137  15.454  1.00  0.00     0.177 HD
ATOM     25  H71 UNL     1      48.995   5.786  15.173  1.00  0.00     0.177 HD
ENDBRANCH   5  23
TORSDOF 4
ENDMDL
