MODEL 1
REMARK VINA RESULT: -8.620465263      0.000      0.000
REMARK  5 active torsions:
REMARK  status: ('A' for Active; 'I' for Inactive)
REMARK    1  A    between atoms: O1_2  and  C2_3 
REMARK    2  A    between atoms: C2_3  and  C3_5 
REMARK    3  A    between atoms: C4_8  and  N2_9 
REMARK    4  A    between atoms: N5_18  and  N6_19 
REMARK    5  A    between atoms: N6_19  and  O3_21 
ROOT
HETATM    1  C3  UNL     1      47.134   5.731  14.105  1.00  0.00     0.154 A 
HETATM    2  N1  UNL     1      47.569   7.024  14.110  1.00  0.00    -0.184 N 
ATOM      3  H1  UNL     1      48.379   7.280  14.676  1.00  0.00     0.184 HD
HETATM    4  C4  UNL     1      46.952   7.959  13.385  1.00  0.00     0.677 A 
HETATM    5  N3  UNL     1      45.888   7.639  12.638  1.00  0.00    -0.186 N 
ATOM      6  H3  UNL     1      45.428   8.365  12.089  1.00  0.00     0.184 HD
HETATM    7  C5  UNL     1      45.420   6.398  12.594  1.00  0.00     0.128 A 
HETATM    8  C6  UNL     1      46.040   5.387  13.340  1.00  0.00     0.116 A 
HETATM    9  N4  UNL     1      45.531   4.057  13.287  1.00  0.00    -0.257 N 
ATOM     10  H4  UNL     1      45.963   3.303  13.820  1.00  0.00     0.191 HD
HETATM   11  N5  UNL     1      44.402   3.822  12.467  1.00  0.00    -0.088 N 
HETATM   12  N7  UNL     1      43.801   4.826  11.738  1.00  0.00    -0.122 N 
HETATM   13  N8  UNL     1      42.835   5.177  10.893  1.00  0.00     0.007 NA
HETATM   14  N9  UNL     1      43.307   6.412  10.941  1.00  0.00    -0.263 N 
ATOM     15  H9  UNL     1      43.031   7.288  10.497  1.00  0.00     0.186 HD
HETATM   16  C7  UNL     1      44.279   6.079  11.786  1.00  0.00     0.190 A 
ENDROOT
BRANCH   1  17
HETATM   17  C2  UNL     1      47.836   4.742  14.909  1.00  0.00     0.312 C 
HETATM   18  O2  UNL     1      47.662   3.512  14.936  1.00  0.00    -0.258 OA
BRANCH  17  19
HETATM   19  O1  UNL     1      48.841   5.251  15.766  1.00  0.00    -0.321 OA
HETATM   20  C1  UNL     1      49.332   4.435  16.811  1.00  0.00     0.213 C 
ENDBRANCH  17  19
ENDBRANCH   1  17
BRANCH   4  21
HETATM   21  N2  UNL     1      47.419   9.177  13.435  1.00  0.00    -0.234 N 
ATOM     22  H22 UNL     1      47.970   9.512  14.225  1.00  0.00     0.174 HD
ATOM     23  H21 UNL     1      47.218   9.797  12.651  1.00  0.00     0.174 HD
ENDBRANCH   4  21
BRANCH  11  24
HETATM   24  N6  UNL     1      43.904   2.512  12.417  1.00  0.00    -0.172 N 
ATOM     25  H6  UNL     1      44.325   1.785  12.994  1.00  0.00     0.219 HD
BRANCH  24  26
HETATM   26  O3  UNL     1      42.946   2.236  11.668  1.00  0.00    -0.272 OA
ATOM     27  H3  UNL     1      42.792   2.748  10.883  1.00  0.00     0.246 HD
ENDBRANCH  24  26
ENDBRANCH  11  24
TORSDOF 5
ENDMDL
MODEL 2
REMARK VINA RESULT: -8.181705337      2.625      4.690
REMARK  5 active torsions:
REMARK  status: ('A' for Active; 'I' for Inactive)
REMARK    1  A    between atoms: O1_2  and  C2_3 
REMARK    2  A    between atoms: C2_3  and  C3_5 
REMARK    3  A    between atoms: C4_8  and  N2_9 
REMARK    4  A    between atoms: N5_18  and  N6_19 
REMARK    5  A    between atoms: N6_19  and  O3_21 
ROOT
HETATM    1  C3  UNL     1      45.549   5.565  13.080  1.00  0.00     0.154 A 
HETATM    2  N1  UNL     1      46.634   5.204  13.824  1.00  0.00    -0.184 N 
ATOM      3  H1  UNL     1      46.702   4.251  14.183  1.00  0.00     0.184 HD
HETATM    4  C4  UNL     1      47.606   6.078  14.089  1.00  0.00     0.677 A 
HETATM    5  N3  UNL     1      47.531   7.331  13.625  1.00  0.00    -0.186 N 
ATOM      6  H3  UNL     1      48.283   7.988  13.836  1.00  0.00     0.184 HD
HETATM    7  C5  UNL     1      46.499   7.739  12.896  1.00  0.00     0.128 A 
HETATM    8  C6  UNL     1      45.458   6.853  12.595  1.00  0.00     0.116 A 
HETATM    9  N4  UNL     1      44.354   7.299  11.812  1.00  0.00    -0.257 N 
ATOM     10  H4  UNL     1      43.584   6.674  11.579  1.00  0.00     0.191 HD
HETATM   11  N5  UNL     1      44.368   8.643  11.370  1.00  0.00    -0.088 N 
HETATM   12  N7  UNL     1      45.400   9.505  11.673  1.00  0.00    -0.122 N 
HETATM   13  N8  UNL     1      45.913  10.728  11.558  1.00  0.00     0.007 NA
HETATM   14  N9  UNL     1      46.938  10.315  12.285  1.00  0.00    -0.263 N 
ATOM     15  H9  UNL     1      47.789  10.766  12.621  1.00  0.00     0.186 HD
HETATM   16  C7  UNL     1      46.440   9.088  12.410  1.00  0.00     0.190 A 
ENDROOT
BRANCH   1  17
HETATM   17  C2  UNL     1      44.511   4.581  12.813  1.00  0.00     0.312 C 
HETATM   18  O2  UNL     1      43.281   4.710  12.940  1.00  0.00    -0.258 OA
BRANCH  17  19
HETATM   19  O1  UNL     1      44.964   3.322  12.353  1.00  0.00    -0.321 OA
HETATM   20  C1  UNL     1      45.308   3.170  10.990  1.00  0.00     0.213 C 
ENDBRANCH  17  19
ENDBRANCH   1  17
BRANCH   4  21
HETATM   21  N2  UNL     1      48.617   5.668  14.807  1.00  0.00    -0.234 N 
ATOM     22  H22 UNL     1      49.128   4.815  14.582  1.00  0.00     0.174 HD
ATOM     23  H21 UNL     1      48.889   6.231  15.612  1.00  0.00     0.174 HD
ENDBRANCH   4  21
BRANCH  11  24
HETATM   24  N6  UNL     1      43.281   9.079  10.599  1.00  0.00    -0.172 N 
ATOM     25  H6  UNL     1      42.345   8.721  10.790  1.00  0.00     0.219 HD
BRANCH  24  26
HETATM   26  O3  UNL     1      43.457   9.903   9.680  1.00  0.00    -0.272 OA
ATOM     27  H3  UNL     1      42.740  10.129   9.099  1.00  0.00     0.246 HD
ENDBRANCH  24  26
ENDBRANCH  11  24
TORSDOF 5
ENDMDL
MODEL 3
REMARK VINA RESULT: -8.085171100      2.601      3.684
REMARK  5 active torsions:
REMARK  status: ('A' for Active; 'I' for Inactive)
REMARK    1  A    between atoms: O1_2  and  C2_3 
REMARK    2  A    between atoms: C2_3  and  C3_5 
REMARK    3  A    between atoms: C4_8  and  N2_9 
REMARK    4  A    between atoms: N5_18  and  N6_19 
REMARK    5  A    between atoms: N6_19  and  O3_21 
ROOT
HETATM    1  C3  UNL     1      47.978   6.106  12.901  1.00  0.00     0.154 A 
HETATM    2  N1  UNL     1      48.367   5.823  14.178  1.00  0.00    -0.184 N 
ATOM      3  H1  UNL     1      49.132   6.351  14.599  1.00  0.00     0.184 HD
HETATM    4  C4  UNL     1      47.760   4.868  14.885  1.00  0.00     0.677 A 
HETATM    5  N3  UNL     1      46.755   4.167  14.347  1.00  0.00    -0.186 N 
ATOM      6  H3  UNL     1      46.301   3.440  14.901  1.00  0.00     0.184 HD
HETATM    7  C5  UNL     1      46.335   4.397  13.109  1.00  0.00     0.128 A 
HETATM    8  C6  UNL     1      46.944   5.391  12.334  1.00  0.00     0.116 A 
HETATM    9  N4  UNL     1      46.486   5.632  11.006  1.00  0.00    -0.257 N 
ATOM     10  H4  UNL     1      46.912   6.350  10.422  1.00  0.00     0.191 HD
HETATM   11  N5  UNL     1      45.417   4.837  10.530  1.00  0.00    -0.088 N 
HETATM   12  N7  UNL     1      44.826   3.861  11.303  1.00  0.00    -0.122 N 
HETATM   13  N8  UNL     1      43.899   2.910  11.398  1.00  0.00     0.007 NA
HETATM   14  N9  UNL     1      44.324   2.686  12.632  1.00  0.00    -0.263 N 
ATOM     15  H9  UNL     1      44.043   2.034  13.364  1.00  0.00     0.186 HD
HETATM   16  C7  UNL     1      45.255   3.632  12.554  1.00  0.00     0.190 A 
ENDROOT
BRANCH   1  17
HETATM   17  C2  UNL     1      48.665   7.156  12.165  1.00  0.00     0.312 C 
HETATM   18  O2  UNL     1      48.183   8.195  11.682  1.00  0.00    -0.258 OA
BRANCH  17  19
HETATM   19  O1  UNL     1      50.055   6.965  11.979  1.00  0.00    -0.321 OA
HETATM   20  C1  UNL     1      50.831   8.024  11.453  1.00  0.00     0.213 C 
ENDBRANCH  17  19
ENDBRANCH   1  17
BRANCH   4  21
HETATM   21  N2  UNL     1      48.181   4.648  16.102  1.00  0.00    -0.234 N 
ATOM     22  H22 UNL     1      49.172   4.670  16.341  1.00  0.00     0.174 HD
ATOM     23  H21 UNL     1      47.484   4.452  16.819  1.00  0.00     0.174 HD
ENDBRANCH   4  21
BRANCH  11  24
HETATM   24  N6  UNL     1      44.968   5.076   9.223  1.00  0.00    -0.172 N 
ATOM     25  H6  UNL     1      45.516   5.667   8.597  1.00  0.00     0.219 HD
BRANCH  24  26
HETATM   26  O3  UNL     1      43.901   4.568   8.825  1.00  0.00    -0.272 OA
ATOM     27  H3  UNL     1      43.204   5.122   8.497  1.00  0.00     0.246 HD
ENDBRANCH  24  26
ENDBRANCH  11  24
TORSDOF 5
ENDMDL
MODEL 4
REMARK VINA RESULT: -7.985304715      3.027      5.782
REMARK  5 active torsions:
REMARK  status: ('A' for Active; 'I' for Inactive)
REMARK    1  A    between atoms: O1_2  and  C2_3 
REMARK    2  A    between atoms: C2_3  and  C3_5 
REMARK    3  A    between atoms: C4_8  and  N2_9 
REMARK    4  A    between atoms: N5_18  and  N6_19 
REMARK    5  A    between atoms: N6_19  and  O3_21 
ROOT
HETATM    1  C3  UNL     1      47.769   6.030  13.064  1.00  0.00     0.154 A 
HETATM    2  N1  UNL     1      46.545   5.849  12.489  1.00  0.00    -0.184 N 
ATOM      3  H1  UNL     1      46.345   6.283  11.587  1.00  0.00     0.184 HD
HETATM    4  C4  UNL     1      45.606   5.115  13.088  1.00  0.00     0.677 A 
HETATM    5  N3  UNL     1      45.853   4.540  14.271  1.00  0.00    -0.186 N 
ATOM      6  H3  UNL     1      45.125   3.980  14.715  1.00  0.00     0.184 HD
HETATM    7  C5  UNL     1      47.025   4.680  14.879  1.00  0.00     0.128 A 
HETATM    8  C6  UNL     1      48.037   5.443  14.283  1.00  0.00     0.116 A 
HETATM    9  N4  UNL     1      49.292   5.588  14.942  1.00  0.00    -0.257 N 
ATOM     10  H4  UNL     1      50.046   6.138  14.530  1.00  0.00     0.191 HD
HETATM   11  N5  UNL     1      49.454   4.941  16.190  1.00  0.00    -0.088 N 
HETATM   12  N7  UNL     1      48.449   4.193  16.765  1.00  0.00    -0.122 N 
HETATM   13  N8  UNL     1      48.054   3.441  17.790  1.00  0.00     0.007 NA
HETATM   14  N9  UNL     1      46.888   3.305  17.178  1.00  0.00    -0.263 N 
ATOM     15  H9  UNL     1      46.025   2.812  17.410  1.00  0.00     0.186 HD
HETATM   16  C7  UNL     1      47.266   4.054  16.146  1.00  0.00     0.190 A 
ENDROOT
BRANCH   1  17
HETATM   17  C2  UNL     1      48.765   6.837  12.378  1.00  0.00     0.312 C 
HETATM   18  O2  UNL     1      49.976   6.597  12.226  1.00  0.00    -0.258 OA
BRANCH  17  19
HETATM   19  O1  UNL     1      48.292   8.047  11.815  1.00  0.00    -0.321 OA
HETATM   20  C1  UNL     1      49.166   9.154  11.729  1.00  0.00     0.213 C 
ENDBRANCH  17  19
ENDBRANCH   1  17
BRANCH   4  21
HETATM   21  N2  UNL     1      44.456   4.983  12.483  1.00  0.00    -0.234 N 
ATOM     22  H22 UNL     1      44.264   5.430  11.587  1.00  0.00     0.174 HD
ATOM     23  H21 UNL     1      43.743   4.412  12.935  1.00  0.00     0.174 HD
ENDBRANCH   4  21
BRANCH  11  24
HETATM   24  N6  UNL     1      50.690   5.086  16.836  1.00  0.00    -0.172 N 
ATOM     25  H6  UNL     1      51.389   5.725  16.459  1.00  0.00     0.219 HD
BRANCH  24  26
HETATM   26  O3  UNL     1      50.936   4.433  17.870  1.00  0.00    -0.272 OA
ATOM     27  H3  UNL     1      50.575   4.710  18.704  1.00  0.00     0.246 HD
ENDBRANCH  24  26
ENDBRANCH  11  24
TORSDOF 5
ENDMDL
MODEL 5
REMARK VINA RESULT: -7.977846937      2.671      5.140
REMARK  5 active torsions:
REMARK  status: ('A' for Active; 'I' for Inactive)
REMARK    1  A    between atoms: O1_2  and  C2_3 
REMARK    2  A    between atoms: C2_3  and  C3_5 
REMARK    3  A    between atoms: C4_8  and  N2_9 
REMARK    4  A    between atoms: N5_18  and  N6_19 
REMARK    5  A    between atoms: N6_19  and  O3_21 
ROOT
HETATM    1  C3  UNL     1      44.887   4.485  12.013  1.00  0.00     0.154 A 
HETATM    2  N1  UNL     1      45.766   3.792  12.793  1.00  0.00    -0.184 N 
ATOM      3  H1  UNL     1      45.728   2.773  12.809  1.00  0.00     0.184 HD
HETATM    4  C4  UNL     1      46.675   4.428  13.534  1.00  0.00     0.677 A 
HETATM    5  N3  UNL     1      46.738   5.765  13.523  1.00  0.00    -0.186 N 
ATOM      6  H3  UNL     1      47.439   6.236  14.095  1.00  0.00     0.184 HD
HETATM    7  C5  UNL     1      45.909   6.492  12.785  1.00  0.00     0.128 A 
HETATM    8  C6  UNL     1      44.941   5.863  11.992  1.00  0.00     0.116 A 
HETATM    9  N4  UNL     1      44.054   6.651  11.201  1.00  0.00    -0.257 N 
ATOM     10  H4  UNL     1      43.341   6.218  10.616  1.00  0.00     0.191 HD
HETATM   11  N5  UNL     1      44.202   8.057  11.260  1.00  0.00    -0.088 N 
HETATM   12  N7  UNL     1      45.159   8.663  12.044  1.00  0.00    -0.122 N 
HETATM   13  N8  UNL     1      45.716   9.798  12.463  1.00  0.00     0.007 NA
HETATM   14  N9  UNL     1      46.540   9.067  13.197  1.00  0.00    -0.263 N 
ATOM     15  H9  UNL     1      47.303   9.294  13.834  1.00  0.00     0.186 HD
HETATM   16  C7  UNL     1      45.995   7.924  12.789  1.00  0.00     0.190 A 
ENDROOT
BRANCH   1  17
HETATM   17  C2  UNL     1      43.912   3.754  11.219  1.00  0.00     0.312 C 
HETATM   18  O2  UNL     1      43.194   2.802  11.571  1.00  0.00    -0.258 OA
BRANCH  17  19
HETATM   19  O1  UNL     1      43.767   4.183   9.878  1.00  0.00    -0.321 OA
HETATM   20  C1  UNL     1      44.719   3.771   8.917  1.00  0.00     0.213 C 
ENDBRANCH  17  19
ENDBRANCH   1  17
BRANCH   4  21
HETATM   21  N2  UNL     1      47.486   3.705  14.258  1.00  0.00    -0.234 N 
ATOM     22  H22 UNL     1      47.383   2.693  14.336  1.00  0.00     0.174 HD
ATOM     23  H21 UNL     1      48.239   4.183  14.752  1.00  0.00     0.174 HD
ENDBRANCH   4  21
BRANCH  11  24
HETATM   24  N6  UNL     1      43.329   8.829  10.480  1.00  0.00    -0.172 N 
ATOM     25  H6  UNL     1      42.332   8.613  10.467  1.00  0.00     0.219 HD
BRANCH  24  26
HETATM   26  O3  UNL     1      43.769   9.780   9.804  1.00  0.00    -0.272 OA
ATOM     27  H3  UNL     1      43.381   9.984   8.961  1.00  0.00     0.246 HD
ENDBRANCH  24  26
ENDBRANCH  11  24
TORSDOF 5
ENDMDL
