MODEL 1
REMARK VINA RESULT: -5.372693660      0.000      0.000
REMARK  3 active torsions:
REMARK  status: ('A' for Active; 'I' for Inactive)
REMARK    1  A    between atoms: C2_2  and  C3_3 
REMARK    2  A    between atoms: C3_3  and  N1_4 
REMARK    3  A    between atoms: N2_8  and  C6_10 
ROOT
HETATM    1  N1  UNL     1      61.617  13.884  24.620  1.00  0.00    -0.293 N 
HETATM    2  C4  UNL     1      62.870  14.465  24.516  1.00  0.00     0.283 C 
HETATM    3  O1  UNL     1      63.067  15.647  24.042  1.00  0.00    -0.265 OA
HETATM    4  C5  UNL     1      63.989  13.668  24.977  1.00  0.00     0.147 C 
HETATM    5  N2  UNL     1      65.191  13.995  25.236  1.00  0.00    -0.331 N 
ATOM      6  H2  UNL     1      65.475  14.968  25.118  1.00  0.00     0.168 HD
HETATM    7  S3  UNL     1      63.278  12.006  25.116  1.00  0.00    -0.037 SA
HETATM    8  C7  UNL     1      61.568  12.578  25.163  1.00  0.00     0.150 C 
HETATM    9  S4  UNL     1      60.276  11.742  25.718  1.00  0.00    -0.052 SA
ENDROOT
BRANCH   5  10
HETATM   10  C6  UNL     1      66.136  13.061  25.678  1.00  0.00     0.150 C 
HETATM   11  S1  UNL     1      66.500  13.010  27.273  1.00  0.00    -0.052 SA
HETATM   12  S2  UNL     1      66.982  11.908  24.615  1.00  0.00    -0.020 SA
ENDBRANCH   5  10
BRANCH   1  13
HETATM   13  C3  UNL     1      60.365  14.553  24.197  1.00  0.00     0.160 C 
BRANCH  13  14
HETATM   14  C2  UNL     1      60.263  14.595  22.715  1.00  0.00    -0.017 C 
HETATM   15  C1  UNL     1      60.321  13.464  22.027  1.00  0.00     0.008 C 
ENDBRANCH  13  14
ENDBRANCH   1  13
TORSDOF 3
ENDMDL
MODEL 2
REMARK VINA RESULT: -5.300011254      2.112      5.318
REMARK  3 active torsions:
REMARK  status: ('A' for Active; 'I' for Inactive)
REMARK    1  A    between atoms: C2_2  and  C3_3 
REMARK    2  A    between atoms: C3_3  and  N1_4 
REMARK    3  A    between atoms: N2_8  and  C6_10 
ROOT
HETATM    1  N1  UNL     1      64.707  12.494  25.599  1.00  0.00    -0.293 N 
HETATM    2  C4  UNL     1      64.230  13.698  25.110  1.00  0.00     0.283 C 
HETATM    3  O1  UNL     1      64.925  14.783  25.092  1.00  0.00    -0.265 OA
HETATM    4  C5  UNL     1      62.873  13.693  24.599  1.00  0.00     0.147 C 
HETATM    5  N2  UNL     1      62.252  14.541  23.883  1.00  0.00    -0.331 N 
ATOM      6  H2  UNL     1      62.737  15.388  23.587  1.00  0.00     0.168 HD
HETATM    7  S3  UNL     1      62.204  12.131  25.232  1.00  0.00    -0.037 SA
HETATM    8  C7  UNL     1      63.819  11.394  25.548  1.00  0.00     0.150 C 
HETATM    9  S4  UNL     1      64.143   9.799  25.728  1.00  0.00    -0.052 SA
ENDROOT
BRANCH   5  10
HETATM   10  C6  UNL     1      60.923  14.348  23.488  1.00  0.00     0.150 C 
HETATM   11  S1  UNL     1      60.628  13.512  22.112  1.00  0.00    -0.052 SA
HETATM   12  S2  UNL     1      59.509  14.954  24.387  1.00  0.00    -0.020 SA
ENDBRANCH   5  10
BRANCH   1  13
HETATM   13  C3  UNL     1      66.067  12.317  26.159  1.00  0.00     0.160 C 
BRANCH  13  14
HETATM   14  C2  UNL     1      67.053  12.059  25.076  1.00  0.00    -0.017 C 
HETATM   15  C1  UNL     1      68.182  11.427  25.361  1.00  0.00     0.008 C 
ENDBRANCH  13  14
ENDBRANCH   1  13
TORSDOF 3
ENDMDL
MODEL 3
REMARK VINA RESULT: -5.289462009      2.073      5.422
REMARK  3 active torsions:
REMARK  status: ('A' for Active; 'I' for Inactive)
REMARK    1  A    between atoms: C2_2  and  C3_3 
REMARK    2  A    between atoms: C3_3  and  N1_4 
REMARK    3  A    between atoms: N2_8  and  C6_10 
ROOT
HETATM    1  N1  UNL     1      64.888  12.682  25.487  1.00  0.00    -0.293 N 
HETATM    2  C4  UNL     1      64.337  13.866  25.024  1.00  0.00     0.283 C 
HETATM    3  O1  UNL     1      64.977  14.983  24.992  1.00  0.00    -0.265 OA
HETATM    4  C5  UNL     1      62.964  13.798  24.560  1.00  0.00     0.147 C 
HETATM    5  N2  UNL     1      62.279  14.620  23.873  1.00  0.00    -0.331 N 
ATOM      6  H2  UNL     1      62.712  15.491  23.568  1.00  0.00     0.168 HD
HETATM    7  S3  UNL     1      62.394  12.201  25.202  1.00  0.00    -0.037 SA
HETATM    8  C7  UNL     1      64.053  11.541  25.456  1.00  0.00     0.150 C 
HETATM    9  S4  UNL     1      64.459   9.963  25.612  1.00  0.00    -0.052 SA
ENDROOT
BRANCH   5  10
HETATM   10  C6  UNL     1      60.947  14.365  23.523  1.00  0.00     0.150 C 
HETATM   11  S1  UNL     1      60.646  13.514  22.157  1.00  0.00    -0.052 SA
HETATM   12  S2  UNL     1      59.538  14.907  24.469  1.00  0.00    -0.020 SA
ENDBRANCH   5  10
BRANCH   1  13
HETATM   13  C3  UNL     1      66.274  12.568  25.997  1.00  0.00     0.160 C 
BRANCH  13  14
HETATM   14  C2  UNL     1      66.357  13.032  27.406  1.00  0.00    -0.017 C 
HETATM   15  C1  UNL     1      67.531  13.039  28.021  1.00  0.00     0.008 C 
ENDBRANCH  13  14
ENDBRANCH   1  13
TORSDOF 3
ENDMDL
MODEL 4
REMARK VINA RESULT: -5.227400319      4.246      6.123
REMARK  3 active torsions:
REMARK  status: ('A' for Active; 'I' for Inactive)
REMARK    1  A    between atoms: C2_2  and  C3_3 
REMARK    2  A    between atoms: C3_3  and  N1_4 
REMARK    3  A    between atoms: N2_8  and  C6_10 
ROOT
HETATM    1  N1  UNL     1      66.316  11.800  25.250  1.00  0.00    -0.293 N 
HETATM    2  C4  UNL     1      67.241  10.783  25.084  1.00  0.00     0.283 C 
HETATM    3  O1  UNL     1      68.482  10.891  25.415  1.00  0.00    -0.265 OA
HETATM    4  C5  UNL     1      66.745   9.550  24.504  1.00  0.00     0.147 C 
HETATM    5  N2  UNL     1      67.265   8.390  24.451  1.00  0.00    -0.331 N 
ATOM      6  H2  UNL     1      68.183   8.239  24.869  1.00  0.00     0.168 HD
HETATM    7  S3  UNL     1      65.135  10.035  23.828  1.00  0.00    -0.037 SA
HETATM    8  C7  UNL     1      64.991  11.524  24.835  1.00  0.00     0.150 C 
HETATM    9  S4  UNL     1      63.615  12.343  25.171  1.00  0.00    -0.052 SA
ENDROOT
BRANCH   5  10
HETATM   10  C6  UNL     1      66.614   7.313  23.836  1.00  0.00     0.150 C 
HETATM   11  S1  UNL     1      65.687   6.328  24.759  1.00  0.00    -0.052 SA
HETATM   12  S2  UNL     1      66.723   6.932  22.100  1.00  0.00    -0.020 SA
ENDBRANCH   5  10
BRANCH   1  13
HETATM   13  C3  UNL     1      66.646  13.124  25.825  1.00  0.00     0.160 C 
BRANCH  13  14
HETATM   14  C2  UNL     1      66.545  13.095  27.308  1.00  0.00    -0.017 C 
HETATM   15  C1  UNL     1      67.652  13.070  28.036  1.00  0.00     0.008 C 
ENDBRANCH  13  14
ENDBRANCH   1  13
TORSDOF 3
ENDMDL
MODEL 5
REMARK VINA RESULT: -5.160954332      3.813      4.932
REMARK  3 active torsions:
REMARK  status: ('A' for Active; 'I' for Inactive)
REMARK    1  A    between atoms: C2_2  and  C3_3 
REMARK    2  A    between atoms: C3_3  and  N1_4 
REMARK    3  A    between atoms: N2_8  and  C6_10 
ROOT
HETATM    1  N1  UNL     1      59.636  13.753  23.656  1.00  0.00    -0.293 N 
HETATM    2  C4  UNL     1      58.960  12.601  24.024  1.00  0.00     0.283 C 
HETATM    3  O1  UNL     1      57.714  12.397  23.771  1.00  0.00    -0.265 OA
HETATM    4  C5  UNL     1      59.736  11.597  24.727  1.00  0.00     0.147 C 
HETATM    5  N2  UNL     1      59.483  10.375  24.972  1.00  0.00    -0.331 N 
ATOM      6  H2  UNL     1      58.604   9.976  24.646  1.00  0.00     0.168 HD
HETATM    7  S3  UNL     1      61.229  12.502  25.213  1.00  0.00    -0.037 SA
HETATM    8  C7  UNL     1      61.004  13.823  24.007  1.00  0.00     0.150 C 
HETATM    9  S4  UNL     1      62.155  14.854  23.465  1.00  0.00    -0.052 SA
ENDROOT
BRANCH   5  10
HETATM   10  C6  UNL     1      60.377   9.560  25.678  1.00  0.00     0.150 C 
HETATM   11  S1  UNL     1      61.261   8.463  24.844  1.00  0.00    -0.052 SA
HETATM   12  S2  UNL     1      60.626   9.631  27.441  1.00  0.00    -0.020 SA
ENDBRANCH   5  10
BRANCH   1  13
HETATM   13  C3  UNL     1      59.001  14.880  22.933  1.00  0.00     0.160 C 
BRANCH  13  14
HETATM   14  C2  UNL     1      57.882  15.452  23.726  1.00  0.00    -0.017 C 
HETATM   15  C1  UNL     1      56.742  15.752  23.120  1.00  0.00     0.008 C 
ENDBRANCH  13  14
ENDBRANCH   1  13
TORSDOF 3
ENDMDL
