MODEL 1
REMARK VINA RESULT: -7.779829562      0.000      0.000
REMARK  3 active torsions:
REMARK  status: ('A' for Active; 'I' for Inactive)
REMARK    1  A    between atoms: N1_3  and  C3_4 
REMARK    2  A    between atoms: C3_4  and  N2_5 
REMARK    3  A    between atoms: C8_11  and  O2_12 
ROOT
HETATM    1  C1  UNL     1      62.409  10.742  25.192  1.00  0.00     0.064 C 
HETATM    2  C2  UNL     1      62.694  12.024  25.030  1.00  0.00     0.107 A 
HETATM    3  N1  UNL     1      64.005  12.616  25.158  1.00  0.00    -0.277 N 
HETATM    4  C8  UNL     1      63.869  13.989  24.908  1.00  0.00     0.172 A 
HETATM    5  C9  UNL     1      62.587  14.302  24.636  1.00  0.00     0.065 A 
HETATM    6  C10 UNL     1      62.116  15.655  24.330  1.00  0.00     0.062 C 
HETATM    7  C11 UNL     1      61.268  15.749  23.097  1.00  0.00     0.006 C 
HETATM    8  C12 UNL     1      59.948  15.031  23.248  1.00  0.00     0.002 C 
HETATM    9  C13 UNL     1      60.099  13.532  23.117  1.00  0.00     0.020 C 
HETATM   10  C14 UNL     1      60.408  12.952  24.482  1.00  0.00     0.131 C 
HETATM   11  N3  UNL     1      61.832  13.102  24.703  1.00  0.00    -0.333 N 
ENDROOT
BRANCH   3  12
HETATM   12  C3  UNL     1      65.173  11.852  25.461  1.00  0.00     0.163 C 
BRANCH  12  13
HETATM   13  N2  UNL     1      66.310  12.125  24.631  1.00  0.00    -0.275 NA
HETATM   14  C4  UNL     1      66.594  10.887  23.903  1.00  0.00     0.122 C 
HETATM   15  C5  UNL     1      68.002  10.877  23.333  1.00  0.00     0.182 C 
HETATM   16  O1  UNL     1      68.949  10.890  24.363  1.00  0.00    -0.389 OA
HETATM   17  C6  UNL     1      68.347  11.220  25.580  1.00  0.00     0.182 C 
HETATM   18  C7  UNL     1      67.490  12.432  25.432  1.00  0.00     0.122 C 
ENDBRANCH  12  13
ENDBRANCH   3  12
BRANCH   4  19
HETATM   19  O2  UNL     1      64.850  14.962  24.913  1.00  0.00    -0.344 OA
ATOM     20  H2  UNL     1      64.792  15.858  24.602  1.00  0.00     0.219 HD
ENDBRANCH   4  19
TORSDOF 3
ENDMDL
MODEL 2
REMARK VINA RESULT: -7.432333799      1.940      3.321
REMARK  3 active torsions:
REMARK  status: ('A' for Active; 'I' for Inactive)
REMARK    1  A    between atoms: N1_3  and  C3_4 
REMARK    2  A    between atoms: C3_4  and  N2_5 
REMARK    3  A    between atoms: C8_11  and  O2_12 
ROOT
HETATM    1  C1  UNL     1      63.363  14.991  24.348  1.00  0.00     0.064 C 
HETATM    2  C2  UNL     1      63.221  13.732  24.728  1.00  0.00     0.107 A 
HETATM    3  N1  UNL     1      64.228  12.935  25.388  1.00  0.00    -0.277 N 
HETATM    4  C8  UNL     1      63.675  11.667  25.615  1.00  0.00     0.172 A 
HETATM    5  C9  UNL     1      62.411  11.607  25.152  1.00  0.00     0.065 A 
HETATM    6  C10 UNL     1      61.558  10.418  25.238  1.00  0.00     0.062 C 
HETATM    7  C11 UNL     1      60.191  10.679  25.797  1.00  0.00     0.006 C 
HETATM    8  C12 UNL     1      59.352  11.550  24.892  1.00  0.00     0.002 C 
HETATM    9  C13 UNL     1      59.746  13.006  24.982  1.00  0.00     0.020 C 
HETATM   10  C14 UNL     1      60.850  13.276  23.981  1.00  0.00     0.131 C 
HETATM   11  N3  UNL     1      62.099  12.874  24.596  1.00  0.00    -0.333 N 
ENDROOT
BRANCH   3  12
HETATM   12  C3  UNL     1      65.517  13.446  25.731  1.00  0.00     0.163 C 
BRANCH  12  13
HETATM   13  N2  UNL     1      66.329  12.566  26.520  1.00  0.00    -0.275 NA
HETATM   14  C4  UNL     1      66.881  13.378  27.604  1.00  0.00     0.122 C 
HETATM   15  C5  UNL     1      68.086  12.716  28.250  1.00  0.00     0.182 C 
HETATM   16  O1  UNL     1      69.139  12.612  27.335  1.00  0.00    -0.389 OA
HETATM   17  C6  UNL     1      68.686  12.853  26.035  1.00  0.00     0.182 C 
HETATM   18  C7  UNL     1      67.458  12.055  25.750  1.00  0.00     0.122 C 
ENDBRANCH  12  13
ENDBRANCH   3  12
BRANCH   4  19
HETATM   19  O2  UNL     1      64.260  10.572  26.220  1.00  0.00    -0.344 OA
ATOM     20  H2  UNL     1      63.836   9.814  26.603  1.00  0.00     0.219 HD
ENDBRANCH   4  19
TORSDOF 3
ENDMDL
MODEL 3
REMARK VINA RESULT: -7.415537676      2.927      3.758
REMARK  3 active torsions:
REMARK  status: ('A' for Active; 'I' for Inactive)
REMARK    1  A    between atoms: N1_3  and  C3_4 
REMARK    2  A    between atoms: C3_4  and  N2_5 
REMARK    3  A    between atoms: C8_11  and  O2_12 
ROOT
HETATM    1  C1  UNL     1      59.501  11.314  25.021  1.00  0.00     0.064 C 
HETATM    2  C2  UNL     1      60.694  11.886  24.983  1.00  0.00     0.107 A 
HETATM    3  N1  UNL     1      61.959  11.201  25.106  1.00  0.00    -0.277 N 
HETATM    4  C8  UNL     1      62.969  12.169  25.013  1.00  0.00     0.172 A 
HETATM    5  C9  UNL     1      62.441  13.397  24.845  1.00  0.00     0.065 A 
HETATM    6  C10 UNL     1      63.233  14.623  24.714  1.00  0.00     0.062 C 
HETATM    7  C11 UNL     1      62.850  15.481  23.545  1.00  0.00     0.006 C 
HETATM    8  C12 UNL     1      61.465  16.067  23.686  1.00  0.00     0.002 C 
HETATM    9  C13 UNL     1      60.387  15.051  23.386  1.00  0.00     0.020 C 
HETATM   10  C14 UNL     1      60.047  14.308  24.661  1.00  0.00     0.131 C 
HETATM   11  N3  UNL     1      61.029  13.255  24.822  1.00  0.00    -0.333 N 
ENDROOT
BRANCH   3  12
HETATM   12  C3  UNL     1      62.060   9.784  25.261  1.00  0.00     0.163 C 
BRANCH  12  13
HETATM   13  N2  UNL     1      63.133   9.340  26.102  1.00  0.00    -0.275 NA
HETATM   14  C4  UNL     1      63.893   8.366  25.317  1.00  0.00     0.122 C 
HETATM   15  C5  UNL     1      64.773   7.495  26.197  1.00  0.00     0.182 C 
HETATM   16  O1  UNL     1      63.991   6.708  27.048  1.00  0.00    -0.389 OA
HETATM   17  C6  UNL     1      62.671   7.167  27.067  1.00  0.00     0.182 C 
HETATM   18  C7  UNL     1      62.630   8.643  27.280  1.00  0.00     0.122 C 
ENDBRANCH  12  13
ENDBRANCH   3  12
BRANCH   4  19
HETATM   19  O2  UNL     1      64.337  11.988  25.072  1.00  0.00    -0.344 OA
ATOM     20  H2  UNL     1      65.002  12.607  25.350  1.00  0.00     0.219 HD
ENDBRANCH   4  19
TORSDOF 3
ENDMDL
MODEL 4
REMARK VINA RESULT: -7.375535716      2.882      6.961
REMARK  3 active torsions:
REMARK  status: ('A' for Active; 'I' for Inactive)
REMARK    1  A    between atoms: N1_3  and  C3_4 
REMARK    2  A    between atoms: C3_4  and  N2_5 
REMARK    3  A    between atoms: C8_11  and  O2_12 
ROOT
HETATM    1  C1  UNL     1      60.509  11.780  25.283  1.00  0.00     0.064 C 
HETATM    2  C2  UNL     1      61.259  12.829  24.989  1.00  0.00     0.107 A 
HETATM    3  N1  UNL     1      60.773  14.161  24.719  1.00  0.00    -0.277 N 
HETATM    4  C8  UNL     1      61.888  14.968  24.454  1.00  0.00     0.172 A 
HETATM    5  C9  UNL     1      63.027  14.251  24.535  1.00  0.00     0.065 A 
HETATM    6  C10 UNL     1      64.365  14.804  24.313  1.00  0.00     0.062 C 
HETATM    7  C11 UNL     1      65.356  14.473  25.389  1.00  0.00     0.006 C 
HETATM    8  C12 UNL     1      65.678  12.998  25.444  1.00  0.00     0.002 C 
HETATM    9  C13 UNL     1      64.578  12.202  26.110  1.00  0.00     0.020 C 
HETATM   10  C14 UNL     1      63.565  11.796  25.059  1.00  0.00     0.131 C 
HETATM   11  N3  UNL     1      62.669  12.919  24.866  1.00  0.00    -0.333 N 
ENDROOT
BRANCH   3  12
HETATM   12  C3  UNL     1      59.386  14.503  24.765  1.00  0.00     0.163 C 
BRANCH  12  13
HETATM   13  N2  UNL     1      58.845  15.017  23.541  1.00  0.00    -0.275 NA
HETATM   14  C4  UNL     1      57.551  15.609  23.880  1.00  0.00     0.122 C 
HETATM   15  C5  UNL     1      56.674  15.793  22.653  1.00  0.00     0.182 C 
HETATM   16  O1  UNL     1      56.345  14.553  22.095  1.00  0.00    -0.389 OA
HETATM   17  C6  UNL     1      57.154  13.544  22.625  1.00  0.00     0.182 C 
HETATM   18  C7  UNL     1      58.590  13.946  22.584  1.00  0.00     0.122 C 
ENDBRANCH  12  13
ENDBRANCH   3  12
BRANCH   4  19
HETATM   19  O2  UNL     1      61.919  16.314  24.146  1.00  0.00    -0.344 OA
ATOM     20  H2  UNL     1      61.641  17.048  24.682  1.00  0.00     0.219 HD
ENDBRANCH   4  19
TORSDOF 3
ENDMDL
MODEL 5
REMARK VINA RESULT: -7.365612352      3.141      4.487
REMARK  3 active torsions:
REMARK  status: ('A' for Active; 'I' for Inactive)
REMARK    1  A    between atoms: N1_3  and  C3_4 
REMARK    2  A    between atoms: C3_4  and  N2_5 
REMARK    3  A    between atoms: C8_11  and  O2_12 
ROOT
HETATM    1  C1  UNL     1      59.198  11.436  24.744  1.00  0.00     0.064 C 
HETATM    2  C2  UNL     1      60.433  11.909  24.752  1.00  0.00     0.107 A 
HETATM    3  N1  UNL     1      61.637  11.113  24.789  1.00  0.00    -0.277 N 
HETATM    4  C8  UNL     1      62.724  11.999  24.785  1.00  0.00     0.172 A 
HETATM    5  C9  UNL     1      62.299  13.277  24.749  1.00  0.00     0.065 A 
HETATM    6  C10 UNL     1      63.189  14.441  24.735  1.00  0.00     0.062 C 
HETATM    7  C11 UNL     1      62.876  15.444  23.664  1.00  0.00     0.006 C 
HETATM    8  C12 UNL     1      61.545  16.124  23.881  1.00  0.00     0.002 C 
HETATM    9  C13 UNL     1      60.385  15.237  23.490  1.00  0.00     0.020 C 
HETATM   10  C14 UNL     1      59.989  14.396  24.687  1.00  0.00     0.131 C 
HETATM   11  N3  UNL     1      60.880  13.255  24.728  1.00  0.00    -0.333 N 
ENDROOT
BRANCH   3  12
HETATM   12  C3  UNL     1      61.621   9.685  24.798  1.00  0.00     0.163 C 
BRANCH  12  13
HETATM   13  N2  UNL     1      61.227   9.089  26.042  1.00  0.00    -0.275 NA
HETATM   14  C4  UNL     1      62.153   9.600  27.053  1.00  0.00     0.122 C 
HETATM   15  C5  UNL     1      62.151   8.742  28.307  1.00  0.00     0.182 C 
HETATM   16  O1  UNL     1      62.631   7.459  28.024  1.00  0.00    -0.389 OA
HETATM   17  C6  UNL     1      62.676   7.243  26.644  1.00  0.00     0.182 C 
HETATM   18  C7  UNL     1      61.386   7.639  26.008  1.00  0.00     0.122 C 
ENDBRANCH  12  13
ENDBRANCH   3  12
BRANCH   4  19
HETATM   19  O2  UNL     1      64.073  11.702  24.809  1.00  0.00    -0.344 OA
ATOM     20  H2  UNL     1      64.600  11.302  24.128  1.00  0.00     0.219 HD
ENDBRANCH   4  19
TORSDOF 3
ENDMDL
