MODEL 1
REMARK VINA RESULT: -6.323269931      0.000      0.000
REMARK  7 active torsions:
REMARK  status: ('A' for Active; 'I' for Inactive)
REMARK    1  A    between atoms: C1_2  and  N1_3 
REMARK    2  A    between atoms: C1_2  and  N4_18 
REMARK    3  A    between atoms: N1_3  and  C2_5 
REMARK    4  A    between atoms: N2_8  and  C5_9 
REMARK    5  A    between atoms: C5_9  and  N3_11 
REMARK    6  A    between atoms: N3_11  and  C6_13 
REMARK    7  A    between atoms: N4_18  and  C11_20 
ROOT
HETATM    1  C2  UNL     1      -2.762   5.296  13.463  1.00  0.00     0.087 C 
HETATM    2  C3  UNL     1      -1.266   5.048  13.182  1.00  0.00     0.045 C 
HETATM    3  C4  UNL     1      -1.009   4.810  11.721  1.00  0.00     0.127 C 
HETATM    4  N2  UNL     1      -1.971   3.847  11.234  1.00  0.00    -0.358 N 
HETATM    5  C9  UNL     1      -3.387   4.067  11.466  1.00  0.00     0.127 C 
HETATM    6  C10 UNL     1      -3.470   5.453  12.109  1.00  0.00     0.045 C 
ENDROOT
BRANCH   1   7
HETATM    7  N1  UNL     1      -3.272   4.073  14.052  1.00  0.00    -0.363 N 
ATOM      8  H1  UNL     1      -2.938   3.166  13.728  1.00  0.00     0.162 HD
BRANCH   7   9
HETATM    9  C1  UNL     1      -4.238   4.155  15.082  1.00  0.00     0.168 C 
HETATM   10  S1  UNL     1      -5.169   5.492  15.246  1.00  0.00    -0.041 SA
BRANCH   9  11
HETATM   11  N4  UNL     1      -4.362   3.058  15.983  1.00  0.00    -0.361 N 
ATOM     12  H4  UNL     1      -3.742   2.974  16.788  1.00  0.00     0.162 HD
BRANCH  11  13
HETATM   13  C11 UNL     1      -5.386   2.064  15.734  1.00  0.00     0.111 C 
HETATM   14  C12 UNL     1      -6.553   2.354  16.655  1.00  0.00     0.054 C 
HETATM   15  C13 UNL     1      -6.752   1.061  17.418  1.00  0.00     0.234 C 
HETATM   16  N5  UNL     1      -5.478   0.405  17.362  1.00  0.00    -0.073 N 
HETATM   17  C14 UNL     1      -4.845   0.722  16.118  1.00  0.00     0.257 C 
ATOM     18  H52 UNL     1      -4.891   0.628  18.165  1.00  0.00     0.277 HD
ATOM     19  H51 UNL     1      -5.552  -0.601  17.515  1.00  0.00     0.277 HD
ENDBRANCH  11  13
ENDBRANCH   9  11
ENDBRANCH   7   9
ENDBRANCH   1   7
BRANCH   4  20
HETATM   20  C5  UNL     1      -1.574   2.661  10.514  1.00  0.00     0.170 C 
HETATM   21  S2  UNL     1      -0.686   2.931   9.183  1.00  0.00    -0.041 SA
BRANCH  20  22
HETATM   22  N3  UNL     1      -1.972   1.404  10.968  1.00  0.00    -0.362 N 
ATOM     23  H3  UNL     1      -1.554   1.109  11.851  1.00  0.00     0.162 HD
BRANCH  22  24
HETATM   24  C6  UNL     1      -2.875   0.473  10.385  1.00  0.00     0.084 A 
HETATM   25  C7  UNL     1      -2.810  -0.929  10.992  1.00  0.00     0.027 A 
HETATM   26  C8  UNL     1      -4.072  -0.109  11.020  1.00  0.00     0.027 A 
ENDBRANCH  22  24
ENDBRANCH  20  22
ENDBRANCH   4  20
TORSDOF 7
ENDMDL
MODEL 2
REMARK VINA RESULT: -6.246350801      2.801      5.507
REMARK  7 active torsions:
REMARK  status: ('A' for Active; 'I' for Inactive)
REMARK    1  A    between atoms: C1_2  and  N1_3 
REMARK    2  A    between atoms: C1_2  and  N4_18 
REMARK    3  A    between atoms: N1_3  and  C2_5 
REMARK    4  A    between atoms: N2_8  and  C5_9 
REMARK    5  A    between atoms: C5_9  and  N3_11 
REMARK    6  A    between atoms: N3_11  and  C6_13 
REMARK    7  A    between atoms: N4_18  and  C11_20 
ROOT
HETATM    1  C2  UNL     1      -4.804   4.285  15.453  1.00  0.00     0.087 C 
HETATM    2  C3  UNL     1      -3.436   4.733  14.901  1.00  0.00     0.045 C 
HETATM    3  C4  UNL     1      -3.535   6.044  14.173  1.00  0.00     0.127 C 
HETATM    4  N2  UNL     1      -4.658   5.984  13.266  1.00  0.00    -0.358 N 
HETATM    5  C9  UNL     1      -5.963   5.586  13.765  1.00  0.00     0.127 C 
HETATM    6  C10 UNL     1      -5.783   5.455  15.278  1.00  0.00     0.045 C 
ENDROOT
BRANCH   1   7
HETATM    7  N1  UNL     1      -5.268   3.228  14.575  1.00  0.00    -0.363 N 
ATOM      8  H1  UNL     1      -5.893   3.440  13.798  1.00  0.00     0.162 HD
BRANCH   7   9
HETATM    9  C1  UNL     1      -4.844   1.899  14.812  1.00  0.00     0.168 C 
HETATM   10  S1  UNL     1      -5.012   1.222  16.292  1.00  0.00    -0.041 SA
BRANCH   9  11
HETATM   11  N4  UNL     1      -4.246   1.179  13.737  1.00  0.00    -0.361 N 
ATOM     12  H4  UNL     1      -3.716   0.326  13.915  1.00  0.00     0.162 HD
BRANCH  11  13
HETATM   13  C11 UNL     1      -4.406   1.681  12.387  1.00  0.00     0.111 C 
HETATM   14  C12 UNL     1      -4.598   0.493  11.467  1.00  0.00     0.054 C 
HETATM   15  C13 UNL     1      -3.502   0.647  10.432  1.00  0.00     0.234 C 
HETATM   16  N5  UNL     1      -2.497   1.438  11.080  1.00  0.00    -0.073 N 
HETATM   17  C14 UNL     1      -3.131   2.353  11.980  1.00  0.00     0.257 C 
ATOM     18  H52 UNL     1      -1.790   0.866  11.542  1.00  0.00     0.277 HD
ATOM     19  H51 UNL     1      -1.885   1.909  10.414  1.00  0.00     0.277 HD
ENDBRANCH  11  13
ENDBRANCH   9  11
ENDBRANCH   7   9
ENDBRANCH   1   7
BRANCH   4  20
HETATM   20  C5  UNL     1      -4.534   6.313  11.866  1.00  0.00     0.170 C 
HETATM   21  S2  UNL     1      -3.011   6.440  11.324  1.00  0.00    -0.041 SA
BRANCH  20  22
HETATM   22  N3  UNL     1      -5.678   6.513  11.094  1.00  0.00    -0.362 N 
ATOM     23  H3  UNL     1      -6.144   5.662  10.780  1.00  0.00     0.162 HD
BRANCH  22  24
HETATM   24  C6  UNL     1      -6.291   7.728  10.679  1.00  0.00     0.084 A 
HETATM   25  C7  UNL     1      -7.391   8.227  11.615  1.00  0.00     0.027 A 
HETATM   26  C8  UNL     1      -6.161   9.045  11.328  1.00  0.00     0.027 A 
ENDBRANCH  22  24
ENDBRANCH  20  22
ENDBRANCH   4  20
TORSDOF 7
ENDMDL
MODEL 3
REMARK VINA RESULT: -6.243631740      1.579      5.433
REMARK  7 active torsions:
REMARK  status: ('A' for Active; 'I' for Inactive)
REMARK    1  A    between atoms: C1_2  and  N1_3 
REMARK    2  A    between atoms: C1_2  and  N4_18 
REMARK    3  A    between atoms: N1_3  and  C2_5 
REMARK    4  A    between atoms: N2_8  and  C5_9 
REMARK    5  A    between atoms: C5_9  and  N3_11 
REMARK    6  A    between atoms: N3_11  and  C6_13 
REMARK    7  A    between atoms: N4_18  and  C11_20 
ROOT
HETATM    1  C2  UNL     1      -1.377   5.559  12.639  1.00  0.00     0.087 C 
HETATM    2  C3  UNL     1      -2.691   5.611  11.834  1.00  0.00     0.045 C 
HETATM    3  C4  UNL     1      -3.838   6.093  12.676  1.00  0.00     0.127 C 
HETATM    4  N2  UNL     1      -3.824   5.373  13.929  1.00  0.00    -0.358 N 
HETATM    5  C9  UNL     1      -2.606   5.327  14.718  1.00  0.00     0.127 C 
HETATM    6  C10 UNL     1      -1.629   6.251  13.987  1.00  0.00     0.045 C 
ENDROOT
BRANCH   1   7
HETATM    7  N1  UNL     1      -1.137   4.160  12.934  1.00  0.00    -0.363 N 
ATOM      8  H1  UNL     1      -1.216   3.813  13.890  1.00  0.00     0.162 HD
BRANCH   7   9
HETATM    9  C1  UNL     1      -0.792   3.283  11.879  1.00  0.00     0.168 C 
HETATM   10  S1  UNL     1       0.272   3.746  10.725  1.00  0.00    -0.041 SA
BRANCH   9  11
HETATM   11  N4  UNL     1      -1.411   2.000  11.837  1.00  0.00    -0.361 N 
ATOM     12  H4  UNL     1      -1.052   1.231  12.402  1.00  0.00     0.162 HD
BRANCH  11  13
HETATM   13  C11 UNL     1      -2.562   1.809  10.976  1.00  0.00     0.111 C 
HETATM   14  C12 UNL     1      -3.807   1.899  11.834  1.00  0.00     0.054 C 
HETATM   15  C13 UNL     1      -4.527   0.591  11.577  1.00  0.00     0.234 C 
HETATM   16  N5  UNL     1      -3.501  -0.313  11.148  1.00  0.00    -0.073 N 
HETATM   17  C14 UNL     1      -2.509   0.420  10.420  1.00  0.00     0.257 C 
ATOM     18  H52 UNL     1      -3.102  -0.843  11.922  1.00  0.00     0.277 HD
ATOM     19  H51 UNL     1      -3.873  -1.098  10.614  1.00  0.00     0.277 HD
ENDBRANCH  11  13
ENDBRANCH   9  11
ENDBRANCH   7   9
ENDBRANCH   1   7
BRANCH   4  20
HETATM   20  C5  UNL     1      -4.991   4.692  14.437  1.00  0.00     0.170 C 
HETATM   21  S2  UNL     1      -6.411   5.354  14.014  1.00  0.00    -0.041 SA
BRANCH  20  22
HETATM   22  N3  UNL     1      -4.844   3.563  15.242  1.00  0.00    -0.362 N 
ATOM     23  H3  UNL     1      -3.885   3.231  15.352  1.00  0.00     0.162 HD
BRANCH  22  24
HETATM   24  C6  UNL     1      -5.830   2.806  15.933  1.00  0.00     0.084 A 
HETATM   25  C7  UNL     1      -5.320   2.120  17.200  1.00  0.00     0.027 A 
HETATM   26  C8  UNL     1      -6.433   3.132  17.239  1.00  0.00     0.027 A 
ENDBRANCH  22  24
ENDBRANCH  20  22
ENDBRANCH   4  20
TORSDOF 7
ENDMDL
MODEL 4
REMARK VINA RESULT: -6.181416818      1.714      5.643
REMARK  7 active torsions:
REMARK  status: ('A' for Active; 'I' for Inactive)
REMARK    1  A    between atoms: C1_2  and  N1_3 
REMARK    2  A    between atoms: C1_2  and  N4_18 
REMARK    3  A    between atoms: N1_3  and  C2_5 
REMARK    4  A    between atoms: N2_8  and  C5_9 
REMARK    5  A    between atoms: C5_9  and  N3_11 
REMARK    6  A    between atoms: N3_11  and  C6_13 
REMARK    7  A    between atoms: N4_18  and  C11_20 
ROOT
HETATM    1  C2  UNL     1      -2.736   5.481  12.924  1.00  0.00     0.087 C 
HETATM    2  C3  UNL     1      -4.055   4.983  12.301  1.00  0.00     0.045 C 
HETATM    3  C4  UNL     1      -5.145   4.868  13.330  1.00  0.00     0.127 C 
HETATM    4  N2  UNL     1      -4.620   4.171  14.482  1.00  0.00    -0.358 N 
HETATM    5  C9  UNL     1      -3.390   4.633  15.101  1.00  0.00     0.127 C 
HETATM    6  C10 UNL     1      -3.039   5.926  14.363  1.00  0.00     0.045 C 
ENDROOT
BRANCH   1   7
HETATM    7  N1  UNL     1      -1.873   4.321  13.028  1.00  0.00    -0.363 N 
ATOM      8  H1  UNL     1      -1.445   4.074  13.919  1.00  0.00     0.162 HD
BRANCH   7   9
HETATM    9  C1  UNL     1      -1.633   3.537  11.875  1.00  0.00     0.168 C 
HETATM   10  S1  UNL     1      -0.949   4.200  10.544  1.00  0.00    -0.041 SA
BRANCH   9  11
HETATM   11  N4  UNL     1      -2.022   2.166  11.896  1.00  0.00    -0.361 N 
ATOM     12  H4  UNL     1      -1.822   1.582  12.708  1.00  0.00     0.162 HD
BRANCH  11  13
HETATM   13  C11 UNL     1      -2.709   1.618  10.744  1.00  0.00     0.111 C 
HETATM   14  C12 UNL     1      -4.178   1.497  11.090  1.00  0.00     0.054 C 
HETATM   15  C13 UNL     1      -4.496   0.036  10.846  1.00  0.00     0.234 C 
HETATM   16  N5  UNL     1      -3.237  -0.637  10.969  1.00  0.00    -0.073 N 
HETATM   17  C14 UNL     1      -2.197   0.231  10.504  1.00  0.00     0.257 C 
ATOM     18  H52 UNL     1      -3.067  -0.974  11.916  1.00  0.00     0.277 HD
ATOM     19  H51 UNL     1      -3.230  -1.539  10.494  1.00  0.00     0.277 HD
ENDBRANCH  11  13
ENDBRANCH   9  11
ENDBRANCH   7   9
ENDBRANCH   1   7
BRANCH   4  20
HETATM   20  C5  UNL     1      -5.280   3.021  15.051  1.00  0.00     0.170 C 
HETATM   21  S2  UNL     1      -4.620   1.590  14.665  1.00  0.00    -0.041 SA
BRANCH  20  22
HETATM   22  N3  UNL     1      -6.410   3.191  15.850  1.00  0.00    -0.362 N 
ATOM     23  H3  UNL     1      -7.185   3.685  15.407  1.00  0.00     0.162 HD
BRANCH  22  24
HETATM   24  C6  UNL     1      -6.643   2.778  17.191  1.00  0.00     0.084 A 
HETATM   25  C7  UNL     1      -7.225   1.370  17.322  1.00  0.00     0.027 A 
HETATM   26  C8  UNL     1      -5.902   1.742  17.934  1.00  0.00     0.027 A 
ENDBRANCH  22  24
ENDBRANCH  20  22
ENDBRANCH   4  20
TORSDOF 7
ENDMDL
MODEL 5
REMARK VINA RESULT: -5.947191346      3.394      6.935
REMARK  7 active torsions:
REMARK  status: ('A' for Active; 'I' for Inactive)
REMARK    1  A    between atoms: C1_2  and  N1_3 
REMARK    2  A    between atoms: C1_2  and  N4_18 
REMARK    3  A    between atoms: N1_3  and  C2_5 
REMARK    4  A    between atoms: N2_8  and  C5_9 
REMARK    5  A    between atoms: C5_9  and  N3_11 
REMARK    6  A    between atoms: N3_11  and  C6_13 
REMARK    7  A    between atoms: N4_18  and  C11_20 
ROOT
HETATM    1  C2  UNL     1      -5.020   6.166  13.338  1.00  0.00     0.087 C 
HETATM    2  C3  UNL     1      -6.254   5.370  13.807  1.00  0.00     0.045 C 
HETATM    3  C4  UNL     1      -5.936   4.503  14.993  1.00  0.00     0.127 C 
HETATM    4  N2  UNL     1      -4.713   3.783  14.722  1.00  0.00    -0.358 N 
HETATM    5  C9  UNL     1      -3.530   4.511  14.299  1.00  0.00     0.127 C 
HETATM    6  C10 UNL     1      -3.920   5.987  14.395  1.00  0.00     0.045 C 
ENDROOT
BRANCH   1   7
HETATM    7  N1  UNL     1      -4.546   5.507  12.137  1.00  0.00    -0.363 N 
ATOM      8  H1  UNL     1      -4.390   4.499  12.128  1.00  0.00     0.162 HD
BRANCH   7   9
HETATM    9  C1  UNL     1      -4.301   6.280  10.978  1.00  0.00     0.168 C 
HETATM   10  S1  UNL     1      -3.347   7.609  11.049  1.00  0.00    -0.041 SA
BRANCH   9  11
HETATM   11  N4  UNL     1      -4.923   5.886   9.758  1.00  0.00    -0.361 N 
ATOM     12  H4  UNL     1      -5.009   4.900   9.514  1.00  0.00     0.162 HD
BRANCH  11  13
HETATM   13  C11 UNL     1      -5.431   6.913   8.871  1.00  0.00     0.111 C 
HETATM   14  C12 UNL     1      -6.916   6.678   8.687  1.00  0.00     0.054 C 
HETATM   15  C13 UNL     1      -7.089   6.562   7.186  1.00  0.00     0.234 C 
HETATM   16  N5  UNL     1      -5.802   6.159   6.701  1.00  0.00    -0.073 N 
HETATM   17  C14 UNL     1      -4.788   6.740   7.530  1.00  0.00     0.257 C 
ATOM     18  H52 UNL     1      -5.713   5.146   6.631  1.00  0.00     0.277 HD
ATOM     19  H51 UNL     1      -5.671   6.382   5.714  1.00  0.00     0.277 HD
ENDBRANCH  11  13
ENDBRANCH   9  11
ENDBRANCH   7   9
ENDBRANCH   1   7
BRANCH   4  20
HETATM   20  C5  UNL     1      -4.618   2.349  14.860  1.00  0.00     0.170 C 
HETATM   21  S2  UNL     1      -4.597   1.525  13.463  1.00  0.00    -0.041 SA
BRANCH  20  22
HETATM   22  N3  UNL     1      -4.572   1.773  16.130  1.00  0.00    -0.362 N 
ATOM     23  H3  UNL     1      -3.663   1.811  16.590  1.00  0.00     0.162 HD
BRANCH  22  24
HETATM   24  C6  UNL     1      -5.604   1.142  16.877  1.00  0.00     0.084 A 
HETATM   25  C7  UNL     1      -6.061   1.928  18.105  1.00  0.00     0.027 A 
HETATM   26  C8  UNL     1      -7.007   1.583  16.987  1.00  0.00     0.027 A 
ENDBRANCH  22  24
ENDBRANCH  20  22
ENDBRANCH   4  20
TORSDOF 7
ENDMDL
