MODEL 1
REMARK VINA RESULT: -8.610260304      0.000      0.000
REMARK  3 active torsions:
REMARK  status: ('A' for Active; 'I' for Inactive)
REMARK    1  A    between atoms: C2_2  and  C3_3 
REMARK    2  A    between atoms: C3_3  and  C4_4 
REMARK    3  A    between atoms: C3_3  and  C6_7 
ROOT
HETATM    1  C4  UNL     1      42.952   3.717  91.815  1.00  0.00     0.134 C 
HETATM    2  C5  UNL     1      44.231   3.203  91.420  1.00  0.00     0.059 C 
HETATM    3  N1  UNL     1      45.271   2.810  91.091  1.00  0.00    -0.197 NA
ENDROOT
BRANCH   1   4
HETATM    4  C3  UNL     1      42.424   3.147  93.149  1.00  0.00     0.049 C 
BRANCH   4   5
HETATM    5  C2  UNL     1      41.650   4.289  93.817  1.00  0.00     0.007 C 
HETATM    6  C1  UNL     1      42.559   5.139  94.688  1.00  0.00     0.006 C 
ENDBRANCH   4   5
BRANCH   4   7
HETATM    7  C6  UNL     1      41.463   2.077  92.822  1.00  0.00     0.022 A 
HETATM    8  N2  UNL     1      40.245   2.382  92.379  1.00  0.00    -0.345 N 
HETATM    9  C7  UNL     1      39.339   1.466  91.986  1.00  0.00     0.105 A 
ATOM     10  H2  UNL     1      39.983   3.367  92.333  1.00  0.00     0.167 HD
HETATM   11  N3  UNL     1      38.157   1.819  91.515  1.00  0.00    -0.385 N 
HETATM   12  C8  UNL     1      39.698   0.149  92.052  1.00  0.00    -0.012 A 
ATOM     13  H32 UNL     1      37.888   2.802  91.465  1.00  0.00     0.157 HD
ATOM     14  H31 UNL     1      37.471   1.126  91.217  1.00  0.00     0.157 HD
HETATM   15  C9  UNL     1      38.668  -0.875  91.650  1.00  0.00     0.052 C 
HETATM   16  C10 UNL     1      40.941  -0.217  92.501  1.00  0.00    -0.045 A 
HETATM   17  C11 UNL     1      41.194  -1.689  92.546  1.00  0.00     0.049 C 
HETATM   18  C12 UNL     1      41.836   0.740  92.890  1.00  0.00    -0.032 A 
HETATM   19  C13 UNL     1      43.136   0.273  93.422  1.00  0.00     0.050 C 
ENDBRANCH   4   7
ENDBRANCH   1   4
TORSDOF 3
ENDMDL
MODEL 2
REMARK VINA RESULT: -8.395318195      1.830      3.647
REMARK  3 active torsions:
REMARK  status: ('A' for Active; 'I' for Inactive)
REMARK    1  A    between atoms: C2_2  and  C3_3 
REMARK    2  A    between atoms: C3_3  and  C4_4 
REMARK    3  A    between atoms: C3_3  and  C6_7 
ROOT
HETATM    1  C4  UNL     1      41.294   3.361  93.930  1.00  0.00     0.134 C 
HETATM    2  C5  UNL     1      39.999   3.519  94.526  1.00  0.00     0.059 C 
HETATM    3  N1  UNL     1      38.962   3.666  95.023  1.00  0.00    -0.197 NA
ENDROOT
BRANCH   1   4
HETATM    4  C3  UNL     1      41.262   3.031  92.422  1.00  0.00     0.049 C 
BRANCH   4   5
HETATM    5  C2  UNL     1      42.551   3.617  91.836  1.00  0.00     0.007 C 
HETATM    6  C1  UNL     1      43.300   4.448  92.863  1.00  0.00     0.006 C 
ENDBRANCH   4   5
BRANCH   4   7
HETATM    7  C6  UNL     1      41.328   1.564  92.289  1.00  0.00     0.022 A 
HETATM    8  N2  UNL     1      42.504   0.942  92.307  1.00  0.00    -0.345 N 
HETATM    9  C7  UNL     1      42.644  -0.398  92.270  1.00  0.00     0.105 A 
ATOM     10  H2  UNL     1      43.349   1.512  92.353  1.00  0.00     0.167 HD
HETATM   11  N3  UNL     1      43.832  -0.971  92.331  1.00  0.00    -0.385 N 
HETATM   12  C8  UNL     1      41.507  -1.153  92.207  1.00  0.00    -0.012 A 
ATOM     13  H32 UNL     1      44.681  -0.408  92.378  1.00  0.00     0.157 HD
ATOM     14  H31 UNL     1      43.938  -1.985  92.303  1.00  0.00     0.157 HD
HETATM   15  C9  UNL     1      41.670  -2.650  92.124  1.00  0.00     0.052 C 
HETATM   16  C10 UNL     1      40.271  -0.560  92.186  1.00  0.00    -0.045 A 
HETATM   17  C11 UNL     1      39.114  -1.501  92.092  1.00  0.00     0.049 C 
HETATM   18  C12 UNL     1      40.167   0.802  92.227  1.00  0.00    -0.032 A 
HETATM   19  C13 UNL     1      38.807   1.379  92.140  1.00  0.00     0.050 C 
ENDBRANCH   4   7
ENDBRANCH   1   4
TORSDOF 3
ENDMDL
MODEL 3
REMARK VINA RESULT: -8.037689400      1.227      5.330
REMARK  3 active torsions:
REMARK  status: ('A' for Active; 'I' for Inactive)
REMARK    1  A    between atoms: C2_2  and  C3_3 
REMARK    2  A    between atoms: C3_3  and  C4_4 
REMARK    3  A    between atoms: C3_3  and  C6_7 
ROOT
HETATM    1  C4  UNL     1      39.462   0.799  91.520  1.00  0.00     0.134 C 
HETATM    2  C5  UNL     1      38.423   1.777  91.662  1.00  0.00     0.059 C 
HETATM    3  N1  UNL     1      37.567   2.553  91.762  1.00  0.00    -0.197 NA
ENDROOT
BRANCH   1   4
HETATM    4  C3  UNL     1      40.355   0.636  92.769  1.00  0.00     0.049 C 
BRANCH   4   5
HETATM    5  C2  UNL     1      41.133  -0.668  92.563  1.00  0.00     0.007 C 
HETATM    6  C1  UNL     1      40.208  -1.812  92.187  1.00  0.00     0.006 C 
ENDBRANCH   4   5
BRANCH   4   7
HETATM    7  C6  UNL     1      41.323   1.749  92.768  1.00  0.00     0.022 A 
HETATM    8  N2  UNL     1      42.331   1.759  91.898  1.00  0.00    -0.345 N 
HETATM    9  C7  UNL     1      43.209   2.774  91.780  1.00  0.00     0.105 A 
ATOM     10  H2  UNL     1      42.444   0.952  91.284  1.00  0.00     0.167 HD
HETATM   11  N3  UNL     1      44.170   2.756  90.875  1.00  0.00    -0.385 N 
HETATM   12  C8  UNL     1      43.051   3.849  92.609  1.00  0.00    -0.012 A 
ATOM     13  H32 UNL     1      44.289   1.953  90.256  1.00  0.00     0.157 HD
ATOM     14  H31 UNL     1      44.835   3.524  90.786  1.00  0.00     0.157 HD
HETATM   15  C9  UNL     1      44.060   4.964  92.502  1.00  0.00     0.052 C 
HETATM   16  C10 UNL     1      42.028   3.887  93.521  1.00  0.00    -0.045 A 
HETATM   17  C11 UNL     1      41.985   5.110  94.379  1.00  0.00     0.049 C 
HETATM   18  C12 UNL     1      41.154   2.840  93.611  1.00  0.00    -0.032 A 
HETATM   19  C13 UNL     1      40.111   2.919  94.658  1.00  0.00     0.050 C 
ENDBRANCH   4   7
ENDBRANCH   1   4
TORSDOF 3
ENDMDL
MODEL 4
REMARK VINA RESULT: -7.784401538      2.383      5.039
REMARK  3 active torsions:
REMARK  status: ('A' for Active; 'I' for Inactive)
REMARK    1  A    between atoms: C2_2  and  C3_3 
REMARK    2  A    between atoms: C3_3  and  C4_4 
REMARK    3  A    between atoms: C3_3  and  C6_7 
ROOT
HETATM    1  C4  UNL     1      41.728  -2.425  92.644  1.00  0.00     0.134 C 
HETATM    2  C5  UNL     1      42.691  -3.348  92.115  1.00  0.00     0.059 C 
HETATM    3  N1  UNL     1      43.462  -4.111  91.705  1.00  0.00    -0.197 NA
ENDROOT
BRANCH   1   4
HETATM    4  C3  UNL     1      41.105  -1.486  91.590  1.00  0.00     0.049 C 
BRANCH   4   5
HETATM    5  C2  UNL     1      39.598  -1.484  91.867  1.00  0.00     0.007 C 
HETATM    6  C1  UNL     1      38.839  -0.716  90.799  1.00  0.00     0.006 C 
ENDBRANCH   4   5
BRANCH   4   7
HETATM    7  C6  UNL     1      41.617  -0.128  91.851  1.00  0.00     0.022 A 
HETATM    8  N2  UNL     1      41.036   0.642  92.769  1.00  0.00    -0.345 N 
HETATM    9  C7  UNL     1      41.490   1.861  93.120  1.00  0.00     0.105 A 
ATOM     10  H2  UNL     1      40.200   0.289  93.233  1.00  0.00     0.167 HD
HETATM   11  N3  UNL     1      40.904   2.572  94.066  1.00  0.00    -0.385 N 
HETATM   12  C8  UNL     1      42.611   2.327  92.491  1.00  0.00    -0.012 A 
ATOM     13  H32 UNL     1      40.067   2.224  94.536  1.00  0.00     0.157 HD
ATOM     14  H31 UNL     1      41.247   3.494  94.332  1.00  0.00     0.157 HD
HETATM   15  C9  UNL     1      43.092   3.707  92.858  1.00  0.00     0.052 C 
HETATM   16  C10 UNL     1      43.246   1.571  91.539  1.00  0.00    -0.045 A 
HETATM   17  C11 UNL     1      44.443   2.210  90.914  1.00  0.00     0.049 C 
HETATM   18  C12 UNL     1      42.757   0.339  91.209  1.00  0.00    -0.032 A 
HETATM   19  C13 UNL     1      43.455  -0.397  90.130  1.00  0.00     0.050 C 
ENDBRANCH   4   7
ENDBRANCH   1   4
TORSDOF 3
ENDMDL
MODEL 5
REMARK VINA RESULT: -7.598225294      2.503      5.146
REMARK  3 active torsions:
REMARK  status: ('A' for Active; 'I' for Inactive)
REMARK    1  A    between atoms: C2_2  and  C3_3 
REMARK    2  A    between atoms: C3_3  and  C4_4 
REMARK    3  A    between atoms: C3_3  and  C6_7 
ROOT
HETATM    1  C4  UNL     1      41.575  -2.056  92.233  1.00  0.00     0.134 C 
HETATM    2  C5  UNL     1      42.618  -3.039  92.172  1.00  0.00     0.059 C 
HETATM    3  N1  UNL     1      43.448  -3.848  92.137  1.00  0.00    -0.197 NA
ENDROOT
BRANCH   1   4
HETATM    4  C3  UNL     1      41.394  -1.241  90.935  1.00  0.00     0.049 C 
BRANCH   4   5
HETATM    5  C2  UNL     1      39.888  -0.988  90.804  1.00  0.00     0.007 C 
HETATM    6  C1  UNL     1      39.143  -1.411  92.057  1.00  0.00     0.006 C 
ENDBRANCH   4   5
BRANCH   4   7
HETATM    7  C6  UNL     1      42.058   0.060  91.134  1.00  0.00     0.022 A 
HETATM    8  N2  UNL     1      41.457   1.019  91.836  1.00  0.00    -0.345 N 
HETATM    9  C7  UNL     1      42.028   2.204  92.128  1.00  0.00     0.105 A 
ATOM     10  H2  UNL     1      40.509   0.846  92.171  1.00  0.00     0.167 HD
HETATM   11  N3  UNL     1      41.406   3.109  92.861  1.00  0.00    -0.385 N 
HETATM   12  C8  UNL     1      43.297   2.426  91.672  1.00  0.00    -0.012 A 
ATOM     13  H32 UNL     1      40.459   2.943  93.201  1.00  0.00     0.157 HD
ATOM     14  H31 UNL     1      41.839   4.006  93.083  1.00  0.00     0.157 HD
HETATM   15  C9  UNL     1      43.917   3.768  91.967  1.00  0.00     0.052 C 
HETATM   16  C10 UNL     1      43.959   1.470  90.947  1.00  0.00    -0.045 A 
HETATM   17  C11 UNL     1      45.330   1.852  90.491  1.00  0.00     0.049 C 
HETATM   18  C12 UNL     1      43.350   0.279  90.670  1.00  0.00    -0.032 A 
HETATM   19  C13 UNL     1      44.097  -0.684  89.831  1.00  0.00     0.050 C 
ENDBRANCH   4   7
ENDBRANCH   1   4
TORSDOF 3
ENDMDL
