MODEL 1
REMARK VINA RESULT: -5.347152845      0.000      0.000
REMARK  5 active torsions:
REMARK  status: ('A' for Active; 'I' for Inactive)
REMARK    1  A    between atoms: C1_2  and  C2_3 
REMARK       I    between atoms: C1_2  and  N4_22 
REMARK    2  A    between atoms: C2_3  and  C3_4 
REMARK       I    between atoms: N3_10  and  C5_12 
REMARK    3  A    between atoms: C5_12  and  C6_14 
REMARK    4  A    between atoms: N4_22  and  C11_24 
REMARK    5  A    between atoms: C11_24  and  C12_25 
ROOT
HETATM    1  C3  UNL     1      28.904   0.105   3.854  1.00  0.00     0.078 A 
HETATM    2  N1  UNL     1      27.908   0.440   4.661  1.00  0.00    -0.295 N 
ATOM      3  H1  UNL     1      27.984   0.260   5.663  1.00  0.00     0.187 HD
HETATM    4  N2  UNL     1      26.861   0.982   4.195  1.00  0.00    -0.279 N 
ATOM      5  H2  UNL     1      26.094   1.242   4.815  1.00  0.00     0.189 HD
HETATM    6  C4  UNL     1      26.779   1.207   2.883  1.00  0.00     0.167 A 
HETATM    7  N3  UNL     1      25.799   1.749   2.202  1.00  0.00    -0.304 N 
ATOM      8  H3  UNL     1      25.861   1.866   1.191  1.00  0.00     0.171 HD
HETATM    9  C5  UNL     1      24.665   2.161   2.910  1.00  0.00     0.252 C 
HETATM   10  O2  UNL     1      23.689   1.384   3.064  1.00  0.00    -0.270 OA
HETATM   11  S1  UNL     1      28.289   0.601   2.338  1.00  0.00    -0.037 SA
ENDROOT
BRANCH   1  12
HETATM   12  C2  UNL     1      30.211  -0.539   4.211  1.00  0.00     0.169 C 
BRANCH  12  13
HETATM   13  C1  UNL     1      30.716  -0.009   5.506  1.00  0.00     0.223 C 
HETATM   14  O1  UNL     1      31.847  -0.372   5.873  1.00  0.00    -0.273 OA
HETATM   15  N4  UNL     1      29.924   0.861   6.252  1.00  0.00    -0.360 N 
ATOM     16  H4  UNL     1      29.014   1.055   5.834  1.00  0.00     0.162 HD
BRANCH  15  17
HETATM   17  C11 UNL     1      30.145   1.525   7.480  1.00  0.00     0.132 C 
BRANCH  17  18
HETATM   18  C12 UNL     1      30.051   0.808   8.771  1.00  0.00    -0.023 C 
HETATM   19  C13 UNL     1      31.266   0.691   9.598  1.00  0.00     0.015 C 
HETATM   20  C14 UNL     1      30.972  -0.223  10.799  1.00  0.00    -0.013 C 
HETATM   21  C15 UNL     1      30.580  -1.593  10.379  1.00  0.00     0.009 C 
HETATM   22  C19 UNL     1      29.888   0.482  11.598  1.00  0.00     0.009 C 
HETATM   23  C16 UNL     1      29.304  -1.462   9.568  1.00  0.00    -0.013 C 
HETATM   24  C17 UNL     1      28.193  -0.788  10.328  1.00  0.00     0.009 C 
HETATM   25  C21 UNL     1      29.618  -0.628   8.367  1.00  0.00     0.015 C 
HETATM   26  C18 UNL     1      28.646   0.594  10.765  1.00  0.00    -0.013 C 
HETATM   27  C20 UNL     1      28.913   1.438   9.564  1.00  0.00     0.015 C 
ENDBRANCH  17  18
ENDBRANCH  15  17
ENDBRANCH  12  13
ENDBRANCH   1  12
BRANCH   9  28
HETATM   28  C6  UNL     1      24.589   3.521   3.495  1.00  0.00     0.213 C 
HETATM   29  C7  UNL     1      25.758   4.396   3.086  1.00  0.00     0.043 C 
HETATM   30  C8  UNL     1      25.647   5.670   3.918  1.00  0.00     0.025 C 
HETATM   31  C9  UNL     1      24.332   6.312   3.598  1.00  0.00     0.106 C 
HETATM   32 CL1  UNL     1      24.105   7.842   4.447  1.00  0.00    -0.123 Cl
HETATM   33  C10 UNL     1      23.229   5.328   3.927  1.00  0.00     0.189 C 
HETATM   34  O3  UNL     1      23.379   4.128   3.274  1.00  0.00    -0.375 OA
ENDBRANCH   9  28
TORSDOF 5
ENDMDL
MODEL 2
REMARK VINA RESULT: -5.180829707      0.119      1.344
REMARK  5 active torsions:
REMARK  status: ('A' for Active; 'I' for Inactive)
REMARK    1  A    between atoms: C1_2  and  C2_3 
REMARK       I    between atoms: C1_2  and  N4_22 
REMARK    2  A    between atoms: C2_3  and  C3_4 
REMARK       I    between atoms: N3_10  and  C5_12 
REMARK    3  A    between atoms: C5_12  and  C6_14 
REMARK    4  A    between atoms: N4_22  and  C11_24 
REMARK    5  A    between atoms: C11_24  and  C12_25 
ROOT
HETATM    1  C3  UNL     1      28.988   0.166   3.841  1.00  0.00     0.078 A 
HETATM    2  N1  UNL     1      27.999   0.492   4.659  1.00  0.00    -0.295 N 
ATOM      3  H1  UNL     1      28.091   0.321   5.661  1.00  0.00     0.187 HD
HETATM    4  N2  UNL     1      26.938   1.016   4.204  1.00  0.00    -0.279 N 
ATOM      5  H2  UNL     1      26.175   1.269   4.832  1.00  0.00     0.189 HD
HETATM    6  C4  UNL     1      26.834   1.230   2.891  1.00  0.00     0.167 A 
HETATM    7  N3  UNL     1      25.837   1.752   2.220  1.00  0.00    -0.304 N 
ATOM      8  H3  UNL     1      25.883   1.862   1.207  1.00  0.00     0.171 HD
HETATM    9  C5  UNL     1      24.708   2.153   2.940  1.00  0.00     0.252 C 
HETATM   10  O2  UNL     1      23.745   1.363   3.114  1.00  0.00    -0.270 OA
HETATM   11  S1  UNL     1      28.345   0.641   2.330  1.00  0.00    -0.037 SA
ENDROOT
BRANCH   1  12
HETATM   12  C2  UNL     1      30.309  -0.457   4.184  1.00  0.00     0.169 C 
BRANCH  12  13
HETATM   13  C1  UNL     1      30.752  -0.025   5.538  1.00  0.00     0.223 C 
HETATM   14  O1  UNL     1      31.810  -0.508   5.976  1.00  0.00    -0.273 OA
HETATM   15  N4  UNL     1      29.984   0.888   6.257  1.00  0.00    -0.360 N 
ATOM     16  H4  UNL     1      29.134   1.184   5.777  1.00  0.00     0.162 HD
BRANCH  15  17
HETATM   17  C11 UNL     1      30.162   1.483   7.526  1.00  0.00     0.132 C 
BRANCH  17  18
HETATM   18  C12 UNL     1      29.826   0.756   8.770  1.00  0.00    -0.023 C 
HETATM   19  C13 UNL     1      28.829   1.350   9.681  1.00  0.00     0.015 C 
HETATM   20  C14 UNL     1      28.761   0.513  10.969  1.00  0.00    -0.013 C 
HETATM   21  C15 UNL     1      30.062   0.479  11.685  1.00  0.00     0.009 C 
HETATM   22  C19 UNL     1      28.289  -0.866  10.540  1.00  0.00     0.009 C 
HETATM   23  C16 UNL     1      31.066  -0.174  10.755  1.00  0.00    -0.013 C 
HETATM   24  C17 UNL     1      30.650  -1.554  10.320  1.00  0.00     0.009 C 
HETATM   25  C21 UNL     1      31.176   0.684   9.535  1.00  0.00     0.015 C 
HETATM   26  C18 UNL     1      29.305  -1.480   9.622  1.00  0.00    -0.013 C 
HETATM   27  C20 UNL     1      29.427  -0.661   8.380  1.00  0.00     0.015 C 
ENDBRANCH  17  18
ENDBRANCH  15  17
ENDBRANCH  12  13
ENDBRANCH   1  12
BRANCH   9  28
HETATM   28  C6  UNL     1      24.620   3.516   3.516  1.00  0.00     0.213 C 
HETATM   29  C7  UNL     1      25.783   4.397   3.105  1.00  0.00     0.043 C 
HETATM   30  C8  UNL     1      25.660   5.675   3.928  1.00  0.00     0.025 C 
HETATM   31  C9  UNL     1      24.343   6.306   3.600  1.00  0.00     0.106 C 
HETATM   32 CL1  UNL     1      24.101   7.840   4.438  1.00  0.00    -0.123 Cl
HETATM   33  C10 UNL     1      23.245   5.317   3.931  1.00  0.00     0.189 C 
HETATM   34  O3  UNL     1      23.406   4.113   3.287  1.00  0.00    -0.375 OA
ENDBRANCH   9  28
TORSDOF 5
ENDMDL
MODEL 3
REMARK VINA RESULT: -4.946670206      1.107      1.354
REMARK  5 active torsions:
REMARK  status: ('A' for Active; 'I' for Inactive)
REMARK    1  A    between atoms: C1_2  and  C2_3 
REMARK       I    between atoms: C1_2  and  N4_22 
REMARK    2  A    between atoms: C2_3  and  C3_4 
REMARK       I    between atoms: N3_10  and  C5_12 
REMARK    3  A    between atoms: C5_12  and  C6_14 
REMARK    4  A    between atoms: N4_22  and  C11_24 
REMARK    5  A    between atoms: C11_24  and  C12_25 
ROOT
HETATM    1  C3  UNL     1      28.455   0.395   4.187  1.00  0.00     0.078 A 
HETATM    2  N1  UNL     1      28.125   1.491   4.856  1.00  0.00    -0.295 N 
ATOM      3  H1  UNL     1      28.808   1.938   5.467  1.00  0.00     0.187 HD
HETATM    4  N2  UNL     1      26.963   1.985   4.741  1.00  0.00    -0.279 N 
ATOM      5  H2  UNL     1      26.706   2.829   5.254  1.00  0.00     0.189 HD
HETATM    6  C4  UNL     1      26.081   1.385   3.939  1.00  0.00     0.167 A 
HETATM    7  N3  UNL     1      24.843   1.725   3.679  1.00  0.00    -0.304 N 
ATOM      8  H3  UNL     1      24.268   1.176   3.040  1.00  0.00     0.171 HD
HETATM    9  C5  UNL     1      24.336   2.866   4.309  1.00  0.00     0.252 C 
HETATM   10  O2  UNL     1      23.733   2.776   5.409  1.00  0.00    -0.270 OA
HETATM   11  S1  UNL     1      27.003   0.064   3.348  1.00  0.00    -0.037 SA
ENDROOT
BRANCH   1  12
HETATM   12  C2  UNL     1      29.766  -0.334   4.191  1.00  0.00     0.169 C 
BRANCH  12  13
HETATM   13  C1  UNL     1      30.554   0.019   5.402  1.00  0.00     0.223 C 
HETATM   14  O1  UNL     1      31.697  -0.459   5.502  1.00  0.00    -0.273 OA
HETATM   15  N4  UNL     1      30.001   0.858   6.367  1.00  0.00    -0.360 N 
ATOM     16  H4  UNL     1      29.049   1.158   6.158  1.00  0.00     0.162 HD
BRANCH  15  17
HETATM   17  C11 UNL     1      30.511   1.371   7.581  1.00  0.00     0.132 C 
BRANCH  17  18
HETATM   18  C12 UNL     1      30.235   0.706   8.873  1.00  0.00    -0.023 C 
HETATM   19  C13 UNL     1      31.332   0.596   9.853  1.00  0.00     0.015 C 
HETATM   20  C14 UNL     1      30.864  -0.265  11.038  1.00  0.00    -0.013 C 
HETATM   21  C15 UNL     1      30.494  -1.642  10.620  1.00  0.00     0.009 C 
HETATM   22  C19 UNL     1      29.706   0.492  11.666  1.00  0.00     0.009 C 
HETATM   23  C16 UNL     1      29.336  -1.515   9.649  1.00  0.00    -0.013 C 
HETATM   24  C17 UNL     1      28.155  -0.790  10.236  1.00  0.00     0.009 C 
HETATM   25  C21 UNL     1      29.821  -0.735   8.468  1.00  0.00     0.015 C 
HETATM   26  C18 UNL     1      28.583   0.598  10.678  1.00  0.00    -0.013 C 
HETATM   27  C20 UNL     1      29.022   1.390   9.492  1.00  0.00     0.015 C 
ENDBRANCH  17  18
ENDBRANCH  15  17
ENDBRANCH  12  13
ENDBRANCH   1  12
BRANCH   9  28
HETATM   28  C6  UNL     1      24.498   4.206   3.696  1.00  0.00     0.213 C 
HETATM   29  C7  UNL     1      23.352   5.141   4.030  1.00  0.00     0.043 C 
HETATM   30  C8  UNL     1      23.557   6.387   3.174  1.00  0.00     0.025 C 
HETATM   31  C9  UNL     1      24.883   6.979   3.539  1.00  0.00     0.106 C 
HETATM   32 CL1  UNL     1      25.216   8.476   2.665  1.00  0.00    -0.123 Cl
HETATM   33  C10 UNL     1      25.956   5.941   3.284  1.00  0.00     0.189 C 
HETATM   34  O3  UNL     1      25.723   4.765   3.958  1.00  0.00    -0.375 OA
ENDBRANCH   9  28
TORSDOF 5
ENDMDL
MODEL 4
REMARK VINA RESULT: -4.706503008      0.218      1.380
REMARK  5 active torsions:
REMARK  status: ('A' for Active; 'I' for Inactive)
REMARK    1  A    between atoms: C1_2  and  C2_3 
REMARK       I    between atoms: C1_2  and  N4_22 
REMARK    2  A    between atoms: C2_3  and  C3_4 
REMARK       I    between atoms: N3_10  and  C5_12 
REMARK    3  A    between atoms: C5_12  and  C6_14 
REMARK    4  A    between atoms: N4_22  and  C11_24 
REMARK    5  A    between atoms: C11_24  and  C12_25 
ROOT
HETATM    1  C3  UNL     1      28.952   0.386   3.829  1.00  0.00     0.078 A 
HETATM    2  N1  UNL     1      27.998   0.718   4.686  1.00  0.00    -0.295 N 
ATOM      3  H1  UNL     1      28.147   0.589   5.687  1.00  0.00     0.187 HD
HETATM    4  N2  UNL     1      26.900   1.195   4.268  1.00  0.00    -0.279 N 
ATOM      5  H2  UNL     1      26.164   1.452   4.926  1.00  0.00     0.189 HD
HETATM    6  C4  UNL     1      26.722   1.355   2.956  1.00  0.00     0.167 A 
HETATM    7  N3  UNL     1      25.676   1.823   2.320  1.00  0.00    -0.304 N 
ATOM      8  H3  UNL     1      25.666   1.895   1.302  1.00  0.00     0.171 HD
HETATM    9  C5  UNL     1      24.575   2.222   3.084  1.00  0.00     0.252 C 
HETATM   10  O2  UNL     1      23.646   1.414   3.338  1.00  0.00    -0.270 OA
HETATM   11  S1  UNL     1      28.218   0.785   2.337  1.00  0.00    -0.037 SA
ENDROOT
BRANCH   1  12
HETATM   12  C2  UNL     1      30.307  -0.187   4.124  1.00  0.00     0.169 C 
BRANCH  12  13
HETATM   13  C1  UNL     1      30.692   0.089   5.535  1.00  0.00     0.223 C 
HETATM   14  O1  UNL     1      31.646  -0.554   6.005  1.00  0.00    -0.273 OA
HETATM   15  N4  UNL     1      29.987   1.038   6.270  1.00  0.00    -0.360 N 
ATOM     16  H4  UNL     1      29.219   1.472   5.759  1.00  0.00     0.162 HD
BRANCH  15  17
HETATM   17  C11 UNL     1      30.137   1.515   7.592  1.00  0.00     0.132 C 
BRANCH  17  18
HETATM   18  C12 UNL     1      29.956   0.620   8.757  1.00  0.00    -0.023 C 
HETATM   19  C13 UNL     1      29.485  -0.756   8.518  1.00  0.00     0.015 C 
HETATM   20  C14 UNL     1      29.217  -1.440   9.869  1.00  0.00    -0.013 C 
HETATM   21  C15 UNL     1      28.173  -0.737  10.657  1.00  0.00     0.009 C 
HETATM   22  C19 UNL     1      30.560  -1.487  10.579  1.00  0.00     0.009 C 
HETATM   23  C16 UNL     1      28.691   0.662  10.935  1.00  0.00    -0.013 C 
HETATM   24  C17 UNL     1      30.011   0.665  11.658  1.00  0.00     0.009 C 
HETATM   25  C21 UNL     1      28.882   1.342   9.616  1.00  0.00     0.015 C 
HETATM   26  C18 UNL     1      31.040  -0.089  10.835  1.00  0.00    -0.013 C 
HETATM   27  C20 UNL     1      31.263   0.617   9.540  1.00  0.00     0.015 C 
ENDBRANCH  17  18
ENDBRANCH  15  17
ENDBRANCH  12  13
ENDBRANCH   1  12
BRANCH   9  28
HETATM   28  C6  UNL     1      24.478   3.604   3.612  1.00  0.00     0.213 C 
HETATM   29  C7  UNL     1      25.653   4.467   3.198  1.00  0.00     0.043 C 
HETATM   30  C8  UNL     1      25.516   5.773   3.975  1.00  0.00     0.025 C 
HETATM   31  C9  UNL     1      24.207   6.395   3.596  1.00  0.00     0.106 C 
HETATM   32 CL1  UNL     1      23.952   7.957   4.377  1.00  0.00    -0.123 Cl
HETATM   33  C10 UNL     1      23.100   5.420   3.936  1.00  0.00     0.189 C 
HETATM   34  O3  UNL     1      23.272   4.195   3.335  1.00  0.00    -0.375 OA
ENDBRANCH   9  28
TORSDOF 5
ENDMDL
MODEL 5
REMARK VINA RESULT: -4.341174377      3.571      7.919
REMARK  5 active torsions:
REMARK  status: ('A' for Active; 'I' for Inactive)
REMARK    1  A    between atoms: C1_2  and  C2_3 
REMARK       I    between atoms: C1_2  and  N4_22 
REMARK    2  A    between atoms: C2_3  and  C3_4 
REMARK       I    between atoms: N3_10  and  C5_12 
REMARK    3  A    between atoms: C5_12  and  C6_14 
REMARK    4  A    between atoms: N4_22  and  C11_24 
REMARK    5  A    between atoms: C11_24  and  C12_25 
ROOT
HETATM    1  C3  UNL     1      29.665  -0.319   4.718  1.00  0.00     0.078 A 
HETATM    2  N1  UNL     1      28.628  -0.171   5.529  1.00  0.00    -0.295 N 
ATOM      3  H1  UNL     1      27.733  -0.598   5.292  1.00  0.00     0.187 HD
HETATM    4  N2  UNL     1      28.744   0.499   6.600  1.00  0.00    -0.279 N 
ATOM      5  H2  UNL     1      27.947   0.613   7.227  1.00  0.00     0.189 HD
HETATM    6  C4  UNL     1      29.922   1.052   6.893  1.00  0.00     0.167 A 
HETATM    7  N3  UNL     1      30.254   1.775   7.934  1.00  0.00    -0.304 N 
ATOM      8  H3  UNL     1      31.199   2.143   8.041  1.00  0.00     0.171 HD
HETATM    9  C5  UNL     1      29.267   2.026   8.893  1.00  0.00     0.252 C 
HETATM   10  O2  UNL     1      28.550   3.056   8.820  1.00  0.00    -0.270 OA
HETATM   11  S1  UNL     1      30.871   0.562   5.549  1.00  0.00    -0.037 SA
ENDROOT
BRANCH   1  12
HETATM   12  C2  UNL     1      29.728  -1.067   3.419  1.00  0.00     0.169 C 
BRANCH  12  13
HETATM   13  C1  UNL     1      28.793  -0.468   2.428  1.00  0.00     0.223 C 
HETATM   14  O1  UNL     1      28.813  -0.925   1.272  1.00  0.00    -0.273 OA
HETATM   15  N4  UNL     1      27.942   0.563   2.816  1.00  0.00    -0.360 N 
ATOM     16  H4  UNL     1      28.051   0.845   3.791  1.00  0.00     0.162 HD
BRANCH  15  17
HETATM   17  C11 UNL     1      26.956   1.293   2.115  1.00  0.00     0.132 C 
BRANCH  17  18
HETATM   18  C12 UNL     1      26.151   2.338   2.784  1.00  0.00    -0.023 C 
HETATM   19  C13 UNL     1      26.226   3.718   2.269  1.00  0.00     0.015 C 
HETATM   20  C14 UNL     1      25.444   4.651   3.208  1.00  0.00    -0.013 C 
HETATM   21  C15 UNL     1      25.999   4.653   4.587  1.00  0.00     0.009 C 
HETATM   22  C19 UNL     1      24.002   4.175   3.154  1.00  0.00     0.009 C 
HETATM   23  C16 UNL     1      25.873   3.238   5.119  1.00  0.00    -0.013 C 
HETATM   24  C17 UNL     1      24.455   2.731   5.106  1.00  0.00     0.009 C 
HETATM   25  C21 UNL     1      26.693   2.350   4.239  1.00  0.00     0.015 C 
HETATM   26  C18 UNL     1      23.917   2.775   3.687  1.00  0.00    -0.013 C 
HETATM   27  C20 UNL     1      24.707   1.852   2.821  1.00  0.00     0.015 C 
ENDBRANCH  17  18
ENDBRANCH  15  17
ENDBRANCH  12  13
ENDBRANCH   1  12
BRANCH   9  28
HETATM   28  C6  UNL     1      29.044   1.084  10.015  1.00  0.00     0.213 C 
HETATM   29  C7  UNL     1      30.336   0.493  10.544  1.00  0.00     0.043 C 
HETATM   30  C8  UNL     1      29.932  -0.592  11.537  1.00  0.00     0.025 C 
HETATM   31  C9  UNL     1      29.133   0.058  12.624  1.00  0.00     0.106 C 
HETATM   32 CL1  UNL     1      28.657  -1.082  13.885  1.00  0.00    -0.123 Cl
HETATM   33  C10 UNL     1      27.925   0.721  11.996  1.00  0.00     0.189 C 
HETATM   34  O3  UNL     1      28.268   1.619  11.012  1.00  0.00    -0.375 OA
ENDBRANCH   9  28
TORSDOF 5
ENDMDL
