MODEL 1
REMARK VINA RESULT: -8.260117933      0.000      0.000
REMARK  5 active torsions:
REMARK  status: ('A' for Active; 'I' for Inactive)
REMARK    1  A    between atoms: O1_2  and  C2_3 
REMARK    2  A    between atoms: C7_8  and  O2_9 
REMARK    3  A    between atoms: C8_11  and  O3_12 
REMARK    4  A    between atoms: C10_15  and  O4_16 
REMARK    5  A    between atoms: C11_18  and  O5_19 
ROOT
HETATM    1  C2  UNL     1      22.227   6.978  21.957  1.00  0.00     0.105 A 
HETATM    2  C3  UNL     1      22.711   6.825  20.672  1.00  0.00     0.053 A 
HETATM    3  C4  UNL     1      22.223   7.663  19.693  1.00  0.00    -0.005 A 
HETATM    4  C5  UNL     1      22.692   7.529  18.401  1.00  0.00     0.031 A 
HETATM    5  C6  UNL     1      22.189   8.366  17.416  1.00  0.00     0.122 A 
HETATM    6  C7  UNL     1      21.246   9.334  17.712  1.00  0.00     0.135 A 
HETATM    7  C8  UNL     1      20.785   9.468  19.004  1.00  0.00     0.115 A 
HETATM    8  C9  UNL     1      21.262   8.640  19.998  1.00  0.00     0.047 A 
HETATM    9  C10 UNL     1      20.787   8.783  21.284  1.00  0.00     0.116 A 
HETATM   10  C11 UNL     1      21.284   7.939  22.251  1.00  0.00     0.135 A 
HETATM   11  O6  UNL     1      22.760   8.022  16.167  1.00  0.00    -0.308 OA
HETATM   12  C13 UNL     1      23.605   6.930  16.362  1.00  0.00     0.092 C 
HETATM   13  C14 UNL     1      24.303   5.913  15.828  1.00  0.00     0.046 C 
HETATM   14  C15 UNL     1      24.951   5.190  16.945  1.00  0.00     0.076 C 
HETATM   15  C16 UNL     1      26.388   5.366  17.113  1.00  0.00     0.050 C 
HETATM   16  C17 UNL     1      24.682   3.694  16.709  1.00  0.00     0.050 C 
HETATM   17  O7  UNL     1      24.158   5.580  18.065  1.00  0.00    -0.354 OA
HETATM   18  C18 UNL     1      23.854   6.858  17.815  1.00  0.00     0.138 C 
HETATM   19  C19 UNL     1      25.102   7.772  18.067  1.00  0.00     0.059 C 
ENDROOT
BRANCH   1  20
HETATM   20  O1  UNL     1      22.694   6.155  22.968  1.00  0.00    -0.353 OA
HETATM   21  C1  UNL     1      23.093   4.823  22.723  1.00  0.00     0.210 C 
ENDBRANCH   1  20
BRANCH  10  22
HETATM   22  O5  UNL     1      20.785   8.104  23.552  1.00  0.00    -0.351 OA
HETATM   23  C12 UNL     1      21.468   8.988  24.419  1.00  0.00     0.210 C 
ENDBRANCH  10  22
BRANCH   9  24
HETATM   24  O4  UNL     1      19.825   9.758  21.601  1.00  0.00    -0.357 OA
ATOM     25  H4  UNL     1      19.690  10.515  21.044  1.00  0.00     0.217 HD
ENDBRANCH   9  24
BRANCH   7  26
HETATM   26  O3  UNL     1      19.833  10.433  19.350  1.00  0.00    -0.357 OA
ATOM     27  H3  UNL     1      19.949  11.003  20.102  1.00  0.00     0.217 HD
ENDBRANCH   7  26
BRANCH   6  28
HETATM   28  O2  UNL     1      20.730  10.195  16.757  1.00  0.00    -0.356 OA
ATOM     29  H2  UNL     1      21.190  10.973  16.465  1.00  0.00     0.218 HD
ENDBRANCH   6  28
TORSDOF 5
ENDMDL
MODEL 2
REMARK VINA RESULT: -8.090272546      3.258      7.008
REMARK  5 active torsions:
REMARK  status: ('A' for Active; 'I' for Inactive)
REMARK    1  A    between atoms: O1_2  and  C2_3 
REMARK    2  A    between atoms: C7_8  and  O2_9 
REMARK    3  A    between atoms: C8_11  and  O3_12 
REMARK    4  A    between atoms: C10_15  and  O4_16 
REMARK    5  A    between atoms: C11_18  and  O5_19 
ROOT
HETATM    1  C2  UNL     1      22.944   6.219  19.389  1.00  0.00     0.105 A 
HETATM    2  C3  UNL     1      22.789   4.959  19.935  1.00  0.00     0.053 A 
HETATM    3  C4  UNL     1      23.633   3.959  19.501  1.00  0.00    -0.005 A 
HETATM    4  C5  UNL     1      23.497   2.691  20.033  1.00  0.00     0.031 A 
HETATM    5  C6  UNL     1      24.340   1.684  19.585  1.00  0.00     0.122 A 
HETATM    6  C7  UNL     1      25.315   1.936  18.637  1.00  0.00     0.135 A 
HETATM    7  C8  UNL     1      25.450   3.204  18.113  1.00  0.00     0.115 A 
HETATM    8  C9  UNL     1      24.617   4.218  18.534  1.00  0.00     0.047 A 
HETATM    9  C10 UNL     1      24.761   5.480  17.998  1.00  0.00     0.116 A 
HETATM   10  C11 UNL     1      23.912   6.469  18.440  1.00  0.00     0.135 A 
HETATM   11  O6  UNL     1      23.994   0.465  20.215  1.00  0.00    -0.308 OA
HETATM   12  C13 UNL     1      22.894   0.699  21.040  1.00  0.00     0.092 C 
HETATM   13  C14 UNL     1      21.873   0.198  21.755  1.00  0.00     0.046 C 
HETATM   14  C15 UNL     1      21.143   1.343  22.343  1.00  0.00     0.076 C 
HETATM   15  C16 UNL     1      21.307   1.582  23.770  1.00  0.00     0.050 C 
HETATM   16  C17 UNL     1      19.649   1.091  22.073  1.00  0.00     0.050 C 
HETATM   17  O7  UNL     1      21.537   2.424  21.498  1.00  0.00    -0.354 OA
HETATM   18  C18 UNL     1      22.819   2.162  21.216  1.00  0.00     0.138 C 
HETATM   19  C19 UNL     1      23.722   2.476  22.458  1.00  0.00     0.059 C 
ENDROOT
BRANCH   1  20
HETATM   20  O1  UNL     1      22.116   7.250  19.799  1.00  0.00    -0.353 OA
HETATM   21  C1  UNL     1      22.064   7.677  21.144  1.00  0.00     0.210 C 
ENDBRANCH   1  20
BRANCH  10  22
HETATM   22  O5  UNL     1      24.079   7.744  17.879  1.00  0.00    -0.351 OA
HETATM   23  C12 UNL     1      23.289   8.085  16.758  1.00  0.00     0.210 C 
ENDBRANCH  10  22
BRANCH   9  24
HETATM   24  O4  UNL     1      25.744   5.751  17.029  1.00  0.00    -0.357 OA
ATOM     25  H4  UNL     1      25.507   6.050  16.159  1.00  0.00     0.217 HD
ENDBRANCH   9  24
BRANCH   7  26
HETATM   26  O3  UNL     1      26.423   3.505  17.153  1.00  0.00    -0.357 OA
ATOM     27  H3  UNL     1      27.094   2.879  16.908  1.00  0.00     0.217 HD
ENDBRANCH   7  26
BRANCH   6  28
HETATM   28  O2  UNL     1      26.181   0.958  18.175  1.00  0.00    -0.356 OA
ATOM     29  H2  UNL     1      27.116   0.980  18.342  1.00  0.00     0.218 HD
ENDBRANCH   6  28
TORSDOF 5
ENDMDL
MODEL 3
REMARK VINA RESULT: -7.989793735      2.088      5.298
REMARK  5 active torsions:
REMARK  status: ('A' for Active; 'I' for Inactive)
REMARK    1  A    between atoms: O1_2  and  C2_3 
REMARK    2  A    between atoms: C7_8  and  O2_9 
REMARK    3  A    between atoms: C8_11  and  O3_12 
REMARK    4  A    between atoms: C10_15  and  O4_16 
REMARK    5  A    between atoms: C11_18  and  O5_19 
ROOT
HETATM    1  C2  UNL     1      21.623   7.947  19.450  1.00  0.00     0.105 A 
HETATM    2  C3  UNL     1      22.113   6.701  19.794  1.00  0.00     0.053 A 
HETATM    3  C4  UNL     1      23.117   6.165  19.017  1.00  0.00    -0.005 A 
HETATM    4  C5  UNL     1      23.624   4.921  19.342  1.00  0.00     0.031 A 
HETATM    5  C6  UNL     1      24.626   4.379  18.551  1.00  0.00     0.122 A 
HETATM    6  C7  UNL     1      25.131   5.069  17.463  1.00  0.00     0.135 A 
HETATM    7  C8  UNL     1      24.627   6.312  17.146  1.00  0.00     0.115 A 
HETATM    8  C9  UNL     1      23.623   6.866  17.911  1.00  0.00     0.047 A 
HETATM    9  C10 UNL     1      23.126   8.108  17.578  1.00  0.00     0.116 A 
HETATM   10  C11 UNL     1      22.123   8.631  18.363  1.00  0.00     0.135 A 
HETATM   11  O6  UNL     1      24.955   3.087  19.026  1.00  0.00    -0.308 OA
HETATM   12  C13 UNL     1      24.122   2.796  20.105  1.00  0.00     0.092 C 
HETATM   13  C14 UNL     1      23.606   1.876  20.938  1.00  0.00     0.046 C 
HETATM   14  C15 UNL     1      22.689   2.580  21.861  1.00  0.00     0.076 C 
HETATM   15  C16 UNL     1      23.137   2.773  23.233  1.00  0.00     0.050 C 
HETATM   16  C17 UNL     1      21.391   1.757  21.898  1.00  0.00     0.050 C 
HETATM   17  O7  UNL     1      22.396   3.780  21.145  1.00  0.00    -0.354 OA
HETATM   18  C18 UNL     1      23.550   4.085  20.541  1.00  0.00     0.138 C 
HETATM   19  C19 UNL     1      24.572   4.661  21.581  1.00  0.00     0.059 C 
ENDROOT
BRANCH   1  20
HETATM   20  O1  UNL     1      20.615   8.519  20.206  1.00  0.00    -0.353 OA
HETATM   21  C1  UNL     1      20.673   8.568  21.616  1.00  0.00     0.210 C 
ENDBRANCH   1  20
BRANCH  10  22
HETATM   22  O5  UNL     1      21.634   9.897  18.003  1.00  0.00    -0.351 OA
HETATM   23  C12 UNL     1      20.380   9.965  17.355  1.00  0.00     0.210 C 
ENDBRANCH  10  22
BRANCH   9  24
HETATM   24  O4  UNL     1      23.624   8.820  16.473  1.00  0.00    -0.357 OA
ATOM     25  H4  UNL     1      23.105   9.490  16.045  1.00  0.00     0.217 HD
ENDBRANCH   9  24
BRANCH   7  26
HETATM   26  O3  UNL     1      25.108   7.046  16.057  1.00  0.00    -0.357 OA
ATOM     27  H3  UNL     1      25.801   6.715  15.498  1.00  0.00     0.217 HD
ENDBRANCH   7  26
BRANCH   6  28
HETATM   28  O2  UNL     1      26.139   4.563  16.658  1.00  0.00    -0.356 OA
ATOM     29  H2  UNL     1      26.766   3.918  16.964  1.00  0.00     0.218 HD
ENDBRANCH   6  28
TORSDOF 5
ENDMDL
MODEL 4
REMARK VINA RESULT: -7.981545202      1.837      4.781
REMARK  5 active torsions:
REMARK  status: ('A' for Active; 'I' for Inactive)
REMARK    1  A    between atoms: O1_2  and  C2_3 
REMARK    2  A    between atoms: C7_8  and  O2_9 
REMARK    3  A    between atoms: C8_11  and  O3_12 
REMARK    4  A    between atoms: C10_15  and  O4_16 
REMARK    5  A    between atoms: C11_18  and  O5_19 
ROOT
HETATM    1  C2  UNL     1      21.922   7.977  18.410  1.00  0.00     0.105 A 
HETATM    2  C3  UNL     1      22.581   6.834  18.822  1.00  0.00     0.053 A 
HETATM    3  C4  UNL     1      22.518   6.499  20.157  1.00  0.00    -0.005 A 
HETATM    4  C5  UNL     1      23.168   5.360  20.593  1.00  0.00     0.031 A 
HETATM    5  C6  UNL     1      23.113   5.032  21.940  1.00  0.00     0.122 A 
HETATM    6  C7  UNL     1      22.408   5.813  22.838  1.00  0.00     0.135 A 
HETATM    7  C8  UNL     1      21.756   6.945  22.398  1.00  0.00     0.115 A 
HETATM    8  C9  UNL     1      21.806   7.297  21.067  1.00  0.00     0.047 A 
HETATM    9  C10 UNL     1      21.154   8.435  20.642  1.00  0.00     0.116 A 
HETATM   10  C11 UNL     1      21.224   8.757  19.306  1.00  0.00     0.135 A 
HETATM   11  O6  UNL     1      23.887   3.871  22.174  1.00  0.00    -0.308 OA
HETATM   12  C13 UNL     1      24.468   3.484  20.967  1.00  0.00     0.092 C 
HETATM   13  C14 UNL     1      25.396   2.755  20.325  1.00  0.00     0.046 C 
HETATM   14  C15 UNL     1      25.254   3.034  18.879  1.00  0.00     0.076 C 
HETATM   15  C16 UNL     1      24.655   1.995  18.051  1.00  0.00     0.050 C 
HETATM   16  C17 UNL     1      26.670   3.307  18.346  1.00  0.00     0.050 C 
HETATM   17  O7  UNL     1      24.564   4.285  18.874  1.00  0.00    -0.354 OA
HETATM   18  C18 UNL     1      23.720   4.190  19.909  1.00  0.00     0.138 C 
HETATM   19  C19 UNL     1      22.522   3.246  19.547  1.00  0.00     0.059 C 
ENDROOT
BRANCH   1  20
HETATM   20  O1  UNL     1      21.961   8.347  17.076  1.00  0.00    -0.353 OA
HETATM   21  C1  UNL     1      23.161   8.335  16.332  1.00  0.00     0.210 C 
ENDBRANCH   1  20
BRANCH  10  22
HETATM   22  O5  UNL     1      20.552   9.920  18.899  1.00  0.00    -0.351 OA
HETATM   23  C12 UNL     1      19.410   9.775  18.078  1.00  0.00     0.210 C 
ENDBRANCH  10  22
BRANCH   9  24
HETATM   24  O4  UNL     1      20.437   9.242  21.543  1.00  0.00    -0.357 OA
ATOM     25  H4  UNL     1      20.367  10.180  21.414  1.00  0.00     0.217 HD
ENDBRANCH   9  24
BRANCH   7  26
HETATM   26  O3  UNL     1      21.031   7.764  23.270  1.00  0.00    -0.357 OA
ATOM     27  H3  UNL     1      20.583   8.545  22.967  1.00  0.00     0.217 HD
ENDBRANCH   7  26
BRANCH   6  28
HETATM   28  O2  UNL     1      22.323   5.510  24.188  1.00  0.00    -0.356 OA
ATOM     29  H2  UNL     1      22.705   4.725  24.563  1.00  0.00     0.218 HD
ENDBRANCH   6  28
TORSDOF 5
ENDMDL
MODEL 5
REMARK VINA RESULT: -7.904268988      4.125      7.973
REMARK  5 active torsions:
REMARK  status: ('A' for Active; 'I' for Inactive)
REMARK    1  A    between atoms: O1_2  and  C2_3 
REMARK    2  A    between atoms: C7_8  and  O2_9 
REMARK    3  A    between atoms: C8_11  and  O3_12 
REMARK    4  A    between atoms: C10_15  and  O4_16 
REMARK    5  A    between atoms: C11_18  and  O5_19 
ROOT
HETATM    1  C2  UNL     1      22.783   5.100  20.002  1.00  0.00     0.105 A 
HETATM    2  C3  UNL     1      22.305   3.954  20.609  1.00  0.00     0.053 A 
HETATM    3  C4  UNL     1      22.998   2.780  20.410  1.00  0.00    -0.005 A 
HETATM    4  C5  UNL     1      22.540   1.621  21.006  1.00  0.00     0.031 A 
HETATM    5  C6  UNL     1      23.234   0.438  20.793  1.00  0.00     0.122 A 
HETATM    6  C7  UNL     1      24.376   0.410  20.013  1.00  0.00     0.135 A 
HETATM    7  C8  UNL     1      24.833   1.569  19.425  1.00  0.00     0.115 A 
HETATM    8  C9  UNL     1      24.154   2.754  19.613  1.00  0.00     0.047 A 
HETATM    9  C10 UNL     1      24.621   3.904  19.014  1.00  0.00     0.116 A 
HETATM   10  C11 UNL     1      23.918   5.069  19.222  1.00  0.00     0.135 A 
HETATM   11  O6  UNL     1      22.564  -0.625  21.445  1.00  0.00    -0.308 OA
HETATM   12  C13 UNL     1      21.414  -0.112  22.044  1.00  0.00     0.092 C 
HETATM   13  C14 UNL     1      20.216  -0.344  22.606  1.00  0.00     0.046 C 
HETATM   14  C15 UNL     1      19.636   0.969  22.965  1.00  0.00     0.076 C 
HETATM   15  C16 UNL     1      19.616   1.330  24.377  1.00  0.00     0.050 C 
HETATM   16  C17 UNL     1      18.184   0.956  22.459  1.00  0.00     0.050 C 
HETATM   17  O7  UNL     1      20.359   1.865  22.121  1.00  0.00    -0.354 OA
HETATM   18  C18 UNL     1      21.594   1.352  22.090  1.00  0.00     0.138 C 
HETATM   19  C19 UNL     1      22.334   1.636  23.443  1.00  0.00     0.059 C 
ENDROOT
BRANCH   1  20
HETATM   20  O1  UNL     1      22.114   6.299  20.180  1.00  0.00    -0.353 OA
HETATM   21  C1  UNL     1      22.419   7.174  21.245  1.00  0.00     0.210 C 
ENDBRANCH   1  20
BRANCH  10  22
HETATM   22  O5  UNL     1      24.414   6.226  18.600  1.00  0.00    -0.351 OA
HETATM   23  C12 UNL     1      23.933   6.546  17.310  1.00  0.00     0.210 C 
ENDBRANCH  10  22
BRANCH   9  24
HETATM   24  O4  UNL     1      25.777   3.891  18.214  1.00  0.00    -0.357 OA
ATOM     25  H4  UNL     1      25.763   3.532  17.335  1.00  0.00     0.217 HD
ENDBRANCH   9  24
BRANCH   7  26
HETATM   26  O3  UNL     1      25.984   1.587  18.630  1.00  0.00    -0.357 OA
ATOM     27  H3  UNL     1      26.855   1.561  19.009  1.00  0.00     0.217 HD
ENDBRANCH   7  26
BRANCH   6  28
HETATM   28  O2  UNL     1      25.100  -0.750  19.788  1.00  0.00    -0.356 OA
ATOM     29  H2  UNL     1      25.939  -0.754  19.344  1.00  0.00     0.218 HD
ENDBRANCH   6  28
TORSDOF 5
ENDMDL
