MODEL 1
REMARK VINA RESULT: -7.328239599      0.000      0.000
REMARK  3 active torsions:
REMARK  status: ('A' for Active; 'I' for Inactive)
REMARK    1  A    between atoms: O1_2  and  C2_3 
REMARK    2  A    between atoms: C3_6  and  S1_7 
REMARK    3  A    between atoms: C7_12  and  C8_13 
ROOT
HETATM    1  C2  UNL     1     -19.774  38.060  -0.264  1.00  0.00     0.168 A 
HETATM    2  N1  UNL     1     -19.534  37.323   0.844  1.00  0.00    -0.329 N 
ATOM      3  H1  UNL     1     -19.977  37.594   1.723  1.00  0.00     0.168 HD
HETATM    4  C3  UNL     1     -18.731  36.242   0.826  1.00  0.00     0.093 A 
HETATM    5  C5  UNL     1     -18.147  35.890  -0.359  1.00  0.00     0.091 A 
HETATM    6  C6  UNL     1     -17.285  34.766  -0.435  1.00  0.00     0.103 C 
HETATM    7  N2  UNL     1     -16.575  33.853  -0.511  1.00  0.00    -0.191 NA
HETATM    8  C7  UNL     1     -18.368  36.625  -1.533  1.00  0.00     0.026 A 
HETATM    9  C14 UNL     1     -19.189  37.720  -1.486  1.00  0.00     0.110 A 
HETATM   10  N3  UNL     1     -19.412  38.463  -2.668  1.00  0.00    -0.097 NA
ENDROOT
BRANCH   4  11
HETATM   11  S1  UNL     1     -18.456  35.307   2.320  1.00  0.00    -0.115 SA
HETATM   12  C4  UNL     1     -16.865  35.652   3.088  1.00  0.00     0.097 C 
ENDBRANCH   4  11
BRANCH   8  13
HETATM   13  C8  UNL     1     -17.733  36.211  -2.780  1.00  0.00    -0.019 A 
HETATM   14  C9  UNL     1     -18.507  35.732  -3.835  1.00  0.00     0.039 A 
HETATM   15  C10 UNL     1     -17.917  35.337  -5.009  1.00  0.00     0.075 A 
HETATM   16 CL1  UNL     1     -18.913  34.731  -6.339  1.00  0.00    -0.081 Cl
HETATM   17  C11 UNL     1     -16.544  35.404  -5.176  1.00  0.00     0.159 A 
HETATM   18  F1  UNL     1     -15.998  35.000  -6.361  1.00  0.00    -0.203 F 
HETATM   19  C12 UNL     1     -15.760  35.878  -4.138  1.00  0.00     0.075 A 
HETATM   20 CL2  UNL     1     -14.035  35.931  -4.408  1.00  0.00    -0.081 Cl
HETATM   21  C13 UNL     1     -16.365  36.267  -2.976  1.00  0.00     0.039 A 
ENDBRANCH   8  13
BRANCH   1  22
HETATM   22  O1  UNL     1     -20.583  39.174  -0.303  1.00  0.00    -0.339 OA
HETATM   23  C1  UNL     1     -21.961  39.254  -0.210  1.00  0.00     0.211 C 
ENDBRANCH   1  22
TORSDOF 3
ENDMDL
MODEL 2
REMARK VINA RESULT: -7.271074098      1.845      2.152
REMARK  3 active torsions:
REMARK  status: ('A' for Active; 'I' for Inactive)
REMARK    1  A    between atoms: O1_2  and  C2_3 
REMARK    2  A    between atoms: C3_6  and  S1_7 
REMARK    3  A    between atoms: C7_12  and  C8_13 
ROOT
HETATM    1  C2  UNL     1     -19.542  37.022  -1.523  1.00  0.00     0.168 A 
HETATM    2  N1  UNL     1     -18.748  36.474  -0.575  1.00  0.00    -0.329 N 
ATOM      3  H1  UNL     1     -19.042  36.519   0.401  1.00  0.00     0.168 HD
HETATM    4  C3  UNL     1     -17.583  35.870  -0.878  1.00  0.00     0.093 A 
HETATM    5  C5  UNL     1     -17.205  35.817  -2.191  1.00  0.00     0.091 A 
HETATM    6  C6  UNL     1     -15.984  35.200  -2.567  1.00  0.00     0.103 C 
HETATM    7  N2  UNL     1     -14.987  34.705  -2.888  1.00  0.00    -0.191 NA
HETATM    8  C7  UNL     1     -17.997  36.371  -3.207  1.00  0.00     0.026 A 
HETATM    9  C14 UNL     1     -19.178  36.978  -2.871  1.00  0.00     0.110 A 
HETATM   10  N3  UNL     1     -19.977  37.539  -3.892  1.00  0.00    -0.097 NA
ENDROOT
BRANCH   4  11
HETATM   11  S1  UNL     1     -16.580  35.163   0.417  1.00  0.00    -0.115 SA
HETATM   12  C4  UNL     1     -16.879  35.905   2.029  1.00  0.00     0.097 C 
ENDBRANCH   4  11
BRANCH   8  13
HETATM   13  C8  UNL     1     -17.563  36.284  -4.597  1.00  0.00    -0.019 A 
HETATM   14  C9  UNL     1     -18.022  35.251  -5.411  1.00  0.00     0.039 A 
HETATM   15  C10 UNL     1     -17.614  35.160  -6.719  1.00  0.00     0.075 A 
HETATM   16 CL1  UNL     1     -18.206  33.843  -7.740  1.00  0.00    -0.081 Cl
HETATM   17  C11 UNL     1     -16.740  36.088  -7.260  1.00  0.00     0.159 A 
HETATM   18  F1  UNL     1     -16.361  35.960  -8.565  1.00  0.00    -0.203 F 
HETATM   19  C12 UNL     1     -16.275  37.121  -6.464  1.00  0.00     0.075 A 
HETATM   20 CL2  UNL     1     -15.170  38.254  -7.204  1.00  0.00    -0.081 Cl
HETATM   21  C13 UNL     1     -16.691  37.196  -5.165  1.00  0.00     0.039 A 
ENDBRANCH   8  13
BRANCH   1  22
HETATM   22  O1  UNL     1     -20.741  37.652  -1.271  1.00  0.00    -0.339 OA
HETATM   23  C1  UNL     1     -21.059  38.555  -0.272  1.00  0.00     0.211 C 
ENDBRANCH   1  22
TORSDOF 3
ENDMDL
MODEL 3
REMARK VINA RESULT: -7.250078499      1.788      3.583
REMARK  3 active torsions:
REMARK  status: ('A' for Active; 'I' for Inactive)
REMARK    1  A    between atoms: O1_2  and  C2_3 
REMARK    2  A    between atoms: C3_6  and  S1_7 
REMARK    3  A    between atoms: C7_12  and  C8_13 
ROOT
HETATM    1  C2  UNL     1     -18.363  35.933   1.796  1.00  0.00     0.168 A 
HETATM    2  N1  UNL     1     -19.070  37.071   1.978  1.00  0.00    -0.329 N 
ATOM      3  H1  UNL     1     -19.376  37.317   2.919  1.00  0.00     0.168 HD
HETATM    4  C3  UNL     1     -19.385  37.889   0.955  1.00  0.00     0.093 A 
HETATM    5  C5  UNL     1     -18.967  37.546  -0.300  1.00  0.00     0.091 A 
HETATM    6  C6  UNL     1     -19.276  38.367  -1.415  1.00  0.00     0.103 C 
HETATM    7  N2  UNL     1     -19.526  39.025  -2.336  1.00  0.00    -0.191 NA
HETATM    8  C7  UNL     1     -18.230  36.376  -0.535  1.00  0.00     0.026 A 
HETATM    9  C14 UNL     1     -17.923  35.562   0.523  1.00  0.00     0.110 A 
HETATM   10  N3  UNL     1     -17.182  34.381   0.289  1.00  0.00    -0.097 NA
ENDROOT
BRANCH   4  11
HETATM   11  S1  UNL     1     -20.319  39.379   1.258  1.00  0.00    -0.115 SA
HETATM   12  C4  UNL     1     -21.905  39.405   0.409  1.00  0.00     0.097 C 
ENDBRANCH   4  11
BRANCH   8  13
HETATM   13  C8  UNL     1     -17.794  36.050  -1.889  1.00  0.00    -0.019 A 
HETATM   14  C9  UNL     1     -18.728  35.685  -2.856  1.00  0.00     0.039 A 
HETATM   15  C10 UNL     1     -18.325  35.373  -4.130  1.00  0.00     0.075 A 
HETATM   16 CL1  UNL     1     -19.522  34.912  -5.348  1.00  0.00    -0.081 Cl
HETATM   17  C11 UNL     1     -16.987  35.412  -4.486  1.00  0.00     0.159 A 
HETATM   18  F1  UNL     1     -16.631  35.093  -5.765  1.00  0.00    -0.203 F 
HETATM   19  C12 UNL     1     -16.046  35.773  -3.537  1.00  0.00     0.075 A 
HETATM   20 CL2  UNL     1     -14.376  35.796  -4.046  1.00  0.00    -0.081 Cl
HETATM   21  C13 UNL     1     -16.465  36.081  -2.273  1.00  0.00     0.039 A 
ENDBRANCH   8  13
BRANCH   1  22
HETATM   22  O1  UNL     1     -18.015  35.059   2.802  1.00  0.00    -0.339 OA
HETATM   23  C1  UNL     1     -16.954  35.125   3.688  1.00  0.00     0.211 C 
ENDBRANCH   1  22
TORSDOF 3
ENDMDL
MODEL 4
REMARK VINA RESULT: -7.243152453      0.286      1.935
REMARK  3 active torsions:
REMARK  status: ('A' for Active; 'I' for Inactive)
REMARK    1  A    between atoms: O1_2  and  C2_3 
REMARK    2  A    between atoms: C3_6  and  S1_7 
REMARK    3  A    between atoms: C7_12  and  C8_13 
ROOT
HETATM    1  C2  UNL     1     -19.827  38.044  -0.200  1.00  0.00     0.168 A 
HETATM    2  N1  UNL     1     -19.544  37.325   0.910  1.00  0.00    -0.329 N 
ATOM      3  H1  UNL     1     -19.962  37.602   1.798  1.00  0.00     0.168 HD
HETATM    4  C3  UNL     1     -18.727  36.254   0.881  1.00  0.00     0.093 A 
HETATM    5  C5  UNL     1     -18.175  35.895  -0.318  1.00  0.00     0.091 A 
HETATM    6  C6  UNL     1     -17.301  34.781  -0.406  1.00  0.00     0.103 C 
HETATM    7  N2  UNL     1     -16.582  33.876  -0.492  1.00  0.00    -0.191 NA
HETATM    8  C7  UNL     1     -18.442  36.611  -1.494  1.00  0.00     0.026 A 
HETATM    9  C14 UNL     1     -19.276  37.695  -1.436  1.00  0.00     0.110 A 
HETATM   10  N3  UNL     1     -19.545  38.420  -2.619  1.00  0.00    -0.097 NA
ENDROOT
BRANCH   4  11
HETATM   11  S1  UNL     1     -18.393  35.344   2.378  1.00  0.00    -0.115 SA
HETATM   12  C4  UNL     1     -16.805  35.754   3.117  1.00  0.00     0.097 C 
ENDBRANCH   4  11
BRANCH   8  13
HETATM   13  C8  UNL     1     -17.840  36.188  -2.754  1.00  0.00    -0.019 A 
HETATM   14  C9  UNL     1     -16.461  36.269  -2.934  1.00  0.00     0.039 A 
HETATM   15  C10 UNL     1     -15.888  35.878  -4.118  1.00  0.00     0.075 A 
HETATM   16 CL1  UNL     1     -14.136  35.984  -4.331  1.00  0.00    -0.081 Cl
HETATM   17  C11 UNL     1     -16.663  35.396  -5.161  1.00  0.00     0.159 A 
HETATM   18  F1  UNL     1     -16.052  35.018  -6.322  1.00  0.00    -0.203 F 
HETATM   19  C12 UNL     1     -18.035  35.310  -4.999  1.00  0.00     0.075 A 
HETATM   20 CL2  UNL     1     -18.956  34.702  -6.353  1.00  0.00    -0.081 Cl
HETATM   21  C13 UNL     1     -18.588  35.704  -3.812  1.00  0.00     0.039 A 
ENDBRANCH   8  13
BRANCH   1  22
HETATM   22  O1  UNL     1     -20.652  39.147  -0.229  1.00  0.00    -0.339 OA
HETATM   23  C1  UNL     1     -21.369  39.727   0.802  1.00  0.00     0.211 C 
ENDBRANCH   1  22
TORSDOF 3
ENDMDL
MODEL 5
REMARK VINA RESULT: -7.232238949      1.804      2.662
REMARK  3 active torsions:
REMARK  status: ('A' for Active; 'I' for Inactive)
REMARK    1  A    between atoms: O1_2  and  C2_3 
REMARK    2  A    between atoms: C3_6  and  S1_7 
REMARK    3  A    between atoms: C7_12  and  C8_13 
ROOT
HETATM    1  C2  UNL     1     -19.547  37.027  -1.441  1.00  0.00     0.168 A 
HETATM    2  N1  UNL     1     -18.740  36.495  -0.496  1.00  0.00    -0.329 N 
ATOM      3  H1  UNL     1     -19.019  36.557   0.484  1.00  0.00     0.168 HD
HETATM    4  C3  UNL     1     -17.580  35.884  -0.805  1.00  0.00     0.093 A 
HETATM    5  C5  UNL     1     -17.221  35.807  -2.122  1.00  0.00     0.091 A 
HETATM    6  C6  UNL     1     -16.006  35.182  -2.505  1.00  0.00     0.103 C 
HETATM    7  N2  UNL     1     -15.014  34.680  -2.832  1.00  0.00    -0.191 NA
HETATM    8  C7  UNL     1     -18.028  36.344  -3.136  1.00  0.00     0.026 A 
HETATM    9  C14 UNL     1     -19.202  36.959  -2.793  1.00  0.00     0.110 A 
HETATM   10  N3  UNL     1     -20.017  37.503  -3.813  1.00  0.00    -0.097 NA
ENDROOT
BRANCH   4  11
HETATM   11  S1  UNL     1     -16.559  35.199   0.487  1.00  0.00    -0.115 SA
HETATM   12  C4  UNL     1     -16.902  35.901   2.108  1.00  0.00     0.097 C 
ENDBRANCH   4  11
BRANCH   8  13
HETATM   13  C8  UNL     1     -17.614  36.232  -4.531  1.00  0.00    -0.019 A 
HETATM   14  C9  UNL     1     -16.737  37.166  -5.078  1.00  0.00     0.039 A 
HETATM   15  C10 UNL     1     -16.346  37.070  -6.390  1.00  0.00     0.075 A 
HETATM   16 CL1  UNL     1     -15.231  38.263  -7.070  1.00  0.00    -0.081 Cl
HETATM   17  C11 UNL     1     -16.812  36.048  -7.200  1.00  0.00     0.159 A 
HETATM   18  F1  UNL     1     -16.397  35.991  -8.500  1.00  0.00    -0.203 F 
HETATM   19  C12 UNL     1     -17.683  35.112  -6.672  1.00  0.00     0.075 A 
HETATM   20 CL2  UNL     1     -18.239  33.852  -7.747  1.00  0.00    -0.081 Cl
HETATM   21  C13 UNL     1     -18.062  35.223  -5.364  1.00  0.00     0.039 A 
ENDBRANCH   8  13
BRANCH   1  22
HETATM   22  O1  UNL     1     -20.741  37.663  -1.183  1.00  0.00    -0.339 OA
HETATM   23  C1  UNL     1     -21.009  38.688  -0.294  1.00  0.00     0.211 C 
ENDBRANCH   1  22
TORSDOF 3
ENDMDL
