MODEL 1
REMARK VINA RESULT: -7.665877139      0.000      0.000
REMARK  3 active torsions:
REMARK  status: ('A' for Active; 'I' for Inactive)
REMARK    1  A    between atoms: N1_2  and  N2_3 
REMARK       I    between atoms: N2_3  and  C2_5 
REMARK       I    between atoms: N4_7  and  C3_9 
REMARK       I    between atoms: C3_9  and  N6_13 
REMARK    2  A    between atoms: N6_13  and  C4_15 
REMARK    3  A    between atoms: C4_15  and  C5_16 
ROOT
HETATM    1  N2  UNL     1      11.331  14.873  61.080  1.00  0.00    -0.277 N 
ATOM      2  H2  UNL     1      11.327  14.254  61.889  1.00  0.00     0.185 HD
HETATM    3  C2  UNL     1      11.370  14.322  59.766  1.00  0.00     0.218 C 
HETATM    4  N3  UNL     1      10.176  14.172  59.008  1.00  0.00    -0.062 NA
HETATM    5  N4  UNL     1      12.490  13.945  59.227  1.00  0.00    -0.163 N 
ATOM      6  H4  UNL     1      12.473  13.556  58.284  1.00  0.00     0.187 HD
HETATM    7  C3  UNL     1      13.729  14.050  59.892  1.00  0.00     0.674 C 
HETATM    8  N5  UNL     1      13.791  13.823  61.145  1.00  0.00    -0.235 N 
ATOM      9  H51 UNL     1      14.687  13.899  61.626  1.00  0.00     0.174 HD
ATOM     10  H52 UNL     1      12.944  13.566  61.652  1.00  0.00     0.174 HD
HETATM   11  N6  UNL     1      14.903  14.406  59.190  1.00  0.00    -0.224 N 
ATOM     12  H6  UNL     1      15.231  15.372  59.199  1.00  0.00     0.177 HD
ENDROOT
BRANCH  11  13
HETATM   13  C4  UNL     1      15.626  13.413  58.471  1.00  0.00     0.173 C 
BRANCH  13  14
HETATM   14  C5  UNL     1      14.811  12.320  57.866  1.00  0.00     0.244 C 
HETATM   15  C6  UNL     1      15.086  10.965  58.464  1.00  0.00     0.068 C 
HETATM   16  C7  UNL     1      14.108   9.985  57.858  1.00  0.00     0.276 C 
HETATM   17  N7  UNL     1      13.917  10.157  56.451  1.00  0.00     0.112 N 
HETATM   18  C8  UNL     1      12.963   9.211  55.967  1.00  0.00     0.312 C 
HETATM   19  C9  UNL     1      13.617  11.517  56.052  1.00  0.00     0.542 C 
HETATM   20  N8  UNL     1      14.794  12.312  56.437  1.00  0.00     0.118 N 
HETATM   21  C10 UNL     1      15.956  11.806  55.792  1.00  0.00     0.312 C 
ENDBRANCH  13  14
ENDBRANCH  11  13
BRANCH   1  22
HETATM   22  N1  UNL     1      11.300  16.258  61.264  1.00  0.00    -0.144 NA
HETATM   23  C1  UNL     1      12.591  16.730  61.694  1.00  0.00     0.159 C 
ENDBRANCH   1  22
TORSDOF 3
ENDMDL
MODEL 2
REMARK VINA RESULT: -7.083041014      2.638      3.761
REMARK  3 active torsions:
REMARK  status: ('A' for Active; 'I' for Inactive)
REMARK    1  A    between atoms: N1_2  and  N2_3 
REMARK       I    between atoms: N2_3  and  C2_5 
REMARK       I    between atoms: N4_7  and  C3_9 
REMARK       I    between atoms: C3_9  and  N6_13 
REMARK    2  A    between atoms: N6_13  and  C4_15 
REMARK    3  A    between atoms: C4_15  and  C5_16 
ROOT
HETATM    1  N2  UNL     1      15.055  14.130  64.147  1.00  0.00    -0.277 N 
ATOM      2  H2  UNL     1      14.166  13.670  64.341  1.00  0.00     0.185 HD
HETATM    3  C2  UNL     1      15.107  15.207  63.215  1.00  0.00     0.218 C 
HETATM    4  N3  UNL     1      15.087  16.556  63.663  1.00  0.00    -0.062 NA
HETATM    5  N4  UNL     1      15.176  14.986  61.936  1.00  0.00    -0.163 N 
ATOM      6  H4  UNL     1      15.213  15.785  61.303  1.00  0.00     0.187 HD
HETATM    7  C3  UNL     1      15.202  13.687  61.388  1.00  0.00     0.674 C 
HETATM    8  N5  UNL     1      14.493  12.768  61.915  1.00  0.00    -0.235 N 
ATOM      9  H51 UNL     1      14.512  11.829  61.518  1.00  0.00     0.174 HD
ATOM     10  H52 UNL     1      13.915  12.983  62.726  1.00  0.00     0.174 HD
HETATM   11  N6  UNL     1      16.004  13.390  60.262  1.00  0.00    -0.224 N 
ATOM     12  H6  UNL     1      16.921  12.959  60.387  1.00  0.00     0.177 HD
ENDROOT
BRANCH  11  13
HETATM   13  C4  UNL     1      15.529  13.691  58.955  1.00  0.00     0.173 C 
BRANCH  13  14
HETATM   14  C5  UNL     1      15.138  12.523  58.115  1.00  0.00     0.244 C 
HETATM   15  C6  UNL     1      14.945  12.866  56.661  1.00  0.00     0.068 C 
HETATM   16  C7  UNL     1      14.684  11.579  55.913  1.00  0.00     0.276 C 
HETATM   17  N7  UNL     1      13.800  10.684  56.595  1.00  0.00     0.112 N 
HETATM   18  C8  UNL     1      13.630   9.488  55.832  1.00  0.00     0.312 C 
HETATM   19  C9  UNL     1      14.159  10.429  57.974  1.00  0.00     0.542 C 
HETATM   20  N8  UNL     1      14.076  11.731  58.653  1.00  0.00     0.118 N 
HETATM   21  C10 UNL     1      12.764  12.264  58.528  1.00  0.00     0.312 C 
ENDBRANCH  13  14
ENDBRANCH  11  13
BRANCH   1  22
HETATM   22  N1  UNL     1      16.215  13.702  64.798  1.00  0.00    -0.144 NA
HETATM   23  C1  UNL     1      16.183  14.101  66.182  1.00  0.00     0.159 C 
ENDBRANCH   1  22
TORSDOF 3
ENDMDL
MODEL 3
REMARK VINA RESULT: -7.047020881      1.731      6.293
REMARK  3 active torsions:
REMARK  status: ('A' for Active; 'I' for Inactive)
REMARK    1  A    between atoms: N1_2  and  N2_3 
REMARK       I    between atoms: N2_3  and  C2_5 
REMARK       I    between atoms: N4_7  and  C3_9 
REMARK       I    between atoms: C3_9  and  N6_13 
REMARK    2  A    between atoms: N6_13  and  C4_15 
REMARK    3  A    between atoms: C4_15  and  C5_16 
ROOT
HETATM    1  N2  UNL     1      13.729  10.706  55.418  1.00  0.00    -0.277 N 
ATOM      2  H2  UNL     1      13.273  11.541  55.052  1.00  0.00     0.185 HD
HETATM    3  C2  UNL     1      13.172  10.029  56.542  1.00  0.00     0.218 C 
HETATM    4  N3  UNL     1      12.349   8.884  56.363  1.00  0.00    -0.062 NA
HETATM    5  N4  UNL     1      13.401  10.437  57.754  1.00  0.00    -0.163 N 
ATOM      6  H4  UNL     1      12.983   9.923  58.530  1.00  0.00     0.187 HD
HETATM    7  C3  UNL     1      14.203  11.561  58.041  1.00  0.00     0.674 C 
HETATM    8  N5  UNL     1      14.150  12.582  57.278  1.00  0.00    -0.235 N 
ATOM      9  H51 UNL     1      14.730  13.394  57.486  1.00  0.00     0.174 HD
ATOM     10  H52 UNL     1      13.528  12.573  56.470  1.00  0.00     0.174 HD
HETATM   11  N6  UNL     1      15.065  11.572  59.161  1.00  0.00    -0.224 N 
ATOM     12  H6  UNL     1      16.055  11.353  59.047  1.00  0.00     0.177 HD
ENDROOT
BRANCH  11  13
HETATM   13  C4  UNL     1      14.549  11.890  60.449  1.00  0.00     0.173 C 
BRANCH  13  14
HETATM   14  C5  UNL     1      14.097  13.298  60.642  1.00  0.00     0.244 C 
HETATM   15  C6  UNL     1      14.343  13.821  62.034  1.00  0.00     0.068 C 
HETATM   16  C7  UNL     1      13.963  15.284  62.051  1.00  0.00     0.276 C 
HETATM   17  N7  UNL     1      12.753  15.574  61.346  1.00  0.00     0.112 N 
HETATM   18  C8  UNL     1      12.484  16.976  61.391  1.00  0.00     0.312 C 
HETATM   19  C9  UNL     1      12.701  15.032  60.004  1.00  0.00     0.542 C 
HETATM   20  N8  UNL     1      12.778  13.571  60.163  1.00  0.00     0.118 N 
HETATM   21  C10 UNL     1      11.702  13.112  60.972  1.00  0.00     0.312 C 
ENDBRANCH  13  14
ENDBRANCH  11  13
BRANCH   1  22
HETATM   22  N1  UNL     1      14.897  10.231  54.815  1.00  0.00    -0.144 NA
HETATM   23  C1  UNL     1      14.574   9.227  53.833  1.00  0.00     0.159 C 
ENDBRANCH   1  22
TORSDOF 3
ENDMDL
MODEL 4
REMARK VINA RESULT: -7.002660835      2.636      3.923
REMARK  3 active torsions:
REMARK  status: ('A' for Active; 'I' for Inactive)
REMARK    1  A    between atoms: N1_2  and  N2_3 
REMARK       I    between atoms: N2_3  and  C2_5 
REMARK       I    between atoms: N4_7  and  C3_9 
REMARK       I    between atoms: C3_9  and  N6_13 
REMARK    2  A    between atoms: N6_13  and  C4_15 
REMARK    3  A    between atoms: C4_15  and  C5_16 
ROOT
HETATM    1  N2  UNL     1      15.837  15.862  63.516  1.00  0.00    -0.277 N 
ATOM      2  H2  UNL     1      16.688  16.023  62.979  1.00  0.00     0.185 HD
HETATM    3  C2  UNL     1      15.478  14.536  63.895  1.00  0.00     0.218 C 
HETATM    4  N3  UNL     1      15.785  14.046  65.194  1.00  0.00    -0.062 NA
HETATM    5  N4  UNL     1      14.864  13.743  63.069  1.00  0.00    -0.163 N 
ATOM      6  H4  UNL     1      14.625  12.802  63.382  1.00  0.00     0.187 HD
HETATM    7  C3  UNL     1      14.514  14.130  61.759  1.00  0.00     0.674 C 
HETATM    8  N5  UNL     1      15.308  14.869  61.089  1.00  0.00    -0.235 N 
ATOM      9  H51 UNL     1      15.056  15.148  60.141  1.00  0.00     0.174 HD
ATOM     10  H52 UNL     1      16.188  15.170  61.508  1.00  0.00     0.174 HD
HETATM   11  N6  UNL     1      13.295  13.712  61.179  1.00  0.00    -0.224 N 
ATOM     12  H6  UNL     1      12.486  14.333  61.186  1.00  0.00     0.177 HD
ENDROOT
BRANCH  11  13
HETATM   13  C4  UNL     1      13.199  12.422  60.584  1.00  0.00     0.173 C 
BRANCH  13  14
HETATM   14  C5  UNL     1      13.799  12.282  59.226  1.00  0.00     0.244 C 
HETATM   15  C6  UNL     1      12.945  11.486  58.273  1.00  0.00     0.068 C 
HETATM   16  C7  UNL     1      13.603  11.536  56.913  1.00  0.00     0.276 C 
HETATM   17  N7  UNL     1      15.024  11.381  56.953  1.00  0.00     0.112 N 
HETATM   18  C8  UNL     1      15.564  11.465  55.633  1.00  0.00     0.312 C 
HETATM   19  C9  UNL     1      15.693  12.255  57.894  1.00  0.00     0.542 C 
HETATM   20  N8  UNL     1      15.172  11.885  59.219  1.00  0.00     0.118 N 
HETATM   21  C10 UNL     1      15.435  10.512  59.480  1.00  0.00     0.312 C 
ENDBRANCH  13  14
ENDBRANCH  11  13
BRANCH   1  22
HETATM   22  N1  UNL     1      15.027  16.943  63.876  1.00  0.00    -0.144 NA
HETATM   23  C1  UNL     1      15.757  17.844  64.731  1.00  0.00     0.159 C 
ENDBRANCH   1  22
TORSDOF 3
ENDMDL
MODEL 5
REMARK VINA RESULT: -6.985304438      2.497      3.424
REMARK  3 active torsions:
REMARK  status: ('A' for Active; 'I' for Inactive)
REMARK    1  A    between atoms: N1_2  and  N2_3 
REMARK       I    between atoms: N2_3  and  C2_5 
REMARK       I    between atoms: N4_7  and  C3_9 
REMARK       I    between atoms: C3_9  and  N6_13 
REMARK    2  A    between atoms: N6_13  and  C4_15 
REMARK    3  A    between atoms: C4_15  and  C5_16 
ROOT
HETATM    1  N2  UNL     1      15.041  14.196  64.189  1.00  0.00    -0.277 N 
ATOM      2  H2  UNL     1      14.186  13.691  64.418  1.00  0.00     0.185 HD
HETATM    3  C2  UNL     1      15.001  15.272  63.255  1.00  0.00     0.218 C 
HETATM    4  N3  UNL     1      14.929  16.619  63.705  1.00  0.00    -0.062 NA
HETATM    5  N4  UNL     1      15.029  15.053  61.975  1.00  0.00    -0.163 N 
ATOM      6  H4  UNL     1      14.999  15.853  61.341  1.00  0.00     0.187 HD
HETATM    7  C3  UNL     1      15.099  13.757  61.425  1.00  0.00     0.674 C 
HETATM    8  N5  UNL     1      14.460  12.803  61.980  1.00  0.00    -0.235 N 
ATOM      9  H51 UNL     1      14.511  11.866  61.582  1.00  0.00     0.174 HD
ATOM     10  H52 UNL     1      13.905  12.989  62.814  1.00  0.00     0.174 HD
HETATM   11  N6  UNL     1      15.869  13.499  60.268  1.00  0.00    -0.224 N 
ATOM     12  H6  UNL     1      16.811  13.116  60.355  1.00  0.00     0.177 HD
ENDROOT
BRANCH  11  13
HETATM   13  C4  UNL     1      15.327  13.774  58.981  1.00  0.00     0.173 C 
BRANCH  13  14
HETATM   14  C5  UNL     1      14.659  12.631  58.295  1.00  0.00     0.244 C 
HETATM   15  C6  UNL     1      15.166  11.284  58.742  1.00  0.00     0.068 C 
HETATM   16  C7  UNL     1      14.321  10.226  58.071  1.00  0.00     0.276 C 
HETATM   17  N7  UNL     1      14.038  10.500  56.696  1.00  0.00     0.112 N 
HETATM   18  C8  UNL     1      13.217   9.467  56.150  1.00  0.00     0.312 C 
HETATM   19  C9  UNL     1      13.515  11.828  56.448  1.00  0.00     0.542 C 
HETATM   20  N8  UNL     1      14.574  12.756  56.873  1.00  0.00     0.118 N 
HETATM   21  C10 UNL     1      15.767  12.502  56.142  1.00  0.00     0.312 C 
ENDBRANCH  13  14
ENDBRANCH  11  13
BRANCH   1  22
HETATM   22  N1  UNL     1      16.247  13.829  64.791  1.00  0.00    -0.144 NA
HETATM   23  C1  UNL     1      16.230  14.179  66.189  1.00  0.00     0.159 C 
ENDBRANCH   1  22
TORSDOF 3
ENDMDL
