MODEL 1
REMARK VINA RESULT: -8.723792289      0.000      0.000
REMARK  6 active torsions:
REMARK  status: ('A' for Active; 'I' for Inactive)
REMARK    1  A    between atoms: C2_2  and  N1_3 
REMARK    2  A    between atoms: N1_3  and  C3_4 
REMARK       I    between atoms: N1_3  and  C5_6 
REMARK    3  A    between atoms: C5_6  and  C6_8 
REMARK    4  A    between atoms: C6_8  and  C7_9 
REMARK    5  A    between atoms: C12_20  and  C13_21 
REMARK    6  A    between atoms: C16_29  and  C18_31 
ROOT
HETATM    1  C7  UNL     1       3.222   1.312  20.908  1.00  0.00     0.063 A 
HETATM    2  N2  UNL     1       2.417   1.087  19.873  1.00  0.00    -0.302 N 
ATOM      3  H2  UNL     1       1.452   0.766  19.946  1.00  0.00     0.186 HD
HETATM    4  N3  UNL     1       3.044   1.339  18.738  1.00  0.00    -0.301 N 
ATOM      5  H3  UNL     1       2.650   1.247  17.802  1.00  0.00     0.186 HD
HETATM    6  C8  UNL     1       4.293   1.739  19.033  1.00  0.00     0.068 A 
HETATM    7  C9  UNL     1       4.449   1.740  20.378  1.00  0.00     0.082 A 
HETATM    8  N4  UNL     1       5.650   2.169  20.943  1.00  0.00    -0.356 N 
ATOM      9  H4  UNL     1       5.721   2.143  21.960  1.00  0.00     0.166 HD
HETATM   10  C10 UNL     1       6.659   2.589  20.305  1.00  0.00     0.017 C 
HETATM   11  C11 UNL     1       7.856   2.998  21.064  1.00  0.00     0.069 C 
HETATM   12  C12 UNL     1       6.594   2.725  18.845  1.00  0.00     0.033 C 
HETATM   13  C16 UNL     1       5.446   2.094  18.165  1.00  0.00     0.048 C 
HETATM   14  C17 UNL     1       4.876   3.039  17.087  1.00  0.00     0.029 C 
ENDROOT
BRANCH   1  15
HETATM   15  C6  UNL     1       2.973   1.172  22.352  1.00  0.00     0.164 C 
BRANCH  15  16
HETATM   16  C5  UNL     1       2.145   2.308  22.834  1.00  0.00     0.225 C 
HETATM   17  N1  UNL     1       2.008   2.490  24.235  1.00  0.00    -0.353 N 
HETATM   18  O1  UNL     1       1.591   3.072  22.021  1.00  0.00    -0.273 OA
BRANCH  17  19
HETATM   19  C2  UNL     1       1.213   3.580  24.718  1.00  0.00     0.121 C 
HETATM   20  C1  UNL     1      -0.216   3.470  24.252  1.00  0.00     0.026 C 
ENDBRANCH  17  19
BRANCH  17  21
HETATM   21  C3  UNL     1       2.639   1.619  25.204  1.00  0.00     0.121 C 
HETATM   22  C4  UNL     1       2.631   2.213  26.596  1.00  0.00     0.026 C 
ENDBRANCH  17  21
ENDBRANCH  15  16
ENDBRANCH   1  15
BRANCH  13  23
HETATM   23  C18 UNL     1       5.760   0.816  17.400  1.00  0.00     0.135 C 
HETATM   24 CL1  UNL     1       5.385   0.951  15.668  1.00  0.00    -0.129 Cl
ENDBRANCH  13  23
BRANCH  12  25
HETATM   25  C13 UNL     1       7.888   2.510  18.178  1.00  0.00     0.181 A 
HETATM   26  N5  UNL     1       8.718   1.469  18.278  1.00  0.00    -0.323 N 
HETATM   27  C14 UNL     1       9.789   1.658  17.512  1.00  0.00     0.100 A 
ATOM     28  H5  UNL     1       8.555   0.646  18.858  1.00  0.00     0.169 HD
HETATM   29  C15 UNL     1      10.982   0.794  17.287  1.00  0.00     0.091 C 
HETATM   30  N6  UNL     1       9.597   2.865  16.925  1.00  0.00    -0.247 N 
HETATM   31  O2  UNL     1       8.452   3.338  17.349  1.00  0.00    -0.218 OA
ATOM     32  H6  UNL     1      10.231   3.323  16.269  1.00  0.00     0.196 HD
ENDBRANCH  12  25
TORSDOF 6
ENDMDL
MODEL 2
REMARK VINA RESULT: -8.644447825      0.965      1.058
REMARK  6 active torsions:
REMARK  status: ('A' for Active; 'I' for Inactive)
REMARK    1  A    between atoms: C2_2  and  N1_3 
REMARK    2  A    between atoms: N1_3  and  C3_4 
REMARK       I    between atoms: N1_3  and  C5_6 
REMARK    3  A    between atoms: C5_6  and  C6_8 
REMARK    4  A    between atoms: C6_8  and  C7_9 
REMARK    5  A    between atoms: C12_20  and  C13_21 
REMARK    6  A    between atoms: C16_29  and  C18_31 
ROOT
HETATM    1  C7  UNL     1       3.212   1.303  20.931  1.00  0.00     0.063 A 
HETATM    2  N2  UNL     1       2.412   1.112  19.885  1.00  0.00    -0.302 N 
ATOM      3  H2  UNL     1       1.434   0.828  19.946  1.00  0.00     0.186 HD
HETATM    4  N3  UNL     1       3.061   1.343  18.759  1.00  0.00    -0.301 N 
ATOM      5  H3  UNL     1       2.675   1.268  17.818  1.00  0.00     0.186 HD
HETATM    6  C8  UNL     1       4.321   1.694  19.070  1.00  0.00     0.068 A 
HETATM    7  C9  UNL     1       4.460   1.685  20.417  1.00  0.00     0.082 A 
HETATM    8  N4  UNL     1       5.670   2.066  20.998  1.00  0.00    -0.356 N 
ATOM      9  H4  UNL     1       5.728   2.034  22.016  1.00  0.00     0.166 HD
HETATM   10  C10 UNL     1       6.702   2.449  20.374  1.00  0.00     0.017 C 
HETATM   11  C11 UNL     1       7.905   2.810  21.148  1.00  0.00     0.069 C 
HETATM   12  C12 UNL     1       6.660   2.591  18.913  1.00  0.00     0.033 C 
HETATM   13  C16 UNL     1       5.497   2.007  18.217  1.00  0.00     0.048 C 
HETATM   14  C17 UNL     1       4.977   2.976  17.136  1.00  0.00     0.029 C 
ENDROOT
BRANCH   1  15
HETATM   15  C6  UNL     1       2.940   1.169  22.371  1.00  0.00     0.164 C 
BRANCH  15  16
HETATM   16  C5  UNL     1       2.115   2.312  22.839  1.00  0.00     0.225 C 
HETATM   17  N1  UNL     1       1.974   2.511  24.237  1.00  0.00    -0.353 N 
HETATM   18  O1  UNL     1       1.566   3.069  22.015  1.00  0.00    -0.273 OA
BRANCH  17  19
HETATM   19  C2  UNL     1       1.181   3.608  24.705  1.00  0.00     0.121 C 
HETATM   20  C1  UNL     1      -0.249   3.493  24.243  1.00  0.00     0.026 C 
ENDBRANCH  17  19
BRANCH  17  21
HETATM   21  C3  UNL     1       2.599   1.647  25.217  1.00  0.00     0.121 C 
HETATM   22  C4  UNL     1       2.573   2.248  26.606  1.00  0.00     0.026 C 
ENDBRANCH  17  21
ENDBRANCH  15  16
ENDBRANCH   1  15
BRANCH  13  23
HETATM   23  C18 UNL     1       5.771   0.719  17.452  1.00  0.00     0.135 C 
HETATM   24 CL1  UNL     1       5.859  -0.700  18.518  1.00  0.00    -0.129 Cl
ENDBRANCH  13  23
BRANCH  12  25
HETATM   25  C13 UNL     1       7.953   2.328  18.261  1.00  0.00     0.181 A 
HETATM   26  N5  UNL     1       8.638   3.103  17.418  1.00  0.00    -0.323 N 
HETATM   27  C14 UNL     1       9.767   2.503  17.052  1.00  0.00     0.100 A 
ATOM     28  H5  UNL     1       8.338   4.025  17.099  1.00  0.00     0.169 HD
HETATM   29  C15 UNL     1      10.851   2.958  16.137  1.00  0.00     0.091 C 
HETATM   30  N6  UNL     1       9.763   1.314  17.703  1.00  0.00    -0.247 N 
HETATM   31  O2  UNL     1       8.664   1.250  18.412  1.00  0.00    -0.218 OA
ATOM     32  H6  UNL     1      10.487   0.596  17.649  1.00  0.00     0.196 HD
ENDBRANCH  12  25
TORSDOF 6
ENDMDL
MODEL 3
REMARK VINA RESULT: -8.473605638      1.408      1.458
REMARK  6 active torsions:
REMARK  status: ('A' for Active; 'I' for Inactive)
REMARK    1  A    between atoms: C2_2  and  N1_3 
REMARK    2  A    between atoms: N1_3  and  C3_4 
REMARK       I    between atoms: N1_3  and  C5_6 
REMARK    3  A    between atoms: C5_6  and  C6_8 
REMARK    4  A    between atoms: C6_8  and  C7_9 
REMARK    5  A    between atoms: C12_20  and  C13_21 
REMARK    6  A    between atoms: C16_29  and  C18_31 
ROOT
HETATM    1  C7  UNL     1       2.873   1.281  21.182  1.00  0.00     0.063 A 
HETATM    2  N2  UNL     1       1.943   1.201  20.235  1.00  0.00    -0.302 N 
ATOM      3  H2  UNL     1       0.937   1.207  20.405  1.00  0.00     0.186 HD
HETATM    4  N3  UNL     1       2.505   1.112  19.043  1.00  0.00    -0.301 N 
ATOM      5  H3  UNL     1       2.013   1.040  18.153  1.00  0.00     0.186 HD
HETATM    6  C8  UNL     1       3.838   1.134  19.210  1.00  0.00     0.068 A 
HETATM    7  C9  UNL     1       4.115   1.241  20.532  1.00  0.00     0.082 A 
HETATM    8  N4  UNL     1       5.438   1.336  20.964  1.00  0.00    -0.356 N 
ATOM      9  H4  UNL     1       5.595   1.406  21.969  1.00  0.00     0.166 HD
HETATM   10  C10 UNL     1       6.461   1.344  20.219  1.00  0.00     0.017 C 
HETATM   11  C11 UNL     1       7.793   1.444  20.846  1.00  0.00     0.069 C 
HETATM   12  C12 UNL     1       6.300   1.323  18.759  1.00  0.00     0.033 C 
HETATM   13  C16 UNL     1       4.956   1.008  18.239  1.00  0.00     0.048 C 
HETATM   14  C17 UNL     1       4.598   1.952  17.073  1.00  0.00     0.029 C 
ENDROOT
BRANCH   1  15
HETATM   15  C6  UNL     1       2.733   1.394  22.644  1.00  0.00     0.164 C 
BRANCH  15  16
HETATM   16  C5  UNL     1       1.886   2.567  22.981  1.00  0.00     0.225 C 
HETATM   17  N1  UNL     1       1.597   2.814  24.348  1.00  0.00    -0.353 N 
HETATM   18  O1  UNL     1       1.448   3.306  22.079  1.00  0.00    -0.273 OA
BRANCH  17  19
HETATM   19  C2  UNL     1       0.781   3.940  24.692  1.00  0.00     0.121 C 
HETATM   20  C1  UNL     1      -0.619   3.794  24.152  1.00  0.00     0.026 C 
ENDBRANCH  17  19
BRANCH  17  21
HETATM   21  C3  UNL     1       2.091   1.973  25.418  1.00  0.00     0.121 C 
HETATM   22  C4  UNL     1       3.048   2.711  26.330  1.00  0.00     0.026 C 
ENDBRANCH  17  21
ENDBRANCH  15  16
ENDBRANCH   1  15
BRANCH  13  23
HETATM   23  C18 UNL     1       4.794  -0.383  17.643  1.00  0.00     0.135 C 
HETATM   24 CL1  UNL     1       3.873  -0.369  16.123  1.00  0.00    -0.129 Cl
ENDBRANCH  13  23
BRANCH  12  25
HETATM   25  C13 UNL     1       7.399   0.640  18.059  1.00  0.00     0.181 A 
HETATM   26  N5  UNL     1       7.942  -0.553  18.315  1.00  0.00    -0.323 N 
HETATM   27  C14 UNL     1       8.917  -0.812  17.448  1.00  0.00     0.100 A 
ATOM     28  H5  UNL     1       7.650  -1.176  19.067  1.00  0.00     0.169 HD
HETATM   29  C15 UNL     1       9.810  -1.998  17.324  1.00  0.00     0.091 C 
HETATM   30  N6  UNL     1       8.965   0.271  16.634  1.00  0.00    -0.247 N 
HETATM   31  O2  UNL     1       8.045   1.112  17.033  1.00  0.00    -0.218 OA
ATOM     32  H6  UNL     1       9.605   0.407  15.851  1.00  0.00     0.196 HD
ENDBRANCH  12  25
TORSDOF 6
ENDMDL
MODEL 4
REMARK VINA RESULT: -8.158913072      1.466      1.953
REMARK  6 active torsions:
REMARK  status: ('A' for Active; 'I' for Inactive)
REMARK    1  A    between atoms: C2_2  and  N1_3 
REMARK    2  A    between atoms: N1_3  and  C3_4 
REMARK       I    between atoms: N1_3  and  C5_6 
REMARK    3  A    between atoms: C5_6  and  C6_8 
REMARK    4  A    between atoms: C6_8  and  C7_9 
REMARK    5  A    between atoms: C12_20  and  C13_21 
REMARK    6  A    between atoms: C16_29  and  C18_31 
ROOT
HETATM    1  C7  UNL     1       2.964   1.874  20.869  1.00  0.00     0.063 A 
HETATM    2  N2  UNL     1       2.366   1.090  19.976  1.00  0.00    -0.302 N 
ATOM      3  H2  UNL     1       1.436   0.686  20.087  1.00  0.00     0.186 HD
HETATM    4  N3  UNL     1       3.146   0.910  18.926  1.00  0.00    -0.301 N 
ATOM      5  H3  UNL     1       2.922   0.352  18.102  1.00  0.00     0.186 HD
HETATM    6  C8  UNL     1       4.286   1.591  19.133  1.00  0.00     0.068 A 
HETATM    7  C9  UNL     1       4.216   2.212  20.335  1.00  0.00     0.082 A 
HETATM    8  N4  UNL     1       5.262   3.031  20.761  1.00  0.00    -0.356 N 
ATOM      9  H4  UNL     1       5.165   3.468  21.677  1.00  0.00     0.166 HD
HETATM   10  C10 UNL     1       6.318   3.279  20.112  1.00  0.00     0.017 C 
HETATM   11  C11 UNL     1       7.331   4.165  20.718  1.00  0.00     0.069 C 
HETATM   12  C12 UNL     1       6.484   2.742  18.755  1.00  0.00     0.033 C 
HETATM   13  C16 UNL     1       5.529   1.703  18.326  1.00  0.00     0.048 C 
HETATM   14  C17 UNL     1       5.060   1.970  16.881  1.00  0.00     0.029 C 
ENDROOT
BRANCH   1  15
HETATM   15  C6  UNL     1       2.493   2.350  22.181  1.00  0.00     0.164 C 
BRANCH  15  16
HETATM   16  C5  UNL     1       2.879   1.381  23.239  1.00  0.00     0.225 C 
HETATM   17  N1  UNL     1       2.691   1.757  24.594  1.00  0.00    -0.353 N 
HETATM   18  O1  UNL     1       3.354   0.270  22.931  1.00  0.00    -0.273 OA
BRANCH  17  19
HETATM   19  C2  UNL     1       3.059   0.836  25.627  1.00  0.00     0.121 C 
HETATM   20  C1  UNL     1       2.547   1.281  26.973  1.00  0.00     0.026 C 
ENDBRANCH  17  19
BRANCH  17  21
HETATM   21  C3  UNL     1       2.143   3.040  24.982  1.00  0.00     0.121 C 
HETATM   22  C4  UNL     1       0.671   3.157  24.647  1.00  0.00     0.026 C 
ENDBRANCH  17  21
ENDBRANCH  15  16
ENDBRANCH   1  15
BRANCH  13  23
HETATM   23  C18 UNL     1       6.082   0.286  18.273  1.00  0.00     0.135 C 
HETATM   24 CL1  UNL     1       6.241  -0.442  19.887  1.00  0.00    -0.129 Cl
ENDBRANCH  13  23
BRANCH  12  25
HETATM   25  C13 UNL     1       7.885   2.463  18.403  1.00  0.00     0.181 A 
HETATM   26  N5  UNL     1       8.577   2.869  17.336  1.00  0.00    -0.323 N 
HETATM   27  C14 UNL     1       9.821   2.400  17.387  1.00  0.00     0.100 A 
ATOM     28  H5  UNL     1       8.206   3.456  16.590  1.00  0.00     0.169 HD
HETATM   29  C15 UNL     1      10.959   2.575  16.441  1.00  0.00     0.091 C 
HETATM   30  N6  UNL     1       9.882   1.679  18.533  1.00  0.00    -0.247 N 
HETATM   31  O2  UNL     1       8.708   1.742  19.108  1.00  0.00    -0.218 OA
ATOM     32  H6  UNL     1      10.697   1.176  18.885  1.00  0.00     0.196 HD
ENDBRANCH  12  25
TORSDOF 6
ENDMDL
MODEL 5
REMARK VINA RESULT: -8.111847777      1.684      2.239
REMARK  6 active torsions:
REMARK  status: ('A' for Active; 'I' for Inactive)
REMARK    1  A    between atoms: C2_2  and  N1_3 
REMARK    2  A    between atoms: N1_3  and  C3_4 
REMARK       I    between atoms: N1_3  and  C5_6 
REMARK    3  A    between atoms: C5_6  and  C6_8 
REMARK    4  A    between atoms: C6_8  and  C7_9 
REMARK    5  A    between atoms: C12_20  and  C13_21 
REMARK    6  A    between atoms: C16_29  and  C18_31 
ROOT
HETATM    1  C7  UNL     1       3.700   0.890  19.509  1.00  0.00     0.063 A 
HETATM    2  N2  UNL     1       2.919   1.423  18.573  1.00  0.00    -0.302 N 
ATOM      3  H2  UNL     1       1.902   1.357  18.557  1.00  0.00     0.186 HD
HETATM    4  N3  UNL     1       3.648   2.049  17.667  1.00  0.00    -0.301 N 
ATOM      5  H3  UNL     1       3.293   2.541  16.848  1.00  0.00     0.186 HD
HETATM    6  C8  UNL     1       4.941   1.925  18.016  1.00  0.00     0.068 A 
HETATM    7  C9  UNL     1       5.021   1.210  19.163  1.00  0.00     0.082 A 
HETATM    8  N4  UNL     1       6.260   0.986  19.762  1.00  0.00    -0.356 N 
ATOM      9  H4  UNL     1       6.269   0.433  20.620  1.00  0.00     0.166 HD
HETATM   10  C10 UNL     1       7.375   1.407  19.337  1.00  0.00     0.017 C 
HETATM   11  C11 UNL     1       8.595   1.069  20.094  1.00  0.00     0.069 C 
HETATM   12  C12 UNL     1       7.423   2.271  18.151  1.00  0.00     0.033 C 
HETATM   13  C16 UNL     1       6.190   2.373  17.347  1.00  0.00     0.048 C 
HETATM   14  C17 UNL     1       5.937   3.838  16.937  1.00  0.00     0.029 C 
ENDROOT
BRANCH   1  15
HETATM   15  C6  UNL     1       3.348   0.107  20.706  1.00  0.00     0.164 C 
BRANCH  15  16
HETATM   16  C5  UNL     1       2.894   1.017  21.789  1.00  0.00     0.225 C 
HETATM   17  N1  UNL     1       3.317   0.743  23.116  1.00  0.00    -0.353 N 
HETATM   18  O1  UNL     1       2.162   1.991  21.527  1.00  0.00    -0.273 OA
BRANCH  17  19
HETATM   19  C2  UNL     1       2.888   1.610  24.173  1.00  0.00     0.121 C 
HETATM   20  C1  UNL     1       3.098   0.978  25.525  1.00  0.00     0.026 C 
ENDBRANCH  17  19
BRANCH  17  21
HETATM   21  C3  UNL     1       4.166  -0.380  23.451  1.00  0.00     0.121 C 
HETATM   22  C4  UNL     1       5.608  -0.143  23.057  1.00  0.00     0.026 C 
ENDBRANCH  17  21
ENDBRANCH  15  16
ENDBRANCH   1  15
BRANCH  13  23
HETATM   23  C18 UNL     1       6.208   1.623  16.022  1.00  0.00     0.135 C 
HETATM   24 CL1  UNL     1       5.994  -0.129  16.230  1.00  0.00    -0.129 Cl
ENDBRANCH  13  23
BRANCH  12  25
HETATM   25  C13 UNL     1       8.653   2.111  17.359  1.00  0.00     0.181 A 
HETATM   26  N5  UNL     1       9.507   3.047  16.939  1.00  0.00    -0.323 N 
HETATM   27  C14 UNL     1      10.498   2.492  16.249  1.00  0.00     0.100 A 
ATOM     28  H5  UNL     1       9.412   4.046  17.122  1.00  0.00     0.169 HD
HETATM   29  C15 UNL     1      11.679   3.113  15.584  1.00  0.00     0.091 C 
HETATM   30  N6  UNL     1      10.232   1.163  16.252  1.00  0.00    -0.247 N 
HETATM   31  O2  UNL     1       9.124   0.979  16.924  1.00  0.00    -0.218 OA
ATOM     32  H6  UNL     1      10.795   0.436  15.809  1.00  0.00     0.196 HD
ENDBRANCH  12  25
TORSDOF 6
ENDMDL
