MODEL 1
REMARK VINA RESULT: -6.017085370      0.000      0.000
REMARK  1 active torsions:
REMARK  status: ('A' for Active; 'I' for Inactive)
REMARK    1  A    between atoms: C5_6  and  O2_7 
ROOT
HETATM    1  C1  UNL     1      17.347 -50.407 -42.913  1.00  0.00     0.029 C 
HETATM    2  C2  UNL     1      16.154 -50.449 -41.968  1.00  0.00     0.025 C 
HETATM    3  C3  UNL     1      15.948 -49.009 -41.483  1.00  0.00     0.029 C 
HETATM    4  C4  UNL     1      14.891 -50.846 -42.667  1.00  0.00     0.191 C 
HETATM    5  O1  UNL     1      14.053 -51.432 -41.705  1.00  0.00    -0.356 OA
HETATM    6  C5  UNL     1      14.421 -52.765 -41.511  1.00  0.00     0.296 C 
HETATM    7  C6  UNL     1      15.460 -52.952 -40.459  1.00  0.00     0.139 C 
HETATM    8  N1  UNL     1      16.267 -54.095 -40.830  1.00  0.00    -0.348 N 
ATOM      9  H1  UNL     1      16.639 -54.115 -41.780  1.00  0.00     0.163 HD
HETATM   10  C7  UNL     1      16.580 -55.177 -39.995  1.00  0.00     0.135 C 
HETATM   11  N2  UNL     1      16.792 -56.345 -40.458  1.00  0.00    -0.380 N 
ATOM     12  H21 UNL     1      17.020 -57.132 -39.851  1.00  0.00     0.158 HD
ATOM     13  H22 UNL     1      16.739 -56.527 -41.461  1.00  0.00     0.158 HD
HETATM   14  S1  UNL     1      16.671 -54.861 -38.252  1.00  0.00    -0.094 SA
HETATM   15  C8  UNL     1      16.098 -53.144 -38.077  1.00  0.00     0.094 C 
HETATM   16  C9  UNL     1      14.965 -52.963 -39.065  1.00  0.00     0.001 C 
HETATM   17  C10 UNL     1      14.384 -51.572 -38.776  1.00  0.00     0.019 C 
HETATM   18  C11 UNL     1      13.911 -53.951 -38.740  1.00  0.00     0.019 C 
HETATM   19  S2  UNL     1      16.586 -51.500 -40.584  1.00  0.00    -0.120 SA
ENDROOT
BRANCH   6  20
HETATM   20  O2  UNL     1      13.298 -53.552 -41.354  1.00  0.00    -0.368 OA
ATOM     21  H2  UNL     1      13.549 -54.459 -41.223  1.00  0.00     0.212 HD
ENDBRANCH   6  20
TORSDOF 1
ENDMDL
MODEL 2
REMARK VINA RESULT: -5.892089961      2.398      2.734
REMARK  1 active torsions:
REMARK  status: ('A' for Active; 'I' for Inactive)
REMARK    1  A    between atoms: C5_6  and  O2_7 
ROOT
HETATM    1  C1  UNL     1      16.799 -52.344 -43.219  1.00  0.00     0.029 C 
HETATM    2  C2  UNL     1      16.373 -51.191 -42.320  1.00  0.00     0.025 C 
HETATM    3  C3  UNL     1      17.594 -50.270 -42.206  1.00  0.00     0.029 C 
HETATM    4  C4  UNL     1      15.278 -50.372 -42.929  1.00  0.00     0.191 C 
HETATM    5  O1  UNL     1      14.566 -49.781 -41.873  1.00  0.00    -0.356 OA
HETATM    6  C5  UNL     1      13.654 -50.699 -41.351  1.00  0.00     0.296 C 
HETATM    7  C6  UNL     1      14.214 -51.547 -40.261  1.00  0.00     0.139 C 
HETATM    8  N1  UNL     1      13.561 -52.838 -40.324  1.00  0.00    -0.348 N 
ATOM      9  H1  UNL     1      13.533 -53.304 -41.230  1.00  0.00     0.163 HD
HETATM   10  C7  UNL     1      12.963 -53.502 -39.243  1.00  0.00     0.135 C 
HETATM   11  N2  UNL     1      11.981 -54.298 -39.401  1.00  0.00    -0.380 N 
ATOM     12  H21 UNL     1      11.547 -54.780 -38.615  1.00  0.00     0.158 HD
ATOM     13  H22 UNL     1      11.598 -54.476 -40.330  1.00  0.00     0.158 HD
HETATM   14  S1  UNL     1      13.630 -53.192 -37.628  1.00  0.00    -0.094 SA
HETATM   15  C8  UNL     1      14.844 -51.864 -37.890  1.00  0.00     0.094 C 
HETATM   16  C9  UNL     1      14.245 -50.927 -38.919  1.00  0.00     0.001 C 
HETATM   17  C10 UNL     1      15.202 -49.730 -38.992  1.00  0.00     0.019 C 
HETATM   18  C11 UNL     1      12.959 -50.425 -38.387  1.00  0.00     0.019 C 
HETATM   19  S2  UNL     1      15.970 -51.868 -40.711  1.00  0.00    -0.120 SA
ENDROOT
BRANCH   6  20
HETATM   20  O2  UNL     1      12.469 -50.065 -41.032  1.00  0.00    -0.368 OA
ATOM     21  H2  UNL     1      12.291 -50.150 -40.103  1.00  0.00     0.212 HD
ENDBRANCH   6  20
TORSDOF 1
ENDMDL
MODEL 3
REMARK VINA RESULT: -5.801436721      1.735      1.947
REMARK  1 active torsions:
REMARK  status: ('A' for Active; 'I' for Inactive)
REMARK    1  A    between atoms: C5_6  and  O2_7 
ROOT
HETATM    1  C1  UNL     1      16.932 -52.187 -43.920  1.00  0.00     0.029 C 
HETATM    2  C2  UNL     1      16.519 -51.259 -42.786  1.00  0.00     0.025 C 
HETATM    3  C3  UNL     1      17.609 -50.183 -42.702  1.00  0.00     0.029 C 
HETATM    4  C4  UNL     1      15.237 -50.543 -43.077  1.00  0.00     0.191 C 
HETATM    5  O1  UNL     1      14.647 -50.231 -41.842  1.00  0.00    -0.356 OA
HETATM    6  C5  UNL     1      13.968 -51.348 -41.352  1.00  0.00     0.296 C 
HETATM    7  C6  UNL     1      14.815 -52.246 -40.518  1.00  0.00     0.139 C 
HETATM    8  N1  UNL     1      14.337 -53.600 -40.698  1.00  0.00    -0.348 N 
ATOM      9  H1  UNL     1      14.215 -53.928 -41.656  1.00  0.00     0.163 HD
HETATM   10  C7  UNL     1      14.028 -54.500 -39.668  1.00  0.00     0.135 C 
HETATM   11  N2  UNL     1      13.147 -55.409 -39.810  1.00  0.00    -0.380 N 
ATOM     12  H21 UNL     1      12.923 -56.063 -39.060  1.00  0.00     0.158 HD
ATOM     13  H22 UNL     1      12.636 -55.509 -40.687  1.00  0.00     0.158 HD
HETATM   14  S1  UNL     1      14.916 -54.326 -38.142  1.00  0.00    -0.094 SA
HETATM   15  C8  UNL     1      15.881 -52.799 -38.355  1.00  0.00     0.094 C 
HETATM   16  C9  UNL     1      14.995 -51.829 -39.109  1.00  0.00     0.001 C 
HETATM   17  C10 UNL     1      15.758 -50.498 -39.121  1.00  0.00     0.019 C 
HETATM   18  C11 UNL     1      13.765 -51.619 -38.314  1.00  0.00     0.019 C 
HETATM   19  S2  UNL     1      16.494 -52.217 -41.273  1.00  0.00    -0.120 SA
ENDROOT
BRANCH   6  20
HETATM   20  O2  UNL     1      12.782 -50.962 -40.757  1.00  0.00    -0.368 OA
ATOM     21  H2  UNL     1      12.761 -51.248 -39.852  1.00  0.00     0.212 HD
ENDBRANCH   6  20
TORSDOF 1
ENDMDL
MODEL 4
REMARK VINA RESULT: -5.703602500      2.741      5.077
REMARK  1 active torsions:
REMARK  status: ('A' for Active; 'I' for Inactive)
REMARK    1  A    between atoms: C5_6  and  O2_7 
ROOT
HETATM    1  C1  UNL     1      12.661 -53.409 -39.669  1.00  0.00     0.029 C 
HETATM    2  C2  UNL     1      14.149 -53.329 -39.977  1.00  0.00     0.025 C 
HETATM    3  C3  UNL     1      14.849 -54.168 -38.901  1.00  0.00     0.029 C 
HETATM    4  C4  UNL     1      14.491 -53.955 -41.293  1.00  0.00     0.191 C 
HETATM    5  O1  UNL     1      15.660 -53.332 -41.757  1.00  0.00    -0.356 OA
HETATM    6  C5  UNL     1      15.335 -52.118 -42.365  1.00  0.00     0.296 C 
HETATM    7  C6  UNL     1      15.307 -50.964 -41.423  1.00  0.00     0.139 C 
HETATM    8  N1  UNL     1      14.309 -50.028 -41.896  1.00  0.00    -0.348 N 
ATOM      9  H1  UNL     1      13.385 -50.401 -42.112  1.00  0.00     0.163 HD
HETATM   10  C7  UNL     1      14.506 -48.652 -42.083  1.00  0.00     0.135 C 
HETATM   11  N2  UNL     1      13.858 -47.993 -42.960  1.00  0.00    -0.380 N 
ATOM     12  H21 UNL     1      14.002 -46.992 -43.096  1.00  0.00     0.158 HD
ATOM     13  H22 UNL     1      13.171 -48.453 -43.557  1.00  0.00     0.158 HD
HETATM   14  S1  UNL     1      15.701 -47.852 -41.045  1.00  0.00    -0.094 SA
HETATM   15  C8  UNL     1      16.486 -49.215 -40.131  1.00  0.00     0.094 C 
HETATM   16  C9  UNL     1      16.623 -50.367 -41.105  1.00  0.00     0.001 C 
HETATM   17  C10 UNL     1      17.442 -51.434 -40.367  1.00  0.00     0.019 C 
HETATM   18  C11 UNL     1      17.440 -49.904 -42.249  1.00  0.00     0.019 C 
HETATM   19  S2  UNL     1      14.649 -51.615 -39.832  1.00  0.00    -0.120 SA
ENDROOT
BRANCH   6  20
HETATM   20  O2  UNL     1      16.114 -51.923 -43.489  1.00  0.00    -0.368 OA
ATOM     21  H2  UNL     1      15.831 -51.144 -43.953  1.00  0.00     0.212 HD
ENDBRANCH   6  20
TORSDOF 1
ENDMDL
MODEL 5
REMARK VINA RESULT: -5.642463689      1.755      2.160
REMARK  1 active torsions:
REMARK  status: ('A' for Active; 'I' for Inactive)
REMARK    1  A    between atoms: C5_6  and  O2_7 
ROOT
HETATM    1  C1  UNL     1      16.621 -48.614 -41.376  1.00  0.00     0.029 C 
HETATM    2  C2  UNL     1      15.722 -49.756 -41.830  1.00  0.00     0.025 C 
HETATM    3  C3  UNL     1      14.408 -49.107 -42.279  1.00  0.00     0.029 C 
HETATM    4  C4  UNL     1      16.273 -50.470 -43.024  1.00  0.00     0.191 C 
HETATM    5  O1  UNL     1      15.771 -51.781 -42.992  1.00  0.00    -0.356 OA
HETATM    6  C5  UNL     1      16.535 -52.555 -42.116  1.00  0.00     0.296 C 
HETATM    7  C6  UNL     1      16.049 -52.524 -40.708  1.00  0.00     0.139 C 
HETATM    8  N1  UNL     1      17.198 -52.665 -39.839  1.00  0.00    -0.348 N 
ATOM      9  H1  UNL     1      17.992 -52.048 -40.010  1.00  0.00     0.163 HD
HETATM   10  C7  UNL     1      17.312 -53.579 -38.781  1.00  0.00     0.135 C 
HETATM   11  N2  UNL     1      18.438 -54.048 -38.416  1.00  0.00    -0.380 N 
ATOM     12  H21 UNL     1      18.521 -54.713 -37.647  1.00  0.00     0.158 HD
ATOM     13  H22 UNL     1      19.299 -53.769 -38.889  1.00  0.00     0.158 HD
HETATM   14  S1  UNL     1      15.817 -54.064 -37.960  1.00  0.00    -0.094 SA
HETATM   15  C8  UNL     1      14.493 -53.310 -38.953  1.00  0.00     0.094 C 
HETATM   16  C9  UNL     1      14.919 -53.428 -40.402  1.00  0.00     0.001 C 
HETATM   17  C10 UNL     1      13.715 -52.948 -41.225  1.00  0.00     0.019 C 
HETATM   18  C11 UNL     1      15.111 -54.863 -40.707  1.00  0.00     0.019 C 
HETATM   19  S2  UNL     1      15.425 -50.817 -40.417  1.00  0.00    -0.120 SA
ENDROOT
BRANCH   6  20
HETATM   20  O2  UNL     1      16.715 -53.823 -42.634  1.00  0.00    -0.368 OA
ATOM     21  H2  UNL     1      17.629 -54.076 -42.572  1.00  0.00     0.212 HD
ENDBRANCH   6  20
TORSDOF 1
ENDMDL
