MODEL 1
REMARK VINA RESULT: -6.678602357      0.000      0.000
REMARK  3 active torsions:
REMARK  status: ('A' for Active; 'I' for Inactive)
REMARK    1  A    between atoms: C2_2  and  C3_4 
REMARK    2  A    between atoms: C6_7  and  N2_8 
REMARK       I    between atoms: N2_8  and  C7_10 
REMARK    3  A    between atoms: C7_10  and  C8_12 
ROOT
HETATM    1  C3  UNL     1      -7.152  35.555 -10.282  1.00  0.00     0.018 A 
HETATM    2  C4  UNL     1      -6.269  34.328 -10.219  1.00  0.00     0.023 C 
HETATM    3  C5  UNL     1      -7.571  36.126 -11.595  1.00  0.00     0.043 A 
HETATM    4  C6  UNL     1      -8.576  35.459 -10.631  1.00  0.00     0.099 A 
ENDROOT
BRANCH   4   5
HETATM    5  N2  UNL     1      -9.183  34.292 -11.180  1.00  0.00    -0.355 N 
HETATM    6  C7  UNL     1     -10.417  34.269 -11.862  1.00  0.00     0.222 C 
HETATM    7  O1  UNL     1     -11.065  35.333 -12.020  1.00  0.00    -0.273 OA
ATOM      8  H2  UNL     1      -8.686  33.407 -11.072  1.00  0.00     0.162 HD
BRANCH   6   9
HETATM    9  C8  UNL     1     -10.979  33.016 -12.404  1.00  0.00     0.078 A 
HETATM   10  C9  UNL     1     -10.051  31.958 -12.907  1.00  0.00     0.015 A 
HETATM   11  C10 UNL     1     -10.757  32.812 -13.900  1.00  0.00     0.015 A 
ENDBRANCH   6   9
ENDBRANCH   4   5
BRANCH   1  12
HETATM   12  C2  UNL     1      -6.815  36.561  -9.243  1.00  0.00     0.025 C 
HETATM   13  C1  UNL     1      -7.079  37.850  -9.381  1.00  0.00     0.035 C 
HETATM   14  N1  UNL     1      -6.172  36.173  -8.015  1.00  0.00    -0.107 NA
ENDBRANCH   1  12
TORSDOF 3
ENDMDL
MODEL 2
REMARK VINA RESULT: -6.336651613      1.668      1.860
REMARK  3 active torsions:
REMARK  status: ('A' for Active; 'I' for Inactive)
REMARK    1  A    between atoms: C2_2  and  C3_4 
REMARK    2  A    between atoms: C6_7  and  N2_8 
REMARK       I    between atoms: N2_8  and  C7_10 
REMARK    3  A    between atoms: C7_10  and  C8_12 
ROOT
HETATM    1  C3  UNL     1      -6.940  36.327  -9.809  1.00  0.00     0.018 A 
HETATM    2  C4  UNL     1      -6.259  35.595  -8.674  1.00  0.00     0.023 C 
HETATM    3  C5  UNL     1      -6.548  36.070 -11.225  1.00  0.00     0.043 A 
HETATM    4  C6  UNL     1      -7.929  35.663 -10.668  1.00  0.00     0.099 A 
ENDROOT
BRANCH   4   5
HETATM    5  N2  UNL     1      -8.143  34.253 -10.689  1.00  0.00    -0.355 N 
HETATM    6  C7  UNL     1      -9.276  33.618 -11.239  1.00  0.00     0.222 C 
HETATM    7  O1  UNL     1     -10.189  34.306 -11.758  1.00  0.00    -0.273 OA
ATOM      8  H2  UNL     1      -7.423  33.660 -10.276  1.00  0.00     0.162 HD
BRANCH   6   9
HETATM    9  C8  UNL     1      -9.424  32.149 -11.223  1.00  0.00     0.078 A 
HETATM   10  C9  UNL     1      -8.279  31.306 -10.762  1.00  0.00     0.015 A 
HETATM   11  C10 UNL     1      -8.541  31.408 -12.223  1.00  0.00     0.015 A 
ENDBRANCH   6   9
ENDBRANCH   4   5
BRANCH   1  12
HETATM   12  C2  UNL     1      -7.224  37.750  -9.489  1.00  0.00     0.025 C 
HETATM   13  C1  UNL     1      -8.425  38.287  -9.618  1.00  0.00     0.035 C 
HETATM   14  N1  UNL     1      -6.185  38.625  -9.014  1.00  0.00    -0.107 NA
ENDBRANCH   1  12
TORSDOF 3
ENDMDL
MODEL 3
REMARK VINA RESULT: -6.201055245      1.957      5.306
REMARK  3 active torsions:
REMARK  status: ('A' for Active; 'I' for Inactive)
REMARK    1  A    between atoms: C2_2  and  C3_4 
REMARK    2  A    between atoms: C6_7  and  N2_8 
REMARK       I    between atoms: N2_8  and  C7_10 
REMARK    3  A    between atoms: C7_10  and  C8_12 
ROOT
HETATM    1  C3  UNL     1      -8.890  32.544 -11.205  1.00  0.00     0.018 A 
HETATM    2  C4  UNL     1      -7.878  31.873 -10.304  1.00  0.00     0.023 C 
HETATM    3  C5  UNL     1      -9.929  33.453 -10.640  1.00  0.00     0.043 A 
HETATM    4  C6  UNL     1      -8.791  33.970 -11.546  1.00  0.00     0.099 A 
ENDROOT
BRANCH   4   5
HETATM    5  N2  UNL     1      -7.924  34.886 -10.881  1.00  0.00    -0.355 N 
HETATM    6  C7  UNL     1      -7.840  36.265 -11.162  1.00  0.00     0.222 C 
HETATM    7  O1  UNL     1      -8.563  36.766 -12.059  1.00  0.00    -0.273 OA
ATOM      8  H2  UNL     1      -7.321  34.517 -10.146  1.00  0.00     0.162 HD
BRANCH   6   9
HETATM    9  C8  UNL     1      -6.916  37.151 -10.427  1.00  0.00     0.078 A 
HETATM   10  C9  UNL     1      -6.709  36.934  -8.963  1.00  0.00     0.015 A 
HETATM   11  C10 UNL     1      -7.585  38.056  -9.396  1.00  0.00     0.015 A 
ENDBRANCH   6   9
ENDBRANCH   4   5
BRANCH   1  12
HETATM   12  C2  UNL     1      -9.365  31.657 -12.299  1.00  0.00     0.025 C 
HETATM   13  C1  UNL     1     -10.239  32.048 -13.210  1.00  0.00     0.035 C 
HETATM   14  N1  UNL     1      -8.885  30.306 -12.419  1.00  0.00    -0.107 NA
ENDBRANCH   1  12
TORSDOF 3
ENDMDL
MODEL 4
REMARK VINA RESULT: -6.025871522      1.946      2.258
REMARK  3 active torsions:
REMARK  status: ('A' for Active; 'I' for Inactive)
REMARK    1  A    between atoms: C2_2  and  C3_4 
REMARK    2  A    between atoms: C6_7  and  N2_8 
REMARK       I    between atoms: N2_8  and  C7_10 
REMARK    3  A    between atoms: C7_10  and  C8_12 
ROOT
HETATM    1  C3  UNL     1      -7.606  36.265 -10.641  1.00  0.00     0.018 A 
HETATM    2  C4  UNL     1      -6.410  36.058 -11.543  1.00  0.00     0.023 C 
HETATM    3  C5  UNL     1      -8.951  36.562 -11.215  1.00  0.00     0.043 A 
HETATM    4  C6  UNL     1      -8.642  35.234 -10.490  1.00  0.00     0.099 A 
ENDROOT
BRANCH   4   5
HETATM    5  N2  UNL     1      -8.760  34.096 -11.342  1.00  0.00    -0.355 N 
HETATM    6  C7  UNL     1      -8.033  32.898 -11.192  1.00  0.00     0.222 C 
HETATM    7  O1  UNL     1      -7.207  32.780 -10.252  1.00  0.00    -0.273 OA
ATOM      8  H2  UNL     1      -9.421  34.154 -12.117  1.00  0.00     0.162 HD
BRANCH   6   9
HETATM    9  C8  UNL     1      -8.213  31.762 -12.118  1.00  0.00     0.078 A 
HETATM   10  C9  UNL     1      -9.595  31.369 -12.529  1.00  0.00     0.015 A 
HETATM   11  C10 UNL     1      -8.898  30.543 -11.506  1.00  0.00     0.015 A 
ENDBRANCH   6   9
ENDBRANCH   4   5
BRANCH   1  12
HETATM   12  C2  UNL     1      -7.273  37.021  -9.406  1.00  0.00     0.025 C 
HETATM   13  C1  UNL     1      -7.459  38.326  -9.294  1.00  0.00     0.035 C 
HETATM   14  N1  UNL     1      -6.723  36.356  -8.254  1.00  0.00    -0.107 NA
ENDBRANCH   1  12
TORSDOF 3
ENDMDL
MODEL 5
REMARK VINA RESULT: -6.006425884      2.049      2.166
REMARK  3 active torsions:
REMARK  status: ('A' for Active; 'I' for Inactive)
REMARK    1  A    between atoms: C2_2  and  C3_4 
REMARK    2  A    between atoms: C6_7  and  N2_8 
REMARK       I    between atoms: N2_8  and  C7_10 
REMARK    3  A    between atoms: C7_10  and  C8_12 
ROOT
HETATM    1  C3  UNL     1      -7.498  36.440 -10.327  1.00  0.00     0.018 A 
HETATM    2  C4  UNL     1      -6.633  35.941 -11.464  1.00  0.00     0.023 C 
HETATM    3  C5  UNL     1      -8.867  36.971 -10.588  1.00  0.00     0.043 A 
HETATM    4  C6  UNL     1      -8.630  35.653  -9.821  1.00  0.00     0.099 A 
ENDROOT
BRANCH   4   5
HETATM    5  N2  UNL     1      -9.170  34.516 -10.491  1.00  0.00    -0.355 N 
HETATM    6  C7  UNL     1      -8.653  33.207 -10.402  1.00  0.00     0.222 C 
HETATM    7  O1  UNL     1      -7.643  32.980  -9.692  1.00  0.00    -0.273 OA
ATOM      8  H2  UNL     1      -9.992  34.660 -11.078  1.00  0.00     0.162 HD
BRANCH   6   9
HETATM    9  C8  UNL     1      -9.271  32.079 -11.128  1.00  0.00     0.078 A 
HETATM   10  C9  UNL     1      -8.570  30.760 -11.157  1.00  0.00     0.015 A 
HETATM   11  C10 UNL     1      -8.506  31.623 -12.367  1.00  0.00     0.015 A 
ENDBRANCH   6   9
ENDBRANCH   4   5
BRANCH   1  12
HETATM   12  C2  UNL     1      -6.725  37.183  -9.299  1.00  0.00     0.025 C 
HETATM   13  C1  UNL     1      -6.621  38.501  -9.295  1.00  0.00     0.035 C 
HETATM   14  N1  UNL     1      -6.042  36.489  -8.239  1.00  0.00    -0.107 NA
ENDBRANCH   1  12
TORSDOF 3
ENDMDL
