MODEL 1
REMARK VINA RESULT: -5.564586067      0.000      0.000
REMARK  2 active torsions:
REMARK  status: ('A' for Active; 'I' for Inactive)
REMARK    1  A    between atoms: O1_1  and  N1_3 
REMARK       I    between atoms: N1_3  and  C1_5 
REMARK       I    between atoms: C1_5  and  N2_7 
REMARK    2  A    between atoms: N2_7  and  C2_9 
ROOT
HETATM    1  N1  UNL     1      18.847  23.880   8.436  1.00  0.00    -0.219 N 
ATOM      2  H1  UNL     1      19.443  23.156   8.033  1.00  0.00     0.199 HD
HETATM    3  C1  UNL     1      17.557  23.547   8.917  1.00  0.00     0.340 C 
HETATM    4  O2  UNL     1      17.301  22.350   9.172  1.00  0.00    -0.245 OA
HETATM    5  N2  UNL     1      16.548  24.515   9.121  1.00  0.00    -0.337 N 
ATOM      6  H2  UNL     1      16.751  25.493   8.915  1.00  0.00     0.164 HD
ENDROOT
BRANCH   1   7
HETATM    7  O1  UNL     1      19.258  25.057   8.502  1.00  0.00    -0.286 OA
ATOM      8  H1  UNL     1      19.151  25.644   7.762  1.00  0.00     0.244 HD
ENDBRANCH   1   7
BRANCH   5   9
HETATM    9  C2  UNL     1      15.239  24.161   9.611  1.00  0.00     0.086 A 
HETATM   10  C3  UNL     1      15.005  24.127  11.089  1.00  0.00     0.027 A 
HETATM   11  C4  UNL     1      14.446  25.243  10.252  1.00  0.00     0.027 A 
ENDBRANCH   5   9
TORSDOF 2
ENDMDL
MODEL 2
REMARK VINA RESULT: -5.220284088      1.632      1.984
REMARK  2 active torsions:
REMARK  status: ('A' for Active; 'I' for Inactive)
REMARK    1  A    between atoms: O1_1  and  N1_3 
REMARK       I    between atoms: N1_3  and  C1_5 
REMARK       I    between atoms: C1_5  and  N2_7 
REMARK    2  A    between atoms: N2_7  and  C2_9 
ROOT
HETATM    1  N1  UNL     1      17.367  23.414   8.143  1.00  0.00    -0.219 N 
ATOM      2  H1  UNL     1      17.725  23.548   7.197  1.00  0.00     0.199 HD
HETATM    3  C1  UNL     1      16.297  24.216   8.614  1.00  0.00     0.340 C 
HETATM    4  O2  UNL     1      15.581  24.813   7.780  1.00  0.00    -0.245 OA
HETATM    5  N2  UNL     1      16.008  24.369   9.988  1.00  0.00    -0.337 N 
ATOM      6  H2  UNL     1      16.589  23.884  10.673  1.00  0.00     0.164 HD
ENDROOT
BRANCH   1   7
HETATM    7  O1  UNL     1      17.872  22.545   8.883  1.00  0.00    -0.286 OA
ATOM      8  H1  UNL     1      18.341  22.800   9.670  1.00  0.00     0.244 HD
ENDBRANCH   1   7
BRANCH   5   9
HETATM    9  C2  UNL     1      14.917  25.188  10.452  1.00  0.00     0.086 A 
HETATM   10  C3  UNL     1      13.781  24.538  11.177  1.00  0.00     0.027 A 
HETATM   11  C4  UNL     1      14.787  25.368  11.923  1.00  0.00     0.027 A 
ENDBRANCH   5   9
TORSDOF 2
ENDMDL
MODEL 3
REMARK VINA RESULT: -5.164312298      1.568      1.791
REMARK  2 active torsions:
REMARK  status: ('A' for Active; 'I' for Inactive)
REMARK    1  A    between atoms: O1_1  and  N1_3 
REMARK       I    between atoms: N1_3  and  C1_5 
REMARK       I    between atoms: C1_5  and  N2_7 
REMARK    2  A    between atoms: N2_7  and  C2_9 
ROOT
HETATM    1  N1  UNL     1      17.179  23.416   8.504  1.00  0.00    -0.219 N 
ATOM      2  H1  UNL     1      17.085  23.101   7.538  1.00  0.00     0.199 HD
HETATM    3  C1  UNL     1      16.022  23.657   9.285  1.00  0.00     0.340 C 
HETATM    4  O2  UNL     1      14.936  23.155   8.921  1.00  0.00    -0.245 OA
HETATM    5  N2  UNL     1      16.046  24.442  10.459  1.00  0.00    -0.337 N 
ATOM      6  H2  UNL     1      16.929  24.854  10.761  1.00  0.00     0.164 HD
ENDROOT
BRANCH   1   7
HETATM    7  O1  UNL     1      18.314  23.587   8.994  1.00  0.00    -0.286 OA
ATOM      8  H1  UNL     1      18.848  22.840   9.237  1.00  0.00     0.244 HD
ENDBRANCH   1   7
BRANCH   5   9
HETATM    9  C2  UNL     1      14.860  24.679  11.244  1.00  0.00     0.086 A 
HETATM   10  C3  UNL     1      14.941  25.604  12.417  1.00  0.00     0.027 A 
HETATM   11  C4  UNL     1      14.252  26.033  11.153  1.00  0.00     0.027 A 
ENDBRANCH   5   9
TORSDOF 2
ENDMDL
MODEL 4
REMARK VINA RESULT: -5.039340387      4.099      5.248
REMARK  2 active torsions:
REMARK  status: ('A' for Active; 'I' for Inactive)
REMARK    1  A    between atoms: O1_1  and  N1_3 
REMARK       I    between atoms: N1_3  and  C1_5 
REMARK       I    between atoms: C1_5  and  N2_7 
REMARK    2  A    between atoms: N2_7  and  C2_9 
ROOT
HETATM    1  N1  UNL     1      12.379  25.832  12.600  1.00  0.00    -0.219 N 
ATOM      2  H1  UNL     1      12.407  26.675  13.175  1.00  0.00     0.199 HD
HETATM    3  C1  UNL     1      13.580  25.301  12.066  1.00  0.00     0.340 C 
HETATM    4  O2  UNL     1      14.668  25.642  12.580  1.00  0.00    -0.245 OA
HETATM    5  N2  UNL     1      13.596  24.402  10.976  1.00  0.00    -0.337 N 
ATOM      6  H2  UNL     1      12.711  24.121  10.554  1.00  0.00     0.164 HD
ENDROOT
BRANCH   1   7
HETATM    7  O1  UNL     1      11.288  25.273  12.368  1.00  0.00    -0.286 OA
ATOM      8  H1  UNL     1      10.753  25.554  11.634  1.00  0.00     0.244 HD
ENDBRANCH   1   7
BRANCH   5   9
HETATM    9  C2  UNL     1      14.825  23.870  10.445  1.00  0.00     0.086 A 
HETATM   10  C3  UNL     1      14.763  22.914   9.295  1.00  0.00     0.027 A 
HETATM   11  C4  UNL     1      15.226  24.329   9.088  1.00  0.00     0.027 A 
ENDBRANCH   5   9
TORSDOF 2
ENDMDL
MODEL 5
REMARK VINA RESULT: -4.838366164      5.057      5.997
REMARK  2 active torsions:
REMARK  status: ('A' for Active; 'I' for Inactive)
REMARK    1  A    between atoms: O1_1  and  N1_3 
REMARK       I    between atoms: N1_3  and  C1_5 
REMARK       I    between atoms: C1_5  and  N2_7 
REMARK    2  A    between atoms: N2_7  and  C2_9 
ROOT
HETATM    1  N1  UNL     1      13.607  26.394  15.166  1.00  0.00    -0.219 N 
ATOM      2  H1  UNL     1      13.080  27.214  15.468  1.00  0.00     0.199 HD
HETATM    3  C1  UNL     1      14.119  26.330  13.846  1.00  0.00     0.340 C 
HETATM    4  O2  UNL     1      14.234  27.391  13.194  1.00  0.00    -0.245 OA
HETATM    5  N2  UNL     1      14.504  25.114  13.238  1.00  0.00    -0.337 N 
ATOM      6  H2  UNL     1      14.412  24.246  13.765  1.00  0.00     0.164 HD
ENDROOT
BRANCH   1   7
HETATM    7  O1  UNL     1      13.797  25.450  15.960  1.00  0.00    -0.286 OA
ATOM      8  H1  UNL     1      13.119  25.199  16.576  1.00  0.00     0.244 HD
ENDBRANCH   1   7
BRANCH   5   9
HETATM    9  C2  UNL     1      15.023  25.064  11.894  1.00  0.00     0.086 A 
HETATM   10  C3  UNL     1      14.845  23.812  11.095  1.00  0.00     0.027 A 
HETATM   11  C4  UNL     1      14.028  25.035  10.789  1.00  0.00     0.027 A 
ENDBRANCH   5   9
TORSDOF 2
ENDMDL
