MODEL 1
REMARK VINA RESULT: -8.426793663      0.000      0.000
REMARK  12 active torsions:
REMARK  status: ('A' for Active; 'I' for Inactive)
REMARK    1  A    between atoms: O1_2  and  C2_3 
REMARK    2  A    between atoms: C2_3  and  C3_4 
REMARK    3  A    between atoms: C3_4  and  C4_5 
REMARK    4  A    between atoms: C4_5  and  N1_6 
REMARK    5  A    between atoms: N1_6  and  C5_8 
REMARK    6  A    between atoms: C5_8  and  C7_10 
REMARK    7  A    between atoms: C10_14  and  N2_15 
REMARK       I    between atoms: N2_15  and  C11_17 
REMARK    8  A    between atoms: C11_17  and  C12_19 
REMARK    9  A    between atoms: C12_19  and  N3_20 
REMARK   10  A    between atoms: N4_32  and  C22_33 
REMARK   11  A    between atoms: C22_33  and  C23_34 
REMARK       I    between atoms: C23_34  and  N5_36 
REMARK   12  A    between atoms: N5_36  and  C24_38 
ROOT
HETATM    1  C7  UNL     1       7.834  60.463  17.917  1.00  0.00     0.061 A 
HETATM    2  C8  UNL     1       8.901  61.253  17.405  1.00  0.00     0.052 A 
HETATM    3  C9  UNL     1       9.457  62.286  18.101  1.00  0.00     0.029 A 
HETATM    4  S1  UNL     1      10.733  63.243  17.525  1.00  0.00    -0.071 SA
HETATM    5  C10 UNL     1      11.222  64.455  18.625  1.00  0.00     0.081 A 
HETATM    6  C18 UNL     1      10.492  64.449  19.798  1.00  0.00     0.093 A 
HETATM    7  C19 UNL     1       9.483  63.601  20.113  1.00  0.00     0.191 A 
HETATM    8  O3  UNL     1       8.942  63.775  21.264  1.00  0.00    -0.287 OA
HETATM    9  C20 UNL     1       8.972  62.579  19.346  1.00  0.00     0.099 A 
HETATM   10  C21 UNL     1       7.938  61.800  19.827  1.00  0.00     0.264 A 
HETATM   11  O4  UNL     1       7.484  62.067  20.977  1.00  0.00    -0.267 OA
HETATM   12  N4  UNL     1       7.377  60.752  19.119  1.00  0.00    -0.303 N 
ENDROOT
BRANCH   5  13
HETATM   13  N2  UNL     1      12.274  65.364  18.365  1.00  0.00    -0.320 N 
HETATM   14  C11 UNL     1      13.598  65.119  18.793  1.00  0.00     0.251 C 
HETATM   15  O2  UNL     1      13.841  64.055  19.422  1.00  0.00    -0.271 OA
ATOM     16  H2  UNL     1      12.072  66.222  17.852  1.00  0.00     0.169 HD
BRANCH  14  17
HETATM   17  C12 UNL     1      14.690  66.096  18.509  1.00  0.00     0.374 C 
BRANCH  17  18
HETATM   18  N3  UNL     1      14.683  67.201  19.439  1.00  0.00     0.097 N 
HETATM   19  C13 UNL     1      15.516  66.873  20.557  1.00  0.00     0.273 C 
HETATM   20  C14 UNL     1      16.388  68.082  20.941  1.00  0.00     0.030 C 
HETATM   21  C15 UNL     1      17.333  68.284  19.779  1.00  0.00     0.003 C 
HETATM   22  C16 UNL     1      16.542  68.568  18.548  1.00  0.00     0.030 C 
HETATM   23  C17 UNL     1      15.077  68.392  18.759  1.00  0.00     0.273 C 
ENDBRANCH  17  18
ENDBRANCH  14  17
ENDBRANCH   5  13
BRANCH   1  24
HETATM   24  C5  UNL     1       7.283  59.410  17.054  1.00  0.00     0.032 C 
HETATM   25  C6  UNL     1       6.219  59.885  16.118  1.00  0.00     0.070 C 
BRANCH  24  26
HETATM   26  N1  UNL     1       8.179  58.408  16.599  1.00  0.00    -0.371 N 
ATOM     27  H1  UNL     1       9.102  58.313  17.024  1.00  0.00     0.164 HD
BRANCH  26  28
HETATM   28  C4  UNL     1       7.787  57.545  15.560  1.00  0.00     0.063 C 
BRANCH  28  29
HETATM   29  C3  UNL     1       8.447  57.651  14.236  1.00  0.00     0.070 C 
BRANCH  29  30
HETATM   30  C2  UNL     1       9.614  58.616  14.230  1.00  0.00     0.172 C 
BRANCH  30  31
HETATM   31  O1  UNL     1       9.266  59.934  14.119  1.00  0.00    -0.396 OA
HETATM   32  C1  UNL     1      10.314  60.802  14.223  1.00  0.00     0.201 C 
ENDBRANCH  30  31
ENDBRANCH  29  30
ENDBRANCH  28  29
ENDBRANCH  26  28
ENDBRANCH  24  26
ENDBRANCH   1  24
BRANCH  12  33
HETATM   33  C22 UNL     1       6.379  60.040  19.824  1.00  0.00     0.235 C 
BRANCH  33  34
HETATM   34  C23 UNL     1       4.986  60.461  19.530  1.00  0.00     0.236 C 
HETATM   35  O5  UNL     1       4.078  59.628  19.394  1.00  0.00    -0.272 OA
HETATM   36  N5  UNL     1       4.602  61.830  19.382  1.00  0.00    -0.352 N 
ATOM     37  H5  UNL     1       5.308  62.560  19.477  1.00  0.00     0.163 HD
BRANCH  36  38
HETATM   38  C24 UNL     1       3.223  62.201  19.097  1.00  0.00     0.022 C 
HETATM   39  C25 UNL     1       3.111  63.711  18.942  1.00  0.00     0.037 C 
HETATM   40  C26 UNL     1       2.333  61.732  20.211  1.00  0.00     0.037 C 
HETATM   41  C27 UNL     1       2.749  61.590  17.795  1.00  0.00     0.037 C 
ENDBRANCH  36  38
ENDBRANCH  33  34
ENDBRANCH  12  33
TORSDOF 12
ENDMDL
MODEL 2
REMARK VINA RESULT: -8.362829682      4.085      6.123
REMARK  12 active torsions:
REMARK  status: ('A' for Active; 'I' for Inactive)
REMARK    1  A    between atoms: O1_2  and  C2_3 
REMARK    2  A    between atoms: C2_3  and  C3_4 
REMARK    3  A    between atoms: C3_4  and  C4_5 
REMARK    4  A    between atoms: C4_5  and  N1_6 
REMARK    5  A    between atoms: N1_6  and  C5_8 
REMARK    6  A    between atoms: C5_8  and  C7_10 
REMARK    7  A    between atoms: C10_14  and  N2_15 
REMARK       I    between atoms: N2_15  and  C11_17 
REMARK    8  A    between atoms: C11_17  and  C12_19 
REMARK    9  A    between atoms: C12_19  and  N3_20 
REMARK   10  A    between atoms: N4_32  and  C22_33 
REMARK   11  A    between atoms: C22_33  and  C23_34 
REMARK       I    between atoms: C23_34  and  N5_36 
REMARK   12  A    between atoms: N5_36  and  C24_38 
ROOT
HETATM    1  C7  UNL     1      11.909  62.154  16.444  1.00  0.00     0.061 A 
HETATM    2  C8  UNL     1      12.415  62.918  15.357  1.00  0.00     0.052 A 
HETATM    3  C9  UNL     1      13.427  63.822  15.495  1.00  0.00     0.029 A 
HETATM    4  S1  UNL     1      14.059  64.744  14.220  1.00  0.00    -0.071 SA
HETATM    5  C10 UNL     1      15.326  65.785  14.699  1.00  0.00     0.081 A 
HETATM    6  C18 UNL     1      15.619  65.698  16.045  1.00  0.00     0.093 A 
HETATM    7  C19 UNL     1      15.010  64.895  16.951  1.00  0.00     0.191 A 
HETATM    8  O3  UNL     1      15.445  64.976  18.156  1.00  0.00    -0.287 OA
HETATM    9  C20 UNL     1      13.982  64.006  16.731  1.00  0.00     0.099 A 
HETATM   10  C21 UNL     1      13.480  63.254  17.774  1.00  0.00     0.264 A 
HETATM   11  O4  UNL     1      13.988  63.421  18.920  1.00  0.00    -0.267 OA
HETATM   12  N4  UNL     1      12.454  62.337  17.630  1.00  0.00    -0.303 N 
ENDROOT
BRANCH   5  13
HETATM   13  N2  UNL     1      16.013  66.639  13.804  1.00  0.00    -0.320 N 
HETATM   14  C11 UNL     1      17.421  66.634  13.695  1.00  0.00     0.251 C 
HETATM   15  O2  UNL     1      18.079  65.839  14.417  1.00  0.00    -0.271 OA
ATOM     16  H2  UNL     1      15.474  67.278  13.219  1.00  0.00     0.169 HD
BRANCH  14  17
HETATM   17  C12 UNL     1      18.121  67.548  12.745  1.00  0.00     0.374 C 
BRANCH  17  18
HETATM   18  N3  UNL     1      18.008  68.931  13.143  1.00  0.00     0.097 N 
HETATM   19  C13 UNL     1      19.299  69.546  13.065  1.00  0.00     0.273 C 
HETATM   20  C14 UNL     1      19.185  70.939  12.423  1.00  0.00     0.030 C 
HETATM   21  C15 UNL     1      18.769  70.693  10.991  1.00  0.00     0.003 C 
HETATM   22  C16 UNL     1      17.453  69.992  10.978  1.00  0.00     0.030 C 
HETATM   23  C17 UNL     1      17.018  69.573  12.340  1.00  0.00     0.273 C 
ENDBRANCH  17  18
ENDBRANCH  14  17
ENDBRANCH   5  13
BRANCH   1  24
HETATM   24  C5  UNL     1      10.782  61.249  16.183  1.00  0.00     0.032 C 
HETATM   25  C6  UNL     1       9.455  61.932  16.117  1.00  0.00     0.070 C 
BRANCH  24  26
HETATM   26  N1  UNL     1      11.018  60.153  15.312  1.00  0.00    -0.371 N 
ATOM     27  H1  UNL     1      11.858  59.585  15.419  1.00  0.00     0.164 HD
BRANCH  26  28
HETATM   28  C4  UNL     1      10.086  59.855  14.302  1.00  0.00     0.063 C 
BRANCH  28  29
HETATM   29  C3  UNL     1       9.516  58.489  14.214  1.00  0.00     0.070 C 
BRANCH  29  30
HETATM   30  C2  UNL     1       8.639  58.135  15.397  1.00  0.00     0.172 C 
BRANCH  30  31
HETATM   31  O1  UNL     1       8.078  56.889  15.341  1.00  0.00    -0.396 OA
HETATM   32  C1  UNL     1       6.715  56.888  15.273  1.00  0.00     0.201 C 
ENDBRANCH  30  31
ENDBRANCH  29  30
ENDBRANCH  28  29
ENDBRANCH  26  28
ENDBRANCH  24  26
ENDBRANCH   1  24
BRANCH  12  33
HETATM   33  C22 UNL     1      12.139  61.623  18.811  1.00  0.00     0.235 C 
BRANCH  33  34
HETATM   34  C23 UNL     1      10.921  62.091  19.517  1.00  0.00     0.236 C 
HETATM   35  O5  UNL     1      10.664  63.299  19.624  1.00  0.00    -0.272 OA
HETATM   36  N5  UNL     1       9.979  61.199  20.117  1.00  0.00    -0.352 N 
ATOM     37  H5  UNL     1      10.140  60.193  20.066  1.00  0.00     0.163 HD
BRANCH  36  38
HETATM   38  C24 UNL     1       8.793  61.699  20.798  1.00  0.00     0.022 C 
HETATM   39  C25 UNL     1       7.971  60.536  21.336  1.00  0.00     0.037 C 
HETATM   40  C26 UNL     1       7.967  62.513  19.844  1.00  0.00     0.037 C 
HETATM   41  C27 UNL     1       9.167  62.559  21.987  1.00  0.00     0.037 C 
ENDBRANCH  36  38
ENDBRANCH  33  34
ENDBRANCH  12  33
TORSDOF 12
ENDMDL
MODEL 3
REMARK VINA RESULT: -8.268226965      2.853      6.091
REMARK  12 active torsions:
REMARK  status: ('A' for Active; 'I' for Inactive)
REMARK    1  A    between atoms: O1_2  and  C2_3 
REMARK    2  A    between atoms: C2_3  and  C3_4 
REMARK    3  A    between atoms: C3_4  and  C4_5 
REMARK    4  A    between atoms: C4_5  and  N1_6 
REMARK    5  A    between atoms: N1_6  and  C5_8 
REMARK    6  A    between atoms: C5_8  and  C7_10 
REMARK    7  A    between atoms: C10_14  and  N2_15 
REMARK       I    between atoms: N2_15  and  C11_17 
REMARK    8  A    between atoms: C11_17  and  C12_19 
REMARK    9  A    between atoms: C12_19  and  N3_20 
REMARK   10  A    between atoms: N4_32  and  C22_33 
REMARK   11  A    between atoms: C22_33  and  C23_34 
REMARK       I    between atoms: C23_34  and  N5_36 
REMARK   12  A    between atoms: N5_36  and  C24_38 
ROOT
HETATM    1  C7  UNL     1      11.684  62.785  18.699  1.00  0.00     0.061 A 
HETATM    2  C8  UNL     1      12.186  64.070  19.042  1.00  0.00     0.052 A 
HETATM    3  C9  UNL     1      13.255  64.639  18.414  1.00  0.00     0.029 A 
HETATM    4  S1  UNL     1      13.876  66.171  18.792  1.00  0.00    -0.071 SA
HETATM    5  C10 UNL     1      15.215  66.617  17.829  1.00  0.00     0.081 A 
HETATM    6  C18 UNL     1      15.564  65.651  16.906  1.00  0.00     0.093 A 
HETATM    7  C19 UNL     1      14.955  64.454  16.725  1.00  0.00     0.191 A 
HETATM    8  O3  UNL     1      15.447  63.708  15.804  1.00  0.00    -0.287 OA
HETATM    9  C20 UNL     1      13.874  63.947  17.410  1.00  0.00     0.099 A 
HETATM   10  C21 UNL     1      13.372  62.702  17.089  1.00  0.00     0.264 A 
HETATM   11  O4  UNL     1      13.941  62.056  16.163  1.00  0.00    -0.267 OA
HETATM   12  N4  UNL     1      12.286  62.128  17.727  1.00  0.00    -0.303 N 
ENDROOT
BRANCH   5  13
HETATM   13  N2  UNL     1      15.888  67.855  17.958  1.00  0.00    -0.320 N 
HETATM   14  C11 UNL     1      17.229  67.936  18.396  1.00  0.00     0.251 C 
HETATM   15  O2  UNL     1      17.838  66.869  18.675  1.00  0.00    -0.271 OA
ATOM     16  H2  UNL     1      15.391  68.714  17.727  1.00  0.00     0.169 HD
BRANCH  14  17
HETATM   17  C12 UNL     1      17.916  69.254  18.527  1.00  0.00     0.374 C 
BRANCH  17  18
HETATM   18  N3  UNL     1      18.948  69.427  17.532  1.00  0.00     0.097 N 
HETATM   19  C13 UNL     1      18.337  69.744  16.276  1.00  0.00     0.273 C 
HETATM   20  C14 UNL     1      19.111  70.879  15.582  1.00  0.00     0.030 C 
HETATM   21  C15 UNL     1      18.906  72.099  16.449  1.00  0.00     0.003 C 
HETATM   22  C16 UNL     1      19.460  71.831  17.808  1.00  0.00     0.030 C 
HETATM   23  C17 UNL     1      19.877  70.412  17.984  1.00  0.00     0.273 C 
ENDBRANCH  17  18
ENDBRANCH  14  17
ENDBRANCH   5  13
BRANCH   1  24
HETATM   24  C5  UNL     1      10.559  62.255  19.481  1.00  0.00     0.032 C 
HETATM   25  C6  UNL     1      10.845  62.116  20.941  1.00  0.00     0.070 C 
BRANCH  24  26
HETATM   26  N1  UNL     1       9.252  62.646  19.086  1.00  0.00    -0.371 N 
ATOM     27  H1  UNL     1       9.090  63.022  18.152  1.00  0.00     0.164 HD
BRANCH  26  28
HETATM   28  C4  UNL     1       8.184  62.510  19.990  1.00  0.00     0.063 C 
BRANCH  28  29
HETATM   29  C3  UNL     1       7.371  61.270  19.979  1.00  0.00     0.070 C 
BRANCH  29  30
HETATM   30  C2  UNL     1       7.323  60.604  18.620  1.00  0.00     0.172 C 
BRANCH  30  31
HETATM   31  O1  UNL     1       8.326  59.702  18.389  1.00  0.00    -0.396 OA
HETATM   32  C1  UNL     1       7.926  58.398  18.413  1.00  0.00     0.201 C 
ENDBRANCH  30  31
ENDBRANCH  29  30
ENDBRANCH  28  29
ENDBRANCH  26  28
ENDBRANCH  24  26
ENDBRANCH   1  24
BRANCH  12  33
HETATM   33  C22 UNL     1      11.890  60.878  17.197  1.00  0.00     0.235 C 
BRANCH  33  34
HETATM   34  C23 UNL     1      10.881  60.951  16.111  1.00  0.00     0.236 C 
HETATM   35  O5  UNL     1      10.767  61.965  15.407  1.00  0.00    -0.272 OA
HETATM   36  N5  UNL     1       9.985  59.879  15.809  1.00  0.00    -0.352 N 
ATOM     37  H5  UNL     1      10.029  59.021  16.358  1.00  0.00     0.163 HD
BRANCH  36  38
HETATM   38  C24 UNL     1       9.011  59.990  14.731  1.00  0.00     0.022 C 
HETATM   39  C25 UNL     1       8.171  58.722  14.656  1.00  0.00     0.037 C 
HETATM   40  C26 UNL     1       9.722  60.213  13.428  1.00  0.00     0.037 C 
HETATM   41  C27 UNL     1       8.054  61.137  14.975  1.00  0.00     0.037 C 
ENDBRANCH  36  38
ENDBRANCH  33  34
ENDBRANCH  12  33
TORSDOF 12
ENDMDL
MODEL 4
REMARK VINA RESULT: -8.175894865      1.521      2.101
REMARK  12 active torsions:
REMARK  status: ('A' for Active; 'I' for Inactive)
REMARK    1  A    between atoms: O1_2  and  C2_3 
REMARK    2  A    between atoms: C2_3  and  C3_4 
REMARK    3  A    between atoms: C3_4  and  C4_5 
REMARK    4  A    between atoms: C4_5  and  N1_6 
REMARK    5  A    between atoms: N1_6  and  C5_8 
REMARK    6  A    between atoms: C5_8  and  C7_10 
REMARK    7  A    between atoms: C10_14  and  N2_15 
REMARK       I    between atoms: N2_15  and  C11_17 
REMARK    8  A    between atoms: C11_17  and  C12_19 
REMARK    9  A    between atoms: C12_19  and  N3_20 
REMARK   10  A    between atoms: N4_32  and  C22_33 
REMARK   11  A    between atoms: C22_33  and  C23_34 
REMARK       I    between atoms: C23_34  and  N5_36 
REMARK   12  A    between atoms: N5_36  and  C24_38 
ROOT
HETATM    1  C7  UNL     1       8.470  60.705  16.822  1.00  0.00     0.061 A 
HETATM    2  C8  UNL     1       9.336  61.767  16.441  1.00  0.00     0.052 A 
HETATM    3  C9  UNL     1       9.989  62.551  17.346  1.00  0.00     0.029 A 
HETATM    4  S1  UNL     1      11.033  63.820  16.928  1.00  0.00    -0.071 SA
HETATM    5  C10 UNL     1      11.710  64.616  18.279  1.00  0.00     0.081 A 
HETATM    6  C18 UNL     1      11.290  64.088  19.484  1.00  0.00     0.093 A 
HETATM    7  C19 UNL     1      10.436  63.051  19.654  1.00  0.00     0.191 A 
HETATM    8  O3  UNL     1      10.183  62.724  20.870  1.00  0.00    -0.287 OA
HETATM    9  C20 UNL     1       9.808  62.308  18.680  1.00  0.00     0.099 A 
HETATM   10  C21 UNL     1       8.966  61.272  19.031  1.00  0.00     0.264 A 
HETATM   11  O4  UNL     1       8.793  61.044  20.263  1.00  0.00    -0.267 OA
HETATM   12  N4  UNL     1       8.306  60.478  18.110  1.00  0.00    -0.303 N 
ENDROOT
BRANCH   5  13
HETATM   13  N2  UNL     1      12.617  65.696  18.173  1.00  0.00    -0.320 N 
HETATM   14  C11 UNL     1      14.002  65.495  17.984  1.00  0.00     0.251 C 
HETATM   15  O2  UNL     1      14.435  64.315  17.904  1.00  0.00    -0.271 OA
ATOM     16  H2  UNL     1      12.260  66.650  18.234  1.00  0.00     0.169 HD
BRANCH  14  17
HETATM   17  C12 UNL     1      14.939  66.652  17.878  1.00  0.00     0.374 C 
BRANCH  17  18
HETATM   18  N3  UNL     1      14.879  67.505  19.042  1.00  0.00     0.097 N 
HETATM   19  C13 UNL     1      15.407  66.794  20.168  1.00  0.00     0.273 C 
HETATM   20  C14 UNL     1      16.327  67.713  20.990  1.00  0.00     0.030 C 
HETATM   21  C15 UNL     1      17.515  67.999  20.101  1.00  0.00     0.003 C 
HETATM   22  C16 UNL     1      17.045  68.686  18.864  1.00  0.00     0.030 C 
HETATM   23  C17 UNL     1      15.559  68.729  18.765  1.00  0.00     0.273 C 
ENDBRANCH  17  18
ENDBRANCH  14  17
ENDBRANCH   5  13
BRANCH   1  24
HETATM   24  C5  UNL     1       7.782  59.964  15.758  1.00  0.00     0.032 C 
HETATM   25  C6  UNL     1       7.451  60.789  14.557  1.00  0.00     0.070 C 
BRANCH  24  26
HETATM   26  N1  UNL     1       8.161  58.610  15.559  1.00  0.00    -0.371 N 
ATOM     27  H1  UNL     1       8.669  58.107  16.287  1.00  0.00     0.164 HD
BRANCH  26  28
HETATM   28  C4  UNL     1       7.833  57.967  14.352  1.00  0.00     0.063 C 
BRANCH  28  29
HETATM   29  C3  UNL     1       6.628  57.104  14.289  1.00  0.00     0.070 C 
BRANCH  29  30
HETATM   30  C2  UNL     1       6.094  56.730  15.655  1.00  0.00     0.172 C 
BRANCH  30  31
HETATM   31  O1  UNL     1       5.288  57.673  16.233  1.00  0.00    -0.396 OA
HETATM   32  C1  UNL     1       4.079  57.830  15.620  1.00  0.00     0.201 C 
ENDBRANCH  30  31
ENDBRANCH  29  30
ENDBRANCH  28  29
ENDBRANCH  26  28
ENDBRANCH  24  26
ENDBRANCH   1  24
BRANCH  12  33
HETATM   33  C22 UNL     1       7.549  59.428  18.681  1.00  0.00     0.235 C 
BRANCH  33  34
HETATM   34  C23 UNL     1       6.161  59.792  19.057  1.00  0.00     0.236 C 
HETATM   35  O5  UNL     1       5.776  59.726  20.233  1.00  0.00    -0.272 OA
HETATM   36  N5  UNL     1       5.187  60.232  18.107  1.00  0.00    -0.352 N 
ATOM     37  H5  UNL     1       5.445  60.302  17.123  1.00  0.00     0.163 HD
BRANCH  36  38
HETATM   38  C24 UNL     1       3.835  60.584  18.519  1.00  0.00     0.022 C 
HETATM   39  C25 UNL     1       3.006  60.976  17.304  1.00  0.00     0.037 C 
HETATM   40  C26 UNL     1       3.884  61.724  19.496  1.00  0.00     0.037 C 
HETATM   41  C27 UNL     1       3.137  59.408  19.167  1.00  0.00     0.037 C 
ENDBRANCH  36  38
ENDBRANCH  33  34
ENDBRANCH  12  33
TORSDOF 12
ENDMDL
MODEL 5
REMARK VINA RESULT: -8.141909786      3.741      5.331
REMARK  12 active torsions:
REMARK  status: ('A' for Active; 'I' for Inactive)
REMARK    1  A    between atoms: O1_2  and  C2_3 
REMARK    2  A    between atoms: C2_3  and  C3_4 
REMARK    3  A    between atoms: C3_4  and  C4_5 
REMARK    4  A    between atoms: C4_5  and  N1_6 
REMARK    5  A    between atoms: N1_6  and  C5_8 
REMARK    6  A    between atoms: C5_8  and  C7_10 
REMARK    7  A    between atoms: C10_14  and  N2_15 
REMARK       I    between atoms: N2_15  and  C11_17 
REMARK    8  A    between atoms: C11_17  and  C12_19 
REMARK    9  A    between atoms: C12_19  and  N3_20 
REMARK   10  A    between atoms: N4_32  and  C22_33 
REMARK   11  A    between atoms: C22_33  and  C23_34 
REMARK       I    between atoms: C23_34  and  N5_36 
REMARK   12  A    between atoms: N5_36  and  C24_38 
ROOT
HETATM    1  C7  UNL     1      10.833  61.570  15.663  1.00  0.00     0.061 A 
HETATM    2  C8  UNL     1      11.592  62.477  14.875  1.00  0.00     0.052 A 
HETATM    3  C9  UNL     1      12.634  63.201  15.377  1.00  0.00     0.029 A 
HETATM    4  S1  UNL     1      13.565  64.286  14.465  1.00  0.00    -0.071 SA
HETATM    5  C10 UNL     1      14.805  65.040  15.366  1.00  0.00     0.081 A 
HETATM    6  C18 UNL     1      14.837  64.636  16.687  1.00  0.00     0.093 A 
HETATM    7  C19 UNL     1      14.006  63.742  17.274  1.00  0.00     0.191 A 
HETATM    8  O3  UNL     1      14.217  63.513  18.520  1.00  0.00    -0.287 OA
HETATM    9  C20 UNL     1      12.965  63.051  16.695  1.00  0.00     0.099 A 
HETATM   10  C21 UNL     1      12.218  62.165  17.444  1.00  0.00     0.264 A 
HETATM   11  O4  UNL     1      12.519  62.024  18.664  1.00  0.00    -0.267 OA
HETATM   12  N4  UNL     1      11.164  61.430  16.932  1.00  0.00    -0.303 N 
ENDROOT
BRANCH   5  13
HETATM   13  N2  UNL     1      15.714  65.972  14.812  1.00  0.00    -0.320 N 
HETATM   14  C11 UNL     1      16.900  65.566  14.163  1.00  0.00     0.251 C 
HETATM   15  O2  UNL     1      17.148  64.334  14.074  1.00  0.00    -0.271 OA
ATOM     16  H2  UNL     1      15.505  66.968  14.884  1.00  0.00     0.169 HD
BRANCH  14  17
HETATM   17  C12 UNL     1      17.844  66.570  13.589  1.00  0.00     0.374 C 
BRANCH  17  18
HETATM   18  N3  UNL     1      17.263  67.891  13.537  1.00  0.00     0.097 N 
HETATM   19  C13 UNL     1      18.206  68.836  14.054  1.00  0.00     0.273 C 
HETATM   20  C14 UNL     1      18.240  70.092  13.165  1.00  0.00     0.030 C 
HETATM   21  C15 UNL     1      18.810  69.637  11.842  1.00  0.00     0.003 C 
HETATM   22  C16 UNL     1      17.917  68.595  11.258  1.00  0.00     0.030 C 
HETATM   23  C17 UNL     1      16.845  68.169  12.201  1.00  0.00     0.273 C 
ENDBRANCH  17  18
ENDBRANCH  14  17
ENDBRANCH   5  13
BRANCH   1  24
HETATM   24  C5  UNL     1       9.702  60.884  15.024  1.00  0.00     0.032 C 
HETATM   25  C6  UNL     1       8.505  61.754  14.810  1.00  0.00     0.070 C 
BRANCH  24  26
HETATM   26  N1  UNL     1      10.006  59.906  14.042  1.00  0.00    -0.371 N 
ATOM     27  H1  UNL     1      10.481  60.174  13.180  1.00  0.00     0.164 HD
BRANCH  26  28
HETATM   28  C4  UNL     1       9.647  58.564  14.263  1.00  0.00     0.063 C 
BRANCH  28  29
HETATM   29  C3  UNL     1       8.269  58.115  13.946  1.00  0.00     0.070 C 
BRANCH  29  30
HETATM   30  C2  UNL     1       7.540  57.546  15.145  1.00  0.00     0.172 C 
BRANCH  30  31
HETATM   31  O1  UNL     1       8.224  57.635  16.327  1.00  0.00    -0.396 OA
HETATM   32  C1  UNL     1       7.525  58.229  17.337  1.00  0.00     0.201 C 
ENDBRANCH  30  31
ENDBRANCH  29  30
ENDBRANCH  28  29
ENDBRANCH  26  28
ENDBRANCH  24  26
ENDBRANCH   1  24
BRANCH  12  33
HETATM   33  C22 UNL     1      10.578  60.529  17.851  1.00  0.00     0.235 C 
BRANCH  33  34
HETATM   34  C23 UNL     1       9.595  61.136  18.782  1.00  0.00     0.236 C 
HETATM   35  O5  UNL     1       8.499  61.550  18.378  1.00  0.00    -0.272 OA
HETATM   36  N5  UNL     1       9.840  61.286  20.182  1.00  0.00    -0.352 N 
ATOM     37  H5  UNL     1      10.727  60.968  20.572  1.00  0.00     0.163 HD
BRANCH  36  38
HETATM   38  C24 UNL     1       8.846  61.885  21.063  1.00  0.00     0.022 C 
HETATM   39  C25 UNL     1       8.476  63.274  20.563  1.00  0.00     0.037 C 
HETATM   40  C26 UNL     1       9.393  61.970  22.459  1.00  0.00     0.037 C 
HETATM   41  C27 UNL     1       7.570  61.070  21.081  1.00  0.00     0.037 C 
ENDBRANCH  36  38
ENDBRANCH  33  34
ENDBRANCH  12  33
TORSDOF 12
ENDMDL
