MODEL 1
REMARK VINA RESULT: -6.573318306      0.000      0.000
REMARK  10 active torsions:
REMARK  status: ('A' for Active; 'I' for Inactive)
REMARK    1  A    between atoms: C3_6  and  C4_7 
REMARK    2  A    between atoms: C5_8  and  S1_9 
REMARK    3  A    between atoms: S1_9  and  C6_10 
REMARK    4  A    between atoms: C6_10  and  O2_12 
REMARK    5  A    between atoms: C11_19  and  C12_20 
REMARK    6  A    between atoms: C14_22  and  C15_23 
REMARK    7  A    between atoms: C15_23  and  O3_24 
REMARK    8  A    between atoms: O3_24  and  S2_25 
REMARK    9  A    between atoms: S2_25  and  N2_26 
REMARK   10  A    between atoms: C16_31  and  O6_32 
ROOT
HETATM    1  C4  UNL     1       1.713  13.324  57.908  1.00  0.00     0.044 A 
HETATM    2  C5  UNL     1       0.463  13.032  57.380  1.00  0.00     0.040 A 
HETATM    3  C8  UNL     1      -0.628  13.760  57.797  1.00  0.00     0.053 A 
HETATM    4 CL1  UNL     1      -2.215  13.397  57.138  1.00  0.00    -0.083 Cl
HETATM    5  C9  UNL     1      -0.481  14.763  58.721  1.00  0.00     0.049 A 
HETATM    6  C10 UNL     1       0.794  15.037  59.237  1.00  0.00     0.043 A 
HETATM    7 CL2  UNL     1       0.899  16.286  60.434  1.00  0.00    -0.084 Cl
HETATM    8  C11 UNL     1       1.905  14.342  58.855  1.00  0.00    -0.016 A 
ENDROOT
BRANCH   8   9
HETATM    9  C12 UNL     1       3.221  14.588  59.410  1.00  0.00     0.022 C 
HETATM   10  C13 UNL     1       4.070  15.669  58.837  1.00  0.00     0.018 C 
HETATM   11  C14 UNL     1       5.544  15.307  59.206  1.00  0.00     0.041 C 
HETATM   12  C16 UNL     1       5.663  14.791  60.581  1.00  0.00     0.132 C 
HETATM   13  C17 UNL     1       4.494  15.084  61.480  1.00  0.00    -0.021 C 
HETATM   14  C18 UNL     1       4.692  16.476  62.102  1.00  0.00     0.017 C 
HETATM   15  C19 UNL     1       4.601  14.124  62.676  1.00  0.00     0.017 C 
HETATM   16  C20 UNL     1       3.152  14.940  60.899  1.00  0.00     0.020 C 
BRANCH  11  17
HETATM   17  C15 UNL     1       6.047  14.370  58.128  1.00  0.00     0.199 C 
BRANCH  17  18
HETATM   18  O3  UNL     1       7.439  14.313  58.200  1.00  0.00    -0.259 OA
BRANCH  18  19
HETATM   19  S2  UNL     1       7.938  12.756  57.773  1.00  0.00     0.355 S 
HETATM   20  O4  UNL     1       9.409  12.733  57.505  1.00  0.00    -0.176 OA
HETATM   21  O5  UNL     1       7.236  12.266  56.534  1.00  0.00    -0.176 OA
BRANCH  19  22
HETATM   22  N2  UNL     1       7.604  11.643  59.032  1.00  0.00    -0.306 N 
ATOM     23  H22 UNL     1       6.966  10.854  58.937  1.00  0.00     0.171 HD
ATOM     24  H21 UNL     1       8.129  11.882  59.874  1.00  0.00     0.171 HD
ENDBRANCH  19  22
ENDBRANCH  18  19
ENDBRANCH  17  18
ENDBRANCH  11  17
BRANCH  12  25
HETATM   25  O6  UNL     1       6.023  13.451  60.679  1.00  0.00    -0.394 OA
ATOM     26  H6  UNL     1       5.741  13.015  61.475  1.00  0.00     0.210 HD
ENDBRANCH  12  25
ENDBRANCH   8   9
BRANCH   1  27
HETATM   27  C3  UNL     1       2.805  12.430  57.455  1.00  0.00     0.184 A 
HETATM   28  O1  UNL     1       3.606  12.518  56.449  1.00  0.00    -0.217 OA
HETATM   29  N1  UNL     1       4.414  11.535  56.415  1.00  0.00    -0.247 N 
HETATM   30  C2  UNL     1       4.155  10.732  57.450  1.00  0.00     0.100 A 
ATOM     31  H1  UNL     1       5.140  11.385  55.713  1.00  0.00     0.196 HD
HETATM   32  C1  UNL     1       4.919   9.466  57.726  1.00  0.00     0.091 C 
HETATM   33  N3  UNL     1       3.151  11.280  58.107  1.00  0.00    -0.323 N 
ATOM     34  H3  UNL     1       2.712  10.912  58.952  1.00  0.00     0.169 HD
ENDBRANCH   1  27
BRANCH   2  35
HETATM   35  S1  UNL     1       0.211  11.804  56.093  1.00  0.00    -0.096 SA
BRANCH  35  36
HETATM   36  C6  UNL     1       0.395  12.502  54.447  1.00  0.00     0.180 C 
HETATM   37  C7  UNL     1       0.152  11.453  53.383  1.00  0.00     0.051 C 
BRANCH  36  38
HETATM   38  O2  UNL     1       1.639  13.046  54.261  1.00  0.00    -0.385 OA
ATOM     39  H2  UNL     1       1.820  13.736  54.888  1.00  0.00     0.211 HD
ENDBRANCH  36  38
ENDBRANCH  35  36
ENDBRANCH   2  35
TORSDOF 10
ENDMDL
MODEL 2
REMARK VINA RESULT: -6.529022044      2.308      5.679
REMARK  10 active torsions:
REMARK  status: ('A' for Active; 'I' for Inactive)
REMARK    1  A    between atoms: C3_6  and  C4_7 
REMARK    2  A    between atoms: C5_8  and  S1_9 
REMARK    3  A    between atoms: S1_9  and  C6_10 
REMARK    4  A    between atoms: C6_10  and  O2_12 
REMARK    5  A    between atoms: C11_19  and  C12_20 
REMARK    6  A    between atoms: C14_22  and  C15_23 
REMARK    7  A    between atoms: C15_23  and  O3_24 
REMARK    8  A    between atoms: O3_24  and  S2_25 
REMARK    9  A    between atoms: S2_25  and  N2_26 
REMARK   10  A    between atoms: C16_31  and  O6_32 
ROOT
HETATM    1  C4  UNL     1       2.699  14.886  60.241  1.00  0.00     0.044 A 
HETATM    2  C5  UNL     1       2.312  15.738  61.266  1.00  0.00     0.040 A 
HETATM    3  C8  UNL     1       1.024  16.221  61.286  1.00  0.00     0.053 A 
HETATM    4 CL1  UNL     1       0.524  17.303  62.576  1.00  0.00    -0.083 Cl
HETATM    5  C9  UNL     1       0.133  15.863  60.306  1.00  0.00     0.049 A 
HETATM    6  C10 UNL     1       0.551  15.000  59.283  1.00  0.00     0.043 A 
HETATM    7 CL2  UNL     1      -0.612  14.626  58.054  1.00  0.00    -0.084 Cl
HETATM    8  C11 UNL     1       1.818  14.495  59.220  1.00  0.00    -0.016 A 
ENDROOT
BRANCH   8   9
HETATM    9  C12 UNL     1       2.274  13.635  58.148  1.00  0.00     0.022 C 
HETATM   10  C13 UNL     1       2.201  12.156  58.310  1.00  0.00     0.018 C 
HETATM   11  C14 UNL     1       3.251  11.557  57.322  1.00  0.00     0.041 C 
HETATM   12  C16 UNL     1       3.259  12.257  56.025  1.00  0.00     0.132 C 
HETATM   13  C17 UNL     1       2.042  13.092  55.739  1.00  0.00    -0.021 C 
HETATM   14  C18 UNL     1       0.963  12.188  55.122  1.00  0.00     0.017 C 
HETATM   15  C19 UNL     1       2.419  14.052  54.600  1.00  0.00     0.017 C 
HETATM   16  C20 UNL     1       1.504  13.891  56.850  1.00  0.00     0.020 C 
BRANCH  11  17
HETATM   17  C15 UNL     1       4.580  11.549  58.049  1.00  0.00     0.199 C 
BRANCH  17  18
HETATM   18  O3  UNL     1       5.377  10.539  57.511  1.00  0.00    -0.259 OA
BRANCH  18  19
HETATM   19  S2  UNL     1       6.973  11.092  57.438  1.00  0.00     0.355 S 
HETATM   20  O4  UNL     1       7.022  12.473  56.866  1.00  0.00    -0.176 OA
HETATM   21  O5  UNL     1       7.831  10.204  56.577  1.00  0.00    -0.176 OA
BRANCH  19  22
HETATM   22  N2  UNL     1       7.673  11.133  59.001  1.00  0.00    -0.306 N 
ATOM     23  H22 UNL     1       8.629  10.839  59.202  1.00  0.00     0.171 HD
ATOM     24  H21 UNL     1       7.008  11.488  59.687  1.00  0.00     0.171 HD
ENDBRANCH  19  22
ENDBRANCH  18  19
ENDBRANCH  17  18
ENDBRANCH  11  17
BRANCH  12  25
HETATM   25  O6  UNL     1       4.415  12.980  55.751  1.00  0.00    -0.394 OA
ATOM     26  H6  UNL     1       5.145  12.465  55.427  1.00  0.00     0.210 HD
ENDBRANCH  12  25
ENDBRANCH   8   9
BRANCH   1  27
HETATM   27  C3  UNL     1       4.126  14.488  60.268  1.00  0.00     0.184 A 
HETATM   28  O1  UNL     1       4.720  13.512  60.864  1.00  0.00    -0.217 OA
HETATM   29  N1  UNL     1       5.971  13.517  60.625  1.00  0.00    -0.247 N 
HETATM   30  C2  UNL     1       6.249  14.549  59.823  1.00  0.00     0.100 A 
ATOM     31  H1  UNL     1       6.649  12.845  60.986  1.00  0.00     0.196 HD
HETATM   32  C1  UNL     1       7.635  14.863  59.333  1.00  0.00     0.091 C 
HETATM   33  N3  UNL     1       5.105  15.163  59.593  1.00  0.00    -0.323 N 
ATOM     34  H3  UNL     1       4.974  15.994  59.015  1.00  0.00     0.169 HD
ENDBRANCH   1  27
BRANCH   2  35
HETATM   35  S1  UNL     1       3.392  16.168  62.636  1.00  0.00    -0.096 SA
BRANCH  35  36
HETATM   36  C6  UNL     1       3.281  14.982  63.982  1.00  0.00     0.180 C 
HETATM   37  C7  UNL     1       4.265  15.317  65.083  1.00  0.00     0.051 C 
BRANCH  36  38
HETATM   38  O2  UNL     1       3.513  13.701  63.552  1.00  0.00    -0.385 OA
ATOM     39  H2  UNL     1       3.144  13.057  64.146  1.00  0.00     0.211 HD
ENDBRANCH  36  38
ENDBRANCH  35  36
ENDBRANCH   2  35
TORSDOF 10
ENDMDL
MODEL 3
REMARK VINA RESULT: -6.465882858      3.928      5.469
REMARK  10 active torsions:
REMARK  status: ('A' for Active; 'I' for Inactive)
REMARK    1  A    between atoms: C3_6  and  C4_7 
REMARK    2  A    between atoms: C5_8  and  S1_9 
REMARK    3  A    between atoms: S1_9  and  C6_10 
REMARK    4  A    between atoms: C6_10  and  O2_12 
REMARK    5  A    between atoms: C11_19  and  C12_20 
REMARK    6  A    between atoms: C14_22  and  C15_23 
REMARK    7  A    between atoms: C15_23  and  O3_24 
REMARK    8  A    between atoms: O3_24  and  S2_25 
REMARK    9  A    between atoms: S2_25  and  N2_26 
REMARK   10  A    between atoms: C16_31  and  O6_32 
ROOT
HETATM    1  C4  UNL     1       2.065  13.928  57.795  1.00  0.00     0.044 A 
HETATM    2  C5  UNL     1       1.328  13.397  56.744  1.00  0.00     0.040 A 
HETATM    3  C8  UNL     1       1.907  12.453  55.929  1.00  0.00     0.053 A 
HETATM    4 CL1  UNL     1       0.986  11.778  54.595  1.00  0.00    -0.083 Cl
HETATM    5  C9  UNL     1       3.197  12.040  56.151  1.00  0.00     0.049 A 
HETATM    6  C10 UNL     1       3.918  12.593  57.220  1.00  0.00     0.043 A 
HETATM    7 CL2  UNL     1       5.554  12.058  57.415  1.00  0.00    -0.084 Cl
HETATM    8  C11 UNL     1       3.386  13.532  58.056  1.00  0.00    -0.016 A 
ENDROOT
BRANCH   8   9
HETATM    9  C12 UNL     1       4.133  14.139  59.138  1.00  0.00     0.022 C 
HETATM   10  C13 UNL     1       4.628  13.291  60.258  1.00  0.00     0.018 C 
HETATM   11  C14 UNL     1       4.838  14.250  61.472  1.00  0.00     0.041 C 
HETATM   12  C16 UNL     1       5.437  15.535  61.070  1.00  0.00     0.132 C 
HETATM   13  C17 UNL     1       6.095  15.541  59.718  1.00  0.00    -0.021 C 
HETATM   14  C18 UNL     1       7.541  15.042  59.877  1.00  0.00     0.017 C 
HETATM   15  C19 UNL     1       6.253  17.013  59.308  1.00  0.00     0.017 C 
HETATM   16  C20 UNL     1       5.398  14.837  58.632  1.00  0.00     0.020 C 
BRANCH  11  17
HETATM   17  C15 UNL     1       3.503  14.361  62.177  1.00  0.00     0.199 C 
BRANCH  17  18
HETATM   18  O3  UNL     1       3.686  15.053  63.375  1.00  0.00    -0.259 OA
BRANCH  18  19
HETATM   19  S2  UNL     1       2.301  15.970  63.686  1.00  0.00     0.355 S 
HETATM   20  O4  UNL     1       1.820  15.733  65.082  1.00  0.00    -0.176 OA
HETATM   21  O5  UNL     1       1.179  15.621  62.746  1.00  0.00    -0.176 OA
BRANCH  19  22
HETATM   22  N2  UNL     1       2.626  17.642  63.507  1.00  0.00    -0.306 N 
ATOM     23  H22 UNL     1       3.408  18.013  62.968  1.00  0.00     0.171 HD
ATOM     24  H21 UNL     1       1.936  18.201  64.009  1.00  0.00     0.171 HD
ENDBRANCH  19  22
ENDBRANCH  18  19
ENDBRANCH  17  18
ENDBRANCH  11  17
BRANCH  12  25
HETATM   25  O6  UNL     1       4.605  16.641  61.206  1.00  0.00    -0.394 OA
ATOM     26  H6  UNL     1       5.052  17.478  61.260  1.00  0.00     0.210 HD
ENDBRANCH  12  25
ENDBRANCH   8   9
BRANCH   1  27
HETATM   27  C3  UNL     1       1.378  14.994  58.562  1.00  0.00     0.184 A 
HETATM   28  O1  UNL     1       0.494  14.926  59.496  1.00  0.00    -0.217 OA
HETATM   29  N1  UNL     1       0.159  16.086  59.902  1.00  0.00    -0.247 N 
HETATM   30  C2  UNL     1       0.850  16.996  59.210  1.00  0.00     0.100 A 
ATOM     31  H1  UNL     1      -0.523  16.286  60.633  1.00  0.00     0.196 HD
HETATM   32  C1  UNL     1       0.710  18.478  59.425  1.00  0.00     0.091 C 
HETATM   33  N3  UNL     1       1.615  16.327  58.369  1.00  0.00    -0.323 N 
ATOM     34  H3  UNL     1       2.267  16.731  57.697  1.00  0.00     0.169 HD
ENDBRANCH   1  27
BRANCH   2  35
HETATM   35  S1  UNL     1      -0.395  13.814  56.455  1.00  0.00    -0.096 SA
BRANCH  35  36
HETATM   36  C6  UNL     1      -1.503  12.899  57.536  1.00  0.00     0.180 C 
HETATM   37  C7  UNL     1      -2.754  12.475  56.796  1.00  0.00     0.051 C 
BRANCH  36  38
HETATM   38  O2  UNL     1      -1.863  13.634  58.636  1.00  0.00    -0.385 OA
ATOM     39  H2  UNL     1      -2.708  13.366  58.978  1.00  0.00     0.211 HD
ENDBRANCH  36  38
ENDBRANCH  35  36
ENDBRANCH   2  35
TORSDOF 10
ENDMDL
MODEL 4
REMARK VINA RESULT: -6.460761424      1.242      1.392
REMARK  10 active torsions:
REMARK  status: ('A' for Active; 'I' for Inactive)
REMARK    1  A    between atoms: C3_6  and  C4_7 
REMARK    2  A    between atoms: C5_8  and  S1_9 
REMARK    3  A    between atoms: S1_9  and  C6_10 
REMARK    4  A    between atoms: C6_10  and  O2_12 
REMARK    5  A    between atoms: C11_19  and  C12_20 
REMARK    6  A    between atoms: C14_22  and  C15_23 
REMARK    7  A    between atoms: C15_23  and  O3_24 
REMARK    8  A    between atoms: O3_24  and  S2_25 
REMARK    9  A    between atoms: S2_25  and  N2_26 
REMARK   10  A    between atoms: C16_31  and  O6_32 
ROOT
HETATM    1  C4  UNL     1       1.851  13.705  58.353  1.00  0.00     0.044 A 
HETATM    2  C5  UNL     1       0.715  13.435  57.601  1.00  0.00     0.040 A 
HETATM    3  C8  UNL     1      -0.332  14.327  57.624  1.00  0.00     0.053 A 
HETATM    4 CL1  UNL     1      -1.774  13.995  56.679  1.00  0.00    -0.083 Cl
HETATM    5  C9  UNL     1      -0.255  15.469  58.381  1.00  0.00     0.049 A 
HETATM    6  C10 UNL     1       0.905  15.716  59.131  1.00  0.00     0.043 A 
HETATM    7 CL2  UNL     1       0.916  17.154  60.098  1.00  0.00    -0.084 Cl
HETATM    8  C11 UNL     1       1.969  14.862  59.140  1.00  0.00    -0.016 A 
ENDROOT
BRANCH   8   9
HETATM    9  C12 UNL     1       3.155  15.085  59.941  1.00  0.00     0.022 C 
HETATM   10  C13 UNL     1       3.988  16.296  59.700  1.00  0.00     0.018 C 
HETATM   11  C14 UNL     1       5.411  15.963  60.250  1.00  0.00     0.041 C 
HETATM   12  C16 UNL     1       5.357  15.226  61.525  1.00  0.00     0.132 C 
HETATM   13  C17 UNL     1       4.041  15.291  62.248  1.00  0.00    -0.021 C 
HETATM   14  C18 UNL     1       4.018  16.564  63.110  1.00  0.00     0.017 C 
HETATM   15  C19 UNL     1       4.042  14.147  63.275  1.00  0.00     0.017 C 
HETATM   16  C20 UNL     1       2.824  15.170  61.433  1.00  0.00     0.020 C 
BRANCH  11  17
HETATM   17  C15 UNL     1       6.155  15.257  59.136  1.00  0.00     0.199 C 
BRANCH  17  18
HETATM   18  O3  UNL     1       7.522  15.307  59.410  1.00  0.00    -0.259 OA
BRANCH  18  19
HETATM   19  S2  UNL     1       8.257  13.938  58.747  1.00  0.00     0.355 S 
HETATM   20  O4  UNL     1       9.733  13.970  58.984  1.00  0.00    -0.176 OA
HETATM   21  O5  UNL     1       8.030  13.849  57.261  1.00  0.00    -0.176 OA
BRANCH  19  22
HETATM   22  N2  UNL     1       7.631  12.509  59.454  1.00  0.00    -0.306 N 
ATOM     23  H22 UNL     1       6.953  12.503  60.216  1.00  0.00     0.171 HD
ATOM     24  H21 UNL     1       8.027  11.681  59.009  1.00  0.00     0.171 HD
ENDBRANCH  19  22
ENDBRANCH  18  19
ENDBRANCH  17  18
ENDBRANCH  11  17
BRANCH  12  25
HETATM   25  O6  UNL     1       5.811  13.913  61.466  1.00  0.00    -0.394 OA
ATOM     26  H6  UNL     1       5.884  13.474  62.306  1.00  0.00     0.210 HD
ENDBRANCH  12  25
ENDBRANCH   8   9
BRANCH   1  27
HETATM   27  C3  UNL     1       2.885  12.644  58.322  1.00  0.00     0.184 A 
HETATM   28  O1  UNL     1       3.056  11.609  59.069  1.00  0.00    -0.217 OA
HETATM   29  N1  UNL     1       4.075  10.937  58.702  1.00  0.00    -0.247 N 
HETATM   30  C2  UNL     1       4.629  11.542  57.649  1.00  0.00     0.100 A 
ATOM     31  H1  UNL     1       4.410  10.079  59.140  1.00  0.00     0.196 HD
HETATM   32  C1  UNL     1       5.855  11.024  56.949  1.00  0.00     0.091 C 
HETATM   33  N3  UNL     1       3.895  12.610  57.401  1.00  0.00    -0.323 N 
ATOM     34  H3  UNL     1       4.053  13.289  56.655  1.00  0.00     0.169 HD
ENDBRANCH   1  27
BRANCH   2  35
HETATM   35  S1  UNL     1       0.585  12.014  56.509  1.00  0.00    -0.096 SA
BRANCH  35  36
HETATM   36  C6  UNL     1       1.277  12.345  54.884  1.00  0.00     0.180 C 
HETATM   37  C7  UNL     1       1.669  13.801  54.747  1.00  0.00     0.051 C 
BRANCH  36  38
HETATM   38  O2  UNL     1       0.399  12.024  53.881  1.00  0.00    -0.385 OA
ATOM     39  H2  UNL     1      -0.335  12.626  53.849  1.00  0.00     0.211 HD
ENDBRANCH  36  38
ENDBRANCH  35  36
ENDBRANCH   2  35
TORSDOF 10
ENDMDL
MODEL 5
REMARK VINA RESULT: -6.439764387      1.701      1.948
REMARK  10 active torsions:
REMARK  status: ('A' for Active; 'I' for Inactive)
REMARK    1  A    between atoms: C3_6  and  C4_7 
REMARK    2  A    between atoms: C5_8  and  S1_9 
REMARK    3  A    between atoms: S1_9  and  C6_10 
REMARK    4  A    between atoms: C6_10  and  O2_12 
REMARK    5  A    between atoms: C11_19  and  C12_20 
REMARK    6  A    between atoms: C14_22  and  C15_23 
REMARK    7  A    between atoms: C15_23  and  O3_24 
REMARK    8  A    between atoms: O3_24  and  S2_25 
REMARK    9  A    between atoms: S2_25  and  N2_26 
REMARK   10  A    between atoms: C16_31  and  O6_32 
ROOT
HETATM    1  C4  UNL     1       1.895  13.742  58.398  1.00  0.00     0.044 A 
HETATM    2  C5  UNL     1       0.771  13.460  57.633  1.00  0.00     0.040 A 
HETATM    3  C8  UNL     1      -0.299  14.323  57.670  1.00  0.00     0.053 A 
HETATM    4 CL1  UNL     1      -1.727  13.974  56.709  1.00  0.00    -0.083 Cl
HETATM    5  C9  UNL     1      -0.256  15.450  58.451  1.00  0.00     0.049 A 
HETATM    6  C10 UNL     1       0.893  15.711  59.213  1.00  0.00     0.043 A 
HETATM    7 CL2  UNL     1       0.861  17.127  60.211  1.00  0.00    -0.084 Cl
HETATM    8  C11 UNL     1       1.979  14.885  59.210  1.00  0.00    -0.016 A 
ENDROOT
BRANCH   8   9
HETATM    9  C12 UNL     1       3.154  15.121  60.022  1.00  0.00     0.022 C 
HETATM   10  C13 UNL     1       4.005  16.314  59.754  1.00  0.00     0.018 C 
HETATM   11  C14 UNL     1       5.415  15.984  60.339  1.00  0.00     0.041 C 
HETATM   12  C16 UNL     1       5.332  15.291  61.637  1.00  0.00     0.132 C 
HETATM   13  C17 UNL     1       4.005  15.395  62.336  1.00  0.00    -0.021 C 
HETATM   14  C18 UNL     1       3.984  16.697  63.153  1.00  0.00     0.017 C 
HETATM   15  C19 UNL     1       3.976  14.288  63.401  1.00  0.00     0.017 C 
HETATM   16  C20 UNL     1       2.800  15.261  61.505  1.00  0.00     0.020 C 
BRANCH  11  17
HETATM   17  C15 UNL     1       6.169  15.232  59.262  1.00  0.00     0.199 C 
BRANCH  17  18
HETATM   18  O3  UNL     1       5.536  15.448  58.038  1.00  0.00    -0.259 OA
BRANCH  18  19
HETATM   19  S2  UNL     1       6.655  15.191  56.798  1.00  0.00     0.355 S 
HETATM   20  O4  UNL     1       6.013  14.467  55.657  1.00  0.00    -0.176 OA
HETATM   21  O5  UNL     1       7.826  14.369  57.266  1.00  0.00    -0.176 OA
BRANCH  19  22
HETATM   22  N2  UNL     1       7.266  16.680  56.213  1.00  0.00    -0.306 N 
ATOM     23  H22 UNL     1       7.754  16.783  55.323  1.00  0.00     0.171 HD
ATOM     24  H21 UNL     1       7.074  17.435  56.872  1.00  0.00     0.171 HD
ENDBRANCH  19  22
ENDBRANCH  18  19
ENDBRANCH  17  18
ENDBRANCH  11  17
BRANCH  12  25
HETATM   25  O6  UNL     1       5.772  13.972  61.630  1.00  0.00    -0.394 OA
ATOM     26  H6  UNL     1       5.801  13.552  62.482  1.00  0.00     0.210 HD
ENDBRANCH  12  25
ENDBRANCH   8   9
BRANCH   1  27
HETATM   27  C3  UNL     1       2.957  12.710  58.349  1.00  0.00     0.184 A 
HETATM   28  O1  UNL     1       3.120  11.632  59.035  1.00  0.00    -0.217 OA
HETATM   29  N1  UNL     1       4.172  11.010  58.677  1.00  0.00    -0.247 N 
HETATM   30  C2  UNL     1       4.760  11.696  57.693  1.00  0.00     0.100 A 
ATOM     31  H1  UNL     1       4.508  10.133  59.075  1.00  0.00     0.196 HD
HETATM   32  C1  UNL     1       6.032  11.253  57.024  1.00  0.00     0.091 C 
HETATM   33  N3  UNL     1       4.011  12.761  57.479  1.00  0.00    -0.323 N 
ATOM     34  H3  UNL     1       4.187  13.490  56.788  1.00  0.00     0.169 HD
ENDBRANCH   1  27
BRANCH   2  35
HETATM   35  S1  UNL     1       0.684  12.060  56.510  1.00  0.00    -0.096 SA
BRANCH  35  36
HETATM   36  C6  UNL     1       1.402  12.435  54.905  1.00  0.00     0.180 C 
HETATM   37  C7  UNL     1       1.765  13.901  54.803  1.00  0.00     0.051 C 
BRANCH  36  38
HETATM   38  O2  UNL     1       0.552  12.113  53.879  1.00  0.00    -0.385 OA
ATOM     39  H2  UNL     1       0.336  11.188  53.876  1.00  0.00     0.211 HD
ENDBRANCH  36  38
ENDBRANCH  35  36
ENDBRANCH   2  35
TORSDOF 10
ENDMDL
