MODEL 1
REMARK VINA RESULT: -5.623700111      0.000      0.000
REMARK  3 active torsions:
REMARK  status: ('A' for Active; 'I' for Inactive)
REMARK    1  A    between atoms: C2_2  and  N1_3 
REMARK    2  A    between atoms: C6_7  and  C7_8 
REMARK    3  A    between atoms: C7_8  and  N2_9 
ROOT
HETATM    1  N1  UNL     1     -25.728  12.159  -6.140  1.00  0.00    -0.376 N 
HETATM    2  C3  UNL     1     -26.785  12.656  -5.341  1.00  0.00     0.123 C 
HETATM    3  C4  UNL     1     -27.847  13.375  -6.147  1.00  0.00     0.020 C 
HETATM    4  C5  UNL     1     -27.304  14.312  -7.173  1.00  0.00     0.011 C 
HETATM    5  C6  UNL     1     -26.043  13.869  -7.859  1.00  0.00     0.048 C 
HETATM    6  C8  UNL     1     -25.100  13.116  -6.982  1.00  0.00     0.196 C 
HETATM    7  C9  UNL     1     -24.040  12.531  -7.780  1.00  0.00     0.085 C 
HETATM    8  N3  UNL     1     -23.177  12.062  -8.422  1.00  0.00    -0.195 NA
ENDROOT
BRANCH   1   9
HETATM    9  C2  UNL     1     -25.064  10.991  -5.792  1.00  0.00     0.055 C 
HETATM   10  C1  UNL     1     -25.082  10.620  -4.315  1.00  0.00     0.054 C 
ENDBRANCH   1   9
BRANCH   5  11
HETATM   11  C7  UNL     1     -25.320  15.090  -8.389  1.00  0.00     0.237 C 
BRANCH  11  12
HETATM   12  N2  UNL     1     -25.966  16.332  -7.968  1.00  0.00    -0.079 N 
ATOM     13  H23 UNL     1     -25.545  17.141  -8.425  1.00  0.00     0.274 HD
ATOM     14  H22 UNL     1     -26.910  16.406  -8.347  1.00  0.00     0.274 HD
ATOM     15  H21 UNL     1     -25.965  16.436  -6.954  1.00  0.00     0.274 HD
ENDBRANCH  11  12
ENDBRANCH   5  11
TORSDOF 3
ENDMDL
MODEL 2
REMARK VINA RESULT: -5.390108417      1.559      3.040
REMARK  3 active torsions:
REMARK  status: ('A' for Active; 'I' for Inactive)
REMARK    1  A    between atoms: C2_2  and  N1_3 
REMARK    2  A    between atoms: C6_7  and  C7_8 
REMARK    3  A    between atoms: C7_8  and  N2_9 
ROOT
HETATM    1  N1  UNL     1     -25.891  12.806  -6.553  1.00  0.00    -0.376 N 
HETATM    2  C3  UNL     1     -24.594  12.574  -7.067  1.00  0.00     0.123 C 
HETATM    3  C4  UNL     1     -23.936  13.832  -7.597  1.00  0.00     0.020 C 
HETATM    4  C5  UNL     1     -24.831  14.682  -8.434  1.00  0.00     0.011 C 
HETATM    5  C6  UNL     1     -26.269  14.738  -8.004  1.00  0.00     0.048 C 
HETATM    6  C8  UNL     1     -26.789  13.458  -7.440  1.00  0.00     0.196 C 
HETATM    7  C9  UNL     1     -28.092  13.675  -6.839  1.00  0.00     0.085 C 
HETATM    8  N3  UNL     1     -29.148  13.844  -6.359  1.00  0.00    -0.195 NA
ENDROOT
BRANCH   1   9
HETATM    9  C2  UNL     1     -26.378  12.056  -5.491  1.00  0.00     0.055 C 
HETATM   10  C1  UNL     1     -25.431  11.015  -4.911  1.00  0.00     0.054 C 
ENDBRANCH   1   9
BRANCH   5  11
HETATM   11  C7  UNL     1     -27.123  15.108  -9.198  1.00  0.00     0.237 C 
BRANCH  11  12
HETATM   12  N2  UNL     1     -27.481  16.526  -9.195  1.00  0.00    -0.079 N 
ATOM     13  H23 UNL     1     -27.652  16.862  -8.248  1.00  0.00     0.274 HD
ATOM     14  H22 UNL     1     -26.679  17.111  -9.430  1.00  0.00     0.274 HD
ATOM     15  H21 UNL     1     -28.273  16.720  -9.806  1.00  0.00     0.274 HD
ENDBRANCH  11  12
ENDBRANCH   5  11
TORSDOF 3
ENDMDL
MODEL 3
REMARK VINA RESULT: -5.344289612      1.374      3.763
REMARK  3 active torsions:
REMARK  status: ('A' for Active; 'I' for Inactive)
REMARK    1  A    between atoms: C2_2  and  N1_3 
REMARK    2  A    between atoms: C6_7  and  C7_8 
REMARK    3  A    between atoms: C7_8  and  N2_9 
ROOT
HETATM    1  N1  UNL     1     -26.270  13.493  -8.214  1.00  0.00    -0.376 N 
HETATM    2  C3  UNL     1     -27.597  13.593  -7.736  1.00  0.00     0.123 C 
HETATM    3  C4  UNL     1     -27.681  13.598  -6.223  1.00  0.00     0.020 C 
HETATM    4  C5  UNL     1     -26.820  12.575  -5.562  1.00  0.00     0.011 C 
HETATM    5  C6  UNL     1     -25.494  12.314  -6.218  1.00  0.00     0.048 C 
HETATM    6  C8  UNL     1     -25.521  12.398  -7.707  1.00  0.00     0.196 C 
HETATM    7  C9  UNL     1     -24.168  12.370  -8.230  1.00  0.00     0.085 C 
HETATM    8  N3  UNL     1     -23.076  12.342  -8.656  1.00  0.00    -0.195 NA
ENDROOT
BRANCH   1   9
HETATM    9  C2  UNL     1     -25.896  14.105  -9.403  1.00  0.00     0.055 C 
HETATM   10  C1  UNL     1     -25.702  15.615  -9.352  1.00  0.00     0.054 C 
ENDBRANCH   1   9
BRANCH   5  11
HETATM   11  C7  UNL     1     -25.022  10.928  -5.832  1.00  0.00     0.237 C 
BRANCH  11  12
HETATM   12  N2  UNL     1     -25.100  10.706  -4.389  1.00  0.00    -0.079 N 
ATOM     13  H23 UNL     1     -24.397  10.036  -4.079  1.00  0.00     0.274 HD
ATOM     14  H22 UNL     1     -24.782  11.525  -3.871  1.00  0.00     0.274 HD
ATOM     15  H21 UNL     1     -26.036  10.424  -4.098  1.00  0.00     0.274 HD
ENDBRANCH  11  12
ENDBRANCH   5  11
TORSDOF 3
ENDMDL
MODEL 4
REMARK VINA RESULT: -5.211686439      1.741      1.778
REMARK  3 active torsions:
REMARK  status: ('A' for Active; 'I' for Inactive)
REMARK    1  A    between atoms: C2_2  and  N1_3 
REMARK    2  A    between atoms: C6_7  and  C7_8 
REMARK    3  A    between atoms: C7_8  and  N2_9 
ROOT
HETATM    1  N1  UNL     1     -26.025  11.970  -6.552  1.00  0.00    -0.376 N 
HETATM    2  C3  UNL     1     -26.635  12.939  -5.721  1.00  0.00     0.123 C 
HETATM    3  C4  UNL     1     -28.037  13.300  -6.168  1.00  0.00     0.020 C 
HETATM    4  C5  UNL     1     -28.173  13.516  -7.638  1.00  0.00     0.011 C 
HETATM    5  C6  UNL     1     -27.338  12.621  -8.509  1.00  0.00     0.048 C 
HETATM    6  C8  UNL     1     -26.002  12.282  -7.937  1.00  0.00     0.196 C 
HETATM    7  C9  UNL     1     -25.377  11.238  -8.725  1.00  0.00     0.085 C 
HETATM    8  N3  UNL     1     -24.864  10.398  -9.363  1.00  0.00    -0.195 NA
ENDROOT
BRANCH   1   9
HETATM    9  C2  UNL     1     -25.126  11.051  -6.027  1.00  0.00     0.055 C 
HETATM   10  C1  UNL     1     -25.236  10.778  -4.533  1.00  0.00     0.054 C 
ENDBRANCH   1   9
BRANCH   5  11
HETATM   11  C7  UNL     1     -27.121  13.302  -9.844  1.00  0.00     0.237 C 
BRANCH  11  12
HETATM   12  N2  UNL     1     -27.791  14.600  -9.910  1.00  0.00    -0.079 N 
ATOM     13  H23 UNL     1     -27.892  14.915 -10.874  1.00  0.00     0.274 HD
ATOM     14  H22 UNL     1     -28.777  14.521  -9.662  1.00  0.00     0.274 HD
ATOM     15  H21 UNL     1     -27.320  15.301  -9.338  1.00  0.00     0.274 HD
ENDBRANCH  11  12
ENDBRANCH   5  11
TORSDOF 3
ENDMDL
MODEL 5
REMARK VINA RESULT: -5.186270680      2.183      3.628
REMARK  3 active torsions:
REMARK  status: ('A' for Active; 'I' for Inactive)
REMARK    1  A    between atoms: C2_2  and  N1_3 
REMARK    2  A    between atoms: C6_7  and  C7_8 
REMARK    3  A    between atoms: C7_8  and  N2_9 
ROOT
HETATM    1  N1  UNL     1     -25.491  11.572  -7.879  1.00  0.00    -0.376 N 
HETATM    2  C3  UNL     1     -24.633  11.358  -6.775  1.00  0.00     0.123 C 
HETATM    3  C4  UNL     1     -25.385  11.139  -5.477  1.00  0.00     0.020 C 
HETATM    4  C5  UNL     1     -26.513  12.089  -5.258  1.00  0.00     0.011 C 
HETATM    5  C6  UNL     1     -27.280  12.488  -6.486  1.00  0.00     0.048 C 
HETATM    6  C8  UNL     1     -26.445  12.612  -7.716  1.00  0.00     0.196 C 
HETATM    7  C9  UNL     1     -27.297  12.761  -8.881  1.00  0.00     0.085 C 
HETATM    8  N3  UNL     1     -27.982  12.889  -9.824  1.00  0.00    -0.195 NA
ENDROOT
BRANCH   1   9
HETATM    9  C2  UNL     1     -25.130  11.146  -9.150  1.00  0.00     0.055 C 
HETATM   10  C1  UNL     1     -24.090  11.991  -9.873  1.00  0.00     0.054 C 
ENDBRANCH   1   9
BRANCH   5  11
HETATM   11  C7  UNL     1     -27.950  13.822  -6.234  1.00  0.00     0.237 C 
BRANCH  11  12
HETATM   12  N2  UNL     1     -29.407  13.715  -6.256  1.00  0.00    -0.079 N 
ATOM     13  H23 UNL     1     -29.705  12.772  -6.508  1.00  0.00     0.274 HD
ATOM     14  H22 UNL     1     -29.797  13.761  -5.315  1.00  0.00     0.274 HD
ATOM     15  H21 UNL     1     -29.831  14.413  -6.867  1.00  0.00     0.274 HD
ENDBRANCH  11  12
ENDBRANCH   5  11
TORSDOF 3
ENDMDL
