MODEL 1
REMARK VINA RESULT: -5.055664769      0.000      0.000
REMARK  4 active torsions:
REMARK  status: ('A' for Active; 'I' for Inactive)
REMARK    1  A    between atoms: C2_2  and  C3_3 
REMARK    2  A    between atoms: C3_3  and  N1_4 
REMARK    3  A    between atoms: C3_3  and  C4_8 
REMARK    4  A    between atoms: C4_8  and  N2_9 
ROOT
HETATM    1  C4  UNL     1     -18.317 -16.450  16.893  1.00  0.00     0.158 C 
HETATM    2  C5  UNL     1     -19.577 -16.468  17.773  1.00  0.00     0.024 C 
HETATM    3  C6  UNL     1     -19.491 -17.852  18.345  1.00  0.00     0.007 C 
HETATM    4  C7  UNL     1     -18.929 -18.688  17.186  1.00  0.00     0.007 C 
HETATM    5  C8  UNL     1     -18.650 -17.690  16.096  1.00  0.00     0.024 C 
HETATM    6  C9  UNL     1     -20.010 -17.281  15.531  1.00  0.00     0.007 C 
HETATM    7  C10 UNL     1     -20.635 -16.497  16.689  1.00  0.00     0.007 C 
ENDROOT
BRANCH   1   8
HETATM    8  C3  UNL     1     -17.069 -16.559  17.693  1.00  0.00     0.219 C 
BRANCH   8   9
HETATM    9  C2  UNL     1     -15.974 -17.075  16.784  1.00  0.00     0.031 C 
HETATM   10  C1  UNL     1     -15.149 -18.161  17.443  1.00  0.00     0.007 C 
ENDBRANCH   8   9
BRANCH   8  11
HETATM   11  N1  UNL     1     -16.738 -15.225  18.145  1.00  0.00    -0.073 N 
ATOM     12  H13 UNL     1     -15.739 -15.114  18.317  1.00  0.00     0.274 HD
ATOM     13  H12 UNL     1     -16.837 -14.532  17.404  1.00  0.00     0.274 HD
ATOM     14  H11 UNL     1     -17.298 -14.993  18.966  1.00  0.00     0.274 HD
ENDBRANCH   8  11
ENDBRANCH   1   8
BRANCH   1  15
HETATM   15  N2  UNL     1     -18.321 -15.249  16.129  1.00  0.00    -0.068 N 
ATOM     16  H23 UNL     1     -17.920 -14.469  16.650  1.00  0.00     0.275 HD
ATOM     17  H22 UNL     1     -17.646 -15.285  15.365  1.00  0.00     0.275 HD
ATOM     18  H21 UNL     1     -19.260 -15.038  15.794  1.00  0.00     0.275 HD
ENDBRANCH   1  15
TORSDOF 4
ENDMDL
MODEL 2
REMARK VINA RESULT: -5.007171262      1.361      3.675
REMARK  4 active torsions:
REMARK  status: ('A' for Active; 'I' for Inactive)
REMARK    1  A    between atoms: C2_2  and  C3_3 
REMARK    2  A    between atoms: C3_3  and  N1_4 
REMARK    3  A    between atoms: C3_3  and  C4_8 
REMARK    4  A    between atoms: C4_8  and  N2_9 
ROOT
HETATM    1  C4  UNL     1     -18.927 -16.447  16.890  1.00  0.00     0.158 C 
HETATM    2  C5  UNL     1     -18.417 -17.728  16.213  1.00  0.00     0.024 C 
HETATM    3  C6  UNL     1     -18.769 -18.748  17.254  1.00  0.00     0.007 C 
HETATM    4  C7  UNL     1     -18.519 -18.012  18.579  1.00  0.00     0.007 C 
HETATM    5  C8  UNL     1     -18.146 -16.613  18.174  1.00  0.00     0.024 C 
HETATM    6  C9  UNL     1     -16.727 -16.693  17.609  1.00  0.00     0.007 C 
HETATM    7  C10 UNL     1     -16.925 -17.483  16.313  1.00  0.00     0.007 C 
ENDROOT
BRANCH   1   8
HETATM    8  C3  UNL     1     -20.402 -16.453  17.072  1.00  0.00     0.219 C 
BRANCH   8   9
HETATM    9  C2  UNL     1     -20.758 -15.356  18.051  1.00  0.00     0.031 C 
HETATM   10  C1  UNL     1     -21.744 -15.825  19.100  1.00  0.00     0.007 C 
ENDBRANCH   8   9
BRANCH   8  11
HETATM   11  N1  UNL     1     -20.988 -16.163  15.781  1.00  0.00    -0.073 N 
ATOM     12  H13 UNL     1     -21.992 -16.341  15.766  1.00  0.00     0.274 HD
ATOM     13  H12 UNL     1     -21.014 -15.162  15.587  1.00  0.00     0.274 HD
ATOM     14  H11 UNL     1     -20.495 -16.683  15.055  1.00  0.00     0.274 HD
ENDBRANCH   8  11
ENDBRANCH   1   8
BRANCH   1  15
HETATM   15  N2  UNL     1     -18.522 -15.331  16.104  1.00  0.00    -0.068 N 
ATOM     16  H23 UNL     1     -17.667 -15.526  15.584  1.00  0.00     0.275 HD
ATOM     17  H22 UNL     1     -19.149 -15.178  15.314  1.00  0.00     0.275 HD
ATOM     18  H21 UNL     1     -18.432 -14.496  16.683  1.00  0.00     0.275 HD
ENDBRANCH   1  15
TORSDOF 4
ENDMDL
MODEL 3
REMARK VINA RESULT: -4.967358656      7.931      9.110
REMARK  4 active torsions:
REMARK  status: ('A' for Active; 'I' for Inactive)
REMARK    1  A    between atoms: C2_2  and  C3_3 
REMARK    2  A    between atoms: C3_3  and  N1_4 
REMARK    3  A    between atoms: C3_3  and  C4_8 
REMARK    4  A    between atoms: C4_8  and  N2_9 
ROOT
HETATM    1  C4  UNL     1     -25.174 -17.304  23.003  1.00  0.00     0.158 C 
HETATM    2  C5  UNL     1     -25.389 -17.723  21.541  1.00  0.00     0.024 C 
HETATM    3  C6  UNL     1     -23.982 -17.653  21.026  1.00  0.00     0.007 C 
HETATM    4  C7  UNL     1     -23.388 -16.443  21.764  1.00  0.00     0.007 C 
HETATM    5  C8  UNL     1     -24.474 -15.998  22.703  1.00  0.00     0.024 C 
HETATM    6  C9  UNL     1     -25.539 -15.322  21.839  1.00  0.00     0.007 C 
HETATM    7  C10 UNL     1     -26.113 -16.492  21.034  1.00  0.00     0.007 C 
ENDROOT
BRANCH   1   8
HETATM    8  C3  UNL     1     -24.343 -18.280  23.754  1.00  0.00     0.219 C 
BRANCH   8   9
HETATM    9  C2  UNL     1     -23.885 -17.618  25.036  1.00  0.00     0.031 C 
HETATM   10  C1  UNL     1     -22.386 -17.402  25.064  1.00  0.00     0.007 C 
ENDBRANCH   8   9
BRANCH   8  11
HETATM   11  N1  UNL     1     -25.193 -19.409  24.065  1.00  0.00    -0.073 N 
ATOM     12  H13 UNL     1     -24.693 -20.137  24.576  1.00  0.00     0.274 HD
ATOM     13  H12 UNL     1     -25.888 -19.182  24.776  1.00  0.00     0.274 HD
ATOM     14  H11 UNL     1     -25.620 -19.763  23.210  1.00  0.00     0.274 HD
ENDBRANCH   8  11
ENDBRANCH   1   8
BRANCH   1  15
HETATM   15  N2  UNL     1     -26.449 -17.152  23.619  1.00  0.00    -0.068 N 
ATOM     16  H23 UNL     1     -26.875 -16.254  23.389  1.00  0.00     0.275 HD
ATOM     17  H22 UNL     1     -27.148 -17.764  23.197  1.00  0.00     0.275 HD
ATOM     18  H21 UNL     1     -26.382 -17.292  24.627  1.00  0.00     0.275 HD
ENDBRANCH   1  15
TORSDOF 4
ENDMDL
MODEL 4
REMARK VINA RESULT: -4.873937668      1.397      1.895
REMARK  4 active torsions:
REMARK  status: ('A' for Active; 'I' for Inactive)
REMARK    1  A    between atoms: C2_2  and  C3_3 
REMARK    2  A    between atoms: C3_3  and  N1_4 
REMARK    3  A    between atoms: C3_3  and  C4_8 
REMARK    4  A    between atoms: C4_8  and  N2_9 
ROOT
HETATM    1  C4  UNL     1     -17.434 -17.026  17.391  1.00  0.00     0.158 C 
HETATM    2  C5  UNL     1     -18.847 -17.206  17.967  1.00  0.00     0.024 C 
HETATM    3  C6  UNL     1     -19.385 -18.264  17.050  1.00  0.00     0.007 C 
HETATM    4  C7  UNL     1     -18.774 -17.903  15.687  1.00  0.00     0.007 C 
HETATM    5  C8  UNL     1     -17.867 -16.739  15.971  1.00  0.00     0.024 C 
HETATM    6  C9  UNL     1     -18.778 -15.534  16.213  1.00  0.00     0.007 C 
HETATM    7  C10 UNL     1     -19.459 -15.888  17.538  1.00  0.00     0.007 C 
ENDROOT
BRANCH   1   8
HETATM    8  C3  UNL     1     -16.605 -18.250  17.536  1.00  0.00     0.219 C 
BRANCH   8   9
HETATM    9  C2  UNL     1     -15.149 -17.837  17.505  1.00  0.00     0.031 C 
HETATM   10  C1  UNL     1     -14.541 -17.996  16.127  1.00  0.00     0.007 C 
ENDBRANCH   8   9
BRANCH   8  11
HETATM   11  N1  UNL     1     -16.920 -18.824  18.827  1.00  0.00    -0.073 N 
ATOM     12  H13 UNL     1     -16.297 -18.486  19.561  1.00  0.00     0.274 HD
ATOM     13  H12 UNL     1     -17.797 -18.464  19.204  1.00  0.00     0.274 HD
ATOM     14  H11 UNL     1     -16.919 -19.841  18.760  1.00  0.00     0.274 HD
ENDBRANCH   8  11
ENDBRANCH   1   8
BRANCH   1  15
HETATM   15  N2  UNL     1     -16.820 -15.922  18.046  1.00  0.00    -0.068 N 
ATOM     16  H23 UNL     1     -15.803 -15.965  17.985  1.00  0.00     0.275 HD
ATOM     17  H22 UNL     1     -16.966 -15.050  17.537  1.00  0.00     0.275 HD
ATOM     18  H21 UNL     1     -17.138 -15.854  19.013  1.00  0.00     0.275 HD
ENDBRANCH   1  15
TORSDOF 4
ENDMDL
MODEL 5
REMARK VINA RESULT: -4.497389325      7.176      7.841
REMARK  4 active torsions:
REMARK  status: ('A' for Active; 'I' for Inactive)
REMARK    1  A    between atoms: C2_2  and  C3_3 
REMARK    2  A    between atoms: C3_3  and  N1_4 
REMARK    3  A    between atoms: C3_3  and  C4_8 
REMARK    4  A    between atoms: C4_8  and  N2_9 
ROOT
HETATM    1  C4  UNL     1     -23.446 -16.715  22.039  1.00  0.00     0.158 C 
HETATM    2  C5  UNL     1     -24.562 -15.926  21.337  1.00  0.00     0.024 C 
HETATM    3  C6  UNL     1     -25.494 -15.687  22.488  1.00  0.00     0.007 C 
HETATM    4  C7  UNL     1     -25.390 -16.980  23.311  1.00  0.00     0.007 C 
HETATM    5  C8  UNL     1     -24.336 -17.793  22.613  1.00  0.00     0.024 C 
HETATM    6  C9  UNL     1     -24.979 -18.314  21.327  1.00  0.00     0.007 C 
HETATM    7  C10 UNL     1     -25.162 -17.038  20.500  1.00  0.00     0.007 C 
ENDROOT
BRANCH   1   8
HETATM    8  C3  UNL     1     -22.739 -15.903  23.063  1.00  0.00     0.219 C 
BRANCH   8   9
HETATM    9  C2  UNL     1     -21.603 -16.734  23.618  1.00  0.00     0.031 C 
HETATM   10  C1  UNL     1     -21.785 -17.037  25.091  1.00  0.00     0.007 C 
ENDBRANCH   8   9
BRANCH   8  11
HETATM   11  N1  UNL     1     -22.206 -14.739  22.387  1.00  0.00    -0.073 N 
ATOM     12  H13 UNL     1     -21.281 -14.484  22.732  1.00  0.00     0.274 HD
ATOM     13  H12 UNL     1     -21.952 -14.940  21.420  1.00  0.00     0.274 HD
ATOM     14  H11 UNL     1     -22.869 -13.968  22.457  1.00  0.00     0.274 HD
ENDBRANCH   8  11
ENDBRANCH   1   8
BRANCH   1  15
HETATM   15  N2  UNL     1     -22.534 -17.179  21.049  1.00  0.00    -0.068 N 
ATOM     16  H23 UNL     1     -21.569 -17.133  21.374  1.00  0.00     0.275 HD
ATOM     17  H22 UNL     1     -22.603 -18.188  20.915  1.00  0.00     0.275 HD
ATOM     18  H21 UNL     1     -22.664 -16.672  20.174  1.00  0.00     0.275 HD
ENDBRANCH   1  15
TORSDOF 4
ENDMDL
