MODEL 1
REMARK VINA RESULT: -6.082603004      0.000      0.000
REMARK  12 active torsions:
REMARK  status: ('A' for Active; 'I' for Inactive)
REMARK       I    between atoms: C1_4  and  N3_6 
REMARK    1  A    between atoms: N3_6  and  C2_8 
REMARK    2  A    between atoms: C2_8  and  C3_9 
REMARK    3  A    between atoms: C3_9  and  N4_10 
REMARK    4  A    between atoms: C3_9  and  C10_26 
REMARK    5  A    between atoms: N4_10  and  C4_12 
REMARK    6  A    between atoms: C4_12  and  C5_13 
REMARK    7  A    between atoms: C4_12  and  C9_23 
REMARK    8  A    between atoms: C5_13  and  N5_14 
REMARK    9  A    between atoms: N5_14  and  C6_15 
REMARK   10  A    between atoms: N5_14  and  C7_17 
REMARK   11  A    between atoms: C7_17  and  C8_18 
REMARK   12  A    between atoms: C8_18  and  N6_19 
ROOT
HETATM    1  N4  UNL     1      59.129  36.911  46.265  1.00  0.00    -0.392 N 
ATOM      2  H4  UNL     1      58.151  37.176  46.385  1.00  0.00     0.155 HD
ENDROOT
BRANCH   1   3
HETATM    3  C3  UNL     1      59.631  36.736  44.992  1.00  0.00     0.185 C 
BRANCH   3   4
HETATM    4  C2  UNL     1      60.030  38.149  44.466  1.00  0.00     0.156 C 
BRANCH   4   5
HETATM    5  N3  UNL     1      58.892  39.019  44.509  1.00  0.00    -0.362 N 
HETATM    6  C1  UNL     1      58.974  40.373  44.924  1.00  0.00     0.181 C 
HETATM    7  N1  UNL     1      58.027  40.913  45.644  1.00  0.00    -0.374 N 
HETATM    8  N2  UNL     1      60.108  41.108  44.530  1.00  0.00    -0.064 NA
ATOM      9  H12 UNL     1      58.086  41.887  45.941  1.00  0.00     0.158 HD
ATOM     10  H11 UNL     1      57.205  40.380  45.929  1.00  0.00     0.158 HD
ATOM     11  H3  UNL     1      57.984  38.647  44.230  1.00  0.00     0.162 HD
ENDBRANCH   4   5
ENDBRANCH   3   4
BRANCH   3  12
HETATM   12  C10 UNL     1      58.746  36.207  43.939  1.00  0.00     0.255 C 
HETATM   13  N8  UNL     1      59.003  36.528  42.553  1.00  0.00    -0.060 NA
HETATM   14  O3  UNL     1      57.747  35.477  44.122  1.00  0.00    -0.275 OA
ENDBRANCH   3  12
ENDBRANCH   1   3
BRANCH   1  15
HETATM   15  C4  UNL     1      59.965  36.726  47.434  1.00  0.00     0.206 C 
BRANCH  15  16
HETATM   16  C5  UNL     1      59.153  35.849  48.350  1.00  0.00     0.100 C 
BRANCH  16  17
HETATM   17  N5  UNL     1      59.523  35.690  49.692  1.00  0.00    -0.335 N 
BRANCH  17  18
HETATM   18  C6  UNL     1      58.931  36.392  50.799  1.00  0.00     0.355 C 
HETATM   19  O1  UNL     1      57.931  35.869  51.346  1.00  0.00    -0.283 OA
ENDBRANCH  17  18
BRANCH  17  20
HETATM   20  C7  UNL     1      60.523  34.708  50.089  1.00  0.00     0.157 C 
BRANCH  20  21
HETATM   21  C8  UNL     1      61.256  35.189  51.288  1.00  0.00     0.249 C 
BRANCH  21  22
HETATM   22  N6  UNL     1      62.371  36.071  50.905  1.00  0.00    -0.078 N 
ATOM     23  H63 UNL     1      63.001  35.616  50.244  1.00  0.00     0.274 HD
ATOM     24  H62 UNL     1      62.057  36.840  50.314  1.00  0.00     0.274 HD
ATOM     25  H61 UNL     1      62.870  36.407  51.728  1.00  0.00     0.274 HD
ENDBRANCH  21  22
ENDBRANCH  20  21
ENDBRANCH  17  20
ENDBRANCH  16  17
ENDBRANCH  15  16
BRANCH  15  26
HETATM   26  C9  UNL     1      60.471  37.973  47.982  1.00  0.00     0.258 C 
HETATM   27  N7  UNL     1      59.905  39.258  47.778  1.00  0.00    -0.060 NA
HETATM   28  O2  UNL     1      61.519  38.023  48.737  1.00  0.00    -0.274 OA
ENDBRANCH  15  26
ENDBRANCH   1  15
TORSDOF 12
ENDMDL
MODEL 2
REMARK VINA RESULT: -5.987771874      1.870      2.959
REMARK  12 active torsions:
REMARK  status: ('A' for Active; 'I' for Inactive)
REMARK       I    between atoms: C1_4  and  N3_6 
REMARK    1  A    between atoms: N3_6  and  C2_8 
REMARK    2  A    between atoms: C2_8  and  C3_9 
REMARK    3  A    between atoms: C3_9  and  N4_10 
REMARK    4  A    between atoms: C3_9  and  C10_26 
REMARK    5  A    between atoms: N4_10  and  C4_12 
REMARK    6  A    between atoms: C4_12  and  C5_13 
REMARK    7  A    between atoms: C4_12  and  C9_23 
REMARK    8  A    between atoms: C5_13  and  N5_14 
REMARK    9  A    between atoms: N5_14  and  C6_15 
REMARK   10  A    between atoms: N5_14  and  C7_17 
REMARK   11  A    between atoms: C7_17  and  C8_18 
REMARK   12  A    between atoms: C8_18  and  N6_19 
ROOT
HETATM    1  N4  UNL     1      59.914  38.779  47.309  1.00  0.00    -0.392 N 
ATOM      2  H4  UNL     1      60.223  39.343  48.100  1.00  0.00     0.155 HD
ENDROOT
BRANCH   1   3
HETATM    3  C3  UNL     1      59.621  39.396  46.111  1.00  0.00     0.185 C 
BRANCH   3   4
HETATM    4  C2  UNL     1      60.948  40.035  45.596  1.00  0.00     0.156 C 
BRANCH   4   5
HETATM    5  N3  UNL     1      61.004  39.943  44.168  1.00  0.00    -0.362 N 
HETATM    6  C1  UNL     1      60.758  41.049  43.315  1.00  0.00     0.181 C 
HETATM    7  N1  UNL     1      60.104  40.900  42.194  1.00  0.00    -0.374 N 
HETATM    8  N2  UNL     1      61.244  42.307  43.721  1.00  0.00    -0.064 NA
ATOM      9  H12 UNL     1      59.927  41.696  41.581  1.00  0.00     0.158 HD
ATOM     10  H11 UNL     1      59.751  39.989  41.900  1.00  0.00     0.158 HD
ATOM     11  H3  UNL     1      61.231  39.042  43.746  1.00  0.00     0.162 HD
ENDBRANCH   4   5
ENDBRANCH   3   4
BRANCH   3  12
HETATM   12  C10 UNL     1      58.664  40.517  46.098  1.00  0.00     0.255 C 
HETATM   13  N8  UNL     1      57.892  40.791  44.907  1.00  0.00    -0.060 NA
HETATM   14  O3  UNL     1      58.437  41.296  47.050  1.00  0.00    -0.275 OA
ENDBRANCH   3  12
ENDBRANCH   1   3
BRANCH   1  15
HETATM   15  C4  UNL     1      59.792  37.342  47.464  1.00  0.00     0.206 C 
BRANCH  15  16
HETATM   16  C5  UNL     1      60.492  37.036  48.761  1.00  0.00     0.100 C 
BRANCH  16  17
HETATM   17  N5  UNL     1      59.863  36.256  49.740  1.00  0.00    -0.335 N 
BRANCH  17  18
HETATM   18  C6  UNL     1      58.767  36.691  50.563  1.00  0.00     0.355 C 
HETATM   19  O1  UNL     1      58.186  35.824  51.258  1.00  0.00    -0.283 OA
ENDBRANCH  17  18
BRANCH  17  20
HETATM   20  C7  UNL     1      60.237  34.864  49.951  1.00  0.00     0.157 C 
BRANCH  20  21
HETATM   21  C8  UNL     1      61.455  34.791  50.798  1.00  0.00     0.249 C 
BRANCH  21  22
HETATM   22  N6  UNL     1      61.106  34.845  52.227  1.00  0.00    -0.078 N 
ATOM     23  H63 UNL     1      60.100  34.928  52.367  1.00  0.00     0.274 HD
ATOM     24  H62 UNL     1      61.251  33.945  52.684  1.00  0.00     0.274 HD
ATOM     25  H61 UNL     1      61.615  35.593  52.699  1.00  0.00     0.274 HD
ENDBRANCH  21  22
ENDBRANCH  20  21
ENDBRANCH  17  20
ENDBRANCH  16  17
ENDBRANCH  15  16
BRANCH  15  26
HETATM   26  C9  UNL     1      60.212  36.600  46.288  1.00  0.00     0.258 C 
HETATM   27  N7  UNL     1      59.362  35.844  45.438  1.00  0.00    -0.060 NA
HETATM   28  O2  UNL     1      61.442  36.563  45.894  1.00  0.00    -0.274 OA
ENDBRANCH  15  26
ENDBRANCH   1  15
TORSDOF 12
ENDMDL
MODEL 3
REMARK VINA RESULT: -5.979999224      1.854      2.751
REMARK  12 active torsions:
REMARK  status: ('A' for Active; 'I' for Inactive)
REMARK       I    between atoms: C1_4  and  N3_6 
REMARK    1  A    between atoms: N3_6  and  C2_8 
REMARK    2  A    between atoms: C2_8  and  C3_9 
REMARK    3  A    between atoms: C3_9  and  N4_10 
REMARK    4  A    between atoms: C3_9  and  C10_26 
REMARK    5  A    between atoms: N4_10  and  C4_12 
REMARK    6  A    between atoms: C4_12  and  C5_13 
REMARK    7  A    between atoms: C4_12  and  C9_23 
REMARK    8  A    between atoms: C5_13  and  N5_14 
REMARK    9  A    between atoms: N5_14  and  C6_15 
REMARK   10  A    between atoms: N5_14  and  C7_17 
REMARK   11  A    between atoms: C7_17  and  C8_18 
REMARK   12  A    between atoms: C8_18  and  N6_19 
ROOT
HETATM    1  N4  UNL     1      61.109  38.564  47.140  1.00  0.00    -0.392 N 
ATOM      2  H4  UNL     1      62.090  38.295  47.220  1.00  0.00     0.155 HD
ENDROOT
BRANCH   1   3
HETATM    3  C3  UNL     1      60.784  39.771  46.558  1.00  0.00     0.185 C 
BRANCH   3   4
HETATM    4  C2  UNL     1      59.240  39.941  46.706  1.00  0.00     0.156 C 
BRANCH   4   5
HETATM    5  N3  UNL     1      58.629  39.944  45.410  1.00  0.00    -0.362 N 
HETATM    6  C1  UNL     1      57.794  40.997  44.955  1.00  0.00     0.181 C 
HETATM    7  N1  UNL     1      56.731  40.748  44.238  1.00  0.00    -0.374 N 
HETATM    8  N2  UNL     1      58.154  42.312  45.306  1.00  0.00    -0.064 NA
ATOM      9  H12 UNL     1      56.130  41.505  43.911  1.00  0.00     0.158 HD
ATOM     10  H11 UNL     1      56.471  39.794  43.984  1.00  0.00     0.158 HD
ATOM     11  H3  UNL     1      58.804  39.156  44.787  1.00  0.00     0.162 HD
ENDBRANCH   4   5
ENDBRANCH   3   4
BRANCH   3  12
HETATM   12  C10 UNL     1      61.020  39.959  45.116  1.00  0.00     0.255 C 
HETATM   13  N8  UNL     1      61.343  41.271  44.604  1.00  0.00    -0.060 NA
HETATM   14  O3  UNL     1      60.968  39.063  44.244  1.00  0.00    -0.275 OA
ENDBRANCH   3  12
ENDBRANCH   1   3
BRANCH   1  15
HETATM   15  C4  UNL     1      60.083  37.669  47.640  1.00  0.00     0.206 C 
BRANCH  15  16
HETATM   16  C5  UNL     1      60.639  37.136  48.934  1.00  0.00     0.100 C 
BRANCH  16  17
HETATM   17  N5  UNL     1      59.867  36.289  49.742  1.00  0.00    -0.335 N 
BRANCH  17  18
HETATM   18  C6  UNL     1      58.720  36.698  50.506  1.00  0.00     0.355 C 
HETATM   19  O1  UNL     1      58.132  35.820  51.182  1.00  0.00    -0.283 OA
ENDBRANCH  17  18
BRANCH  17  20
HETATM   20  C7  UNL     1      60.135  34.859  49.808  1.00  0.00     0.157 C 
BRANCH  20  21
HETATM   21  C8  UNL     1      61.345  34.610  50.634  1.00  0.00     0.249 C 
BRANCH  21  22
HETATM   22  N6  UNL     1      61.030  34.697  52.069  1.00  0.00    -0.078 N 
ATOM     23  H63 UNL     1      60.122  34.285  52.281  1.00  0.00     0.274 HD
ATOM     24  H62 UNL     1      61.616  34.072  52.622  1.00  0.00     0.274 HD
ATOM     25  H61 UNL     1      61.092  35.661  52.398  1.00  0.00     0.274 HD
ENDBRANCH  21  22
ENDBRANCH  20  21
ENDBRANCH  17  20
ENDBRANCH  16  17
ENDBRANCH  15  16
BRANCH  15  26
HETATM   26  C9  UNL     1      59.637  36.699  46.656  1.00  0.00     0.258 C 
HETATM   27  N7  UNL     1      58.543  36.864  45.767  1.00  0.00    -0.060 NA
HETATM   28  O2  UNL     1      60.222  35.558  46.494  1.00  0.00    -0.274 OA
ENDBRANCH  15  26
ENDBRANCH   1  15
TORSDOF 12
ENDMDL
MODEL 4
REMARK VINA RESULT: -5.973580088      2.623      6.954
REMARK  12 active torsions:
REMARK  status: ('A' for Active; 'I' for Inactive)
REMARK       I    between atoms: C1_4  and  N3_6 
REMARK    1  A    between atoms: N3_6  and  C2_8 
REMARK    2  A    between atoms: C2_8  and  C3_9 
REMARK    3  A    between atoms: C3_9  and  N4_10 
REMARK    4  A    between atoms: C3_9  and  C10_26 
REMARK    5  A    between atoms: N4_10  and  C4_12 
REMARK    6  A    between atoms: C4_12  and  C5_13 
REMARK    7  A    between atoms: C4_12  and  C9_23 
REMARK    8  A    between atoms: C5_13  and  N5_14 
REMARK    9  A    between atoms: N5_14  and  C6_15 
REMARK   10  A    between atoms: N5_14  and  C7_17 
REMARK   11  A    between atoms: C7_17  and  C8_18 
REMARK   12  A    between atoms: C8_18  and  N6_19 
ROOT
HETATM    1  N4  UNL     1      60.245  38.959  46.294  1.00  0.00    -0.392 N 
ATOM      2  H4  UNL     1      61.044  39.281  46.839  1.00  0.00     0.155 HD
ENDROOT
BRANCH   1   3
HETATM    3  C3  UNL     1      59.719  37.708  46.539  1.00  0.00     0.185 C 
BRANCH   3   4
HETATM    4  C2  UNL     1      60.281  37.245  47.920  1.00  0.00     0.156 C 
BRANCH   4   5
HETATM    5  N3  UNL     1      60.286  35.814  47.982  1.00  0.00    -0.362 N 
HETATM    6  C1  UNL     1      59.860  35.093  49.127  1.00  0.00     0.181 C 
HETATM    7  N1  UNL     1      60.483  34.009  49.507  1.00  0.00    -0.374 N 
HETATM    8  N2  UNL     1      58.746  35.587  49.832  1.00  0.00    -0.064 NA
ATOM      9  H12 UNL     1      60.176  33.490  50.331  1.00  0.00     0.158 HD
ATOM     10  H11 UNL     1      61.290  33.651  48.996  1.00  0.00     0.158 HD
ATOM     11  H3  UNL     1      60.609  35.292  47.168  1.00  0.00     0.162 HD
ENDBRANCH   4   5
ENDBRANCH   3   4
BRANCH   3  12
HETATM   12  C10 UNL     1      60.058  36.596  45.633  1.00  0.00     0.255 C 
HETATM   13  N8  UNL     1      61.430  36.394  45.224  1.00  0.00    -0.060 NA
HETATM   14  O3  UNL     1      59.250  35.770  45.155  1.00  0.00    -0.275 OA
ENDBRANCH   3  12
ENDBRANCH   1   3
BRANCH   1  15
HETATM   15  C4  UNL     1      59.683  39.824  45.275  1.00  0.00     0.206 C 
BRANCH  15  16
HETATM   16  C5  UNL     1      60.868  40.285  44.469  1.00  0.00     0.100 C 
BRANCH  16  17
HETATM   17  N5  UNL     1      60.686  40.832  43.191  1.00  0.00    -0.335 N 
BRANCH  17  18
HETATM   18  C6  UNL     1      59.745  40.353  42.215  1.00  0.00     0.355 C 
HETATM   19  O1  UNL     1      60.093  40.389  41.011  1.00  0.00    -0.283 OA
ENDBRANCH  17  18
BRANCH  17  20
HETATM   20  C7  UNL     1      61.413  42.021  42.769  1.00  0.00     0.157 C 
BRANCH  20  21
HETATM   21  C8  UNL     1      60.606  43.235  43.054  1.00  0.00     0.249 C 
BRANCH  21  22
HETATM   22  N6  UNL     1      61.418  44.454  42.909  1.00  0.00    -0.078 N 
ATOM     23  H63 UNL     1      61.328  45.066  43.719  1.00  0.00     0.274 HD
ATOM     24  H62 UNL     1      62.415  44.252  42.979  1.00  0.00     0.274 HD
ATOM     25  H61 UNL     1      61.192  44.942  42.042  1.00  0.00     0.274 HD
ENDBRANCH  21  22
ENDBRANCH  20  21
ENDBRANCH  17  20
ENDBRANCH  16  17
ENDBRANCH  15  16
BRANCH  15  26
HETATM   26  C9  UNL     1      58.802  40.847  45.811  1.00  0.00     0.258 C 
HETATM   27  N7  UNL     1      58.015  41.747  45.045  1.00  0.00    -0.060 NA
HETATM   28  O2  UNL     1      58.648  41.033  47.081  1.00  0.00    -0.274 OA
ENDBRANCH  15  26
ENDBRANCH   1  15
TORSDOF 12
ENDMDL
MODEL 5
REMARK VINA RESULT: -5.969755310      2.613      6.432
REMARK  12 active torsions:
REMARK  status: ('A' for Active; 'I' for Inactive)
REMARK       I    between atoms: C1_4  and  N3_6 
REMARK    1  A    between atoms: N3_6  and  C2_8 
REMARK    2  A    between atoms: C2_8  and  C3_9 
REMARK    3  A    between atoms: C3_9  and  N4_10 
REMARK    4  A    between atoms: C3_9  and  C10_26 
REMARK    5  A    between atoms: N4_10  and  C4_12 
REMARK    6  A    between atoms: C4_12  and  C5_13 
REMARK    7  A    between atoms: C4_12  and  C9_23 
REMARK    8  A    between atoms: C5_13  and  N5_14 
REMARK    9  A    between atoms: N5_14  and  C6_15 
REMARK   10  A    between atoms: N5_14  and  C7_17 
REMARK   11  A    between atoms: C7_17  and  C8_18 
REMARK   12  A    between atoms: C8_18  and  N6_19 
ROOT
HETATM    1  N4  UNL     1      60.739  39.061  46.533  1.00  0.00    -0.392 N 
ATOM      2  H4  UNL     1      61.656  39.115  46.977  1.00  0.00     0.155 HD
ENDROOT
BRANCH   1   3
HETATM    3  C3  UNL     1      60.007  37.897  46.635  1.00  0.00     0.185 C 
BRANCH   3   4
HETATM    4  C2  UNL     1      60.217  37.356  48.083  1.00  0.00     0.156 C 
BRANCH   4   5
HETATM    5  N3  UNL     1      60.282  35.925  48.058  1.00  0.00    -0.362 N 
HETATM    6  C1  UNL     1      59.859  35.116  49.144  1.00  0.00     0.181 C 
HETATM    7  N1  UNL     1      60.518  34.037  49.474  1.00  0.00    -0.374 N 
HETATM    8  N2  UNL     1      58.708  35.520  49.848  1.00  0.00    -0.064 NA
ATOM      9  H12 UNL     1      60.214  33.456  50.255  1.00  0.00     0.158 HD
ATOM     10  H11 UNL     1      61.352  33.746  48.963  1.00  0.00     0.158 HD
ATOM     11  H3  UNL     1      60.647  35.468  47.222  1.00  0.00     0.162 HD
ENDBRANCH   4   5
ENDBRANCH   3   4
BRANCH   3  12
HETATM   12  C10 UNL     1      60.358  36.750  45.778  1.00  0.00     0.255 C 
HETATM   13  N8  UNL     1      59.316  35.905  45.242  1.00  0.00    -0.060 NA
HETATM   14  O3  UNL     1      61.517  36.412  45.449  1.00  0.00    -0.275 OA
ENDBRANCH   3  12
ENDBRANCH   1   3
BRANCH   1  15
HETATM   15  C4  UNL     1      60.231  40.208  45.808  1.00  0.00     0.206 C 
BRANCH  15  16
HETATM   16  C5  UNL     1      58.743  39.986  45.735  1.00  0.00     0.100 C 
BRANCH  16  17
HETATM   17  N5  UNL     1      58.034  40.312  44.571  1.00  0.00    -0.335 N 
BRANCH  17  18
HETATM   18  C6  UNL     1      57.603  41.635  44.211  1.00  0.00     0.355 C 
HETATM   19  O1  UNL     1      57.977  42.584  44.941  1.00  0.00    -0.283 OA
ENDBRANCH  17  18
BRANCH  17  20
HETATM   20  C7  UNL     1      57.736  39.304  43.562  1.00  0.00     0.157 C 
BRANCH  20  21
HETATM   21  C8  UNL     1      57.843  39.900  42.206  1.00  0.00     0.249 C 
BRANCH  21  22
HETATM   22  N6  UNL     1      59.091  39.484  41.545  1.00  0.00    -0.078 N 
ATOM     23  H63 UNL     1      59.663  40.287  41.281  1.00  0.00     0.274 HD
ATOM     24  H62 UNL     1      59.736  39.045  42.202  1.00  0.00     0.274 HD
ATOM     25  H61 UNL     1      58.897  38.881  40.746  1.00  0.00     0.274 HD
ENDBRANCH  21  22
ENDBRANCH  20  21
ENDBRANCH  17  20
ENDBRANCH  16  17
ENDBRANCH  15  16
BRANCH  15  26
HETATM   26  C9  UNL     1      60.930  40.455  44.559  1.00  0.00     0.258 C 
HETATM   27  N7  UNL     1      61.405  41.715  44.111  1.00  0.00    -0.060 NA
HETATM   28  O2  UNL     1      61.195  39.513  43.716  1.00  0.00    -0.274 OA
ENDBRANCH  15  26
ENDBRANCH   1  15
TORSDOF 12
ENDMDL
