MODEL 1
REMARK VINA RESULT: -4.688471440      0.000      0.000
REMARK  5 active torsions:
REMARK  status: ('A' for Active; 'I' for Inactive)
REMARK    1  A    between atoms: N1_1  and  N2_4 
REMARK    2  A    between atoms: N2_4  and  C1_5 
REMARK    3  A    between atoms: C1_5  and  C2_6 
REMARK    4  A    between atoms: C2_6  and  N3_7 
REMARK    5  A    between atoms: N3_7  and  C3_9 
ROOT
HETATM    1  C3  UNL     1      12.216   5.055  23.054  1.00  0.00     0.133 A 
HETATM    2  N4  UNL     1      13.018   6.100  22.822  1.00  0.00    -0.337 N 
ATOM      3  H4  UNL     1      13.015   6.911  23.440  1.00  0.00     0.168 HD
HETATM    4  C4  UNL     1      13.829   6.049  21.750  1.00  0.00     0.183 A 
HETATM    5  N5  UNL     1      13.850   4.993  20.924  1.00  0.00    -0.337 N 
ATOM      6  H5  UNL     1      14.483   5.004  20.125  1.00  0.00     0.168 HD
HETATM    7  C5  UNL     1      13.052   3.910  21.119  1.00  0.00     0.138 A 
HETATM    8  N6  UNL     1      12.869   2.746  20.469  1.00  0.00    -0.337 N 
ATOM      9  H6  UNL     1      13.353   2.446  19.623  1.00  0.00     0.168 HD
HETATM   10  C6  UNL     1      11.927   2.047  21.140  1.00  0.00     0.182 A 
HETATM   11  N7  UNL     1      11.537   2.784  22.195  1.00  0.00    -0.346 N 
ATOM     12  H7  UNL     1      10.834   2.505  22.879  1.00  0.00     0.167 HD
HETATM   13  C7  UNL     1      12.222   3.954  22.210  1.00  0.00     0.122 A 
ENDROOT
BRANCH   1  14
HETATM   14  N3  UNL     1      11.425   5.034  24.044  1.00  0.00    -0.373 N 
ATOM     15  H3  UNL     1      11.759   4.556  24.881  1.00  0.00     0.161 HD
BRANCH  14  16
HETATM   16  C2  UNL     1      10.118   5.604  24.117  1.00  0.00     0.139 C 
BRANCH  16  17
HETATM   17  C1  UNL     1      10.091   6.918  24.856  1.00  0.00     0.153 C 
BRANCH  17  18
HETATM   18  N2  UNL     1      10.426   8.035  24.007  1.00  0.00    -0.147 NA
BRANCH  18  19
HETATM   19  N1  UNL     1      11.476   8.787  24.475  1.00  0.00    -0.348 N 
ATOM     20  H12 UNL     1      11.599   8.994  25.467  1.00  0.00     0.172 HD
ATOM     21  H11 UNL     1      12.107   9.110  23.742  1.00  0.00     0.172 HD
ENDBRANCH  18  19
ENDBRANCH  17  18
ENDBRANCH  16  17
ENDBRANCH  14  16
ENDBRANCH   1  14
TORSDOF 5
ENDMDL
MODEL 2
REMARK VINA RESULT: -4.549356576      0.995      1.289
REMARK  5 active torsions:
REMARK  status: ('A' for Active; 'I' for Inactive)
REMARK    1  A    between atoms: N1_1  and  N2_4 
REMARK    2  A    between atoms: N2_4  and  C1_5 
REMARK    3  A    between atoms: C1_5  and  C2_6 
REMARK    4  A    between atoms: C2_6  and  N3_7 
REMARK    5  A    between atoms: N3_7  and  C3_9 
ROOT
HETATM    1  C3  UNL     1      12.569   5.178  22.711  1.00  0.00     0.133 A 
HETATM    2  N4  UNL     1      13.472   6.104  22.373  1.00  0.00    -0.337 N 
ATOM      3  H4  UNL     1      13.565   6.966  22.909  1.00  0.00     0.168 HD
HETATM    4  C4  UNL     1      14.253   5.866  21.303  1.00  0.00     0.183 A 
HETATM    5  N5  UNL     1      14.148   4.740  20.584  1.00  0.00    -0.337 N 
ATOM      6  H5  UNL     1      14.763   4.607  19.782  1.00  0.00     0.168 HD
HETATM    7  C5  UNL     1      13.245   3.771  20.890  1.00  0.00     0.138 A 
HETATM    8  N6  UNL     1      12.929   2.575  20.357  1.00  0.00    -0.337 N 
ATOM      9  H6  UNL     1      13.364   2.146  19.541  1.00  0.00     0.168 HD
HETATM   10  C6  UNL     1      11.932   2.047  21.101  1.00  0.00     0.182 A 
HETATM   11  N7  UNL     1      11.641   2.919  22.082  1.00  0.00    -0.346 N 
ATOM     12  H7  UNL     1      10.926   2.783  22.796  1.00  0.00     0.167 HD
HETATM   13  C7  UNL     1      12.445   4.006  21.978  1.00  0.00     0.122 A 
ENDROOT
BRANCH   1  14
HETATM   14  N3  UNL     1      11.799   5.334  23.705  1.00  0.00    -0.373 N 
ATOM     15  H3  UNL     1      11.485   4.484  24.174  1.00  0.00     0.161 HD
BRANCH  14  16
HETATM   16  C2  UNL     1      11.321   6.569  24.241  1.00  0.00     0.139 C 
BRANCH  16  17
HETATM   17  C1  UNL     1       9.844   6.545  24.543  1.00  0.00     0.153 C 
BRANCH  17  18
HETATM   18  N2  UNL     1       9.121   7.578  23.842  1.00  0.00    -0.147 NA
BRANCH  18  19
HETATM   19  N1  UNL     1       7.844   7.212  23.487  1.00  0.00    -0.348 N 
ATOM     20  H12 UNL     1       7.494   6.262  23.613  1.00  0.00     0.172 HD
ATOM     21  H11 UNL     1       7.295   7.976  23.092  1.00  0.00     0.172 HD
ENDBRANCH  18  19
ENDBRANCH  17  18
ENDBRANCH  16  17
ENDBRANCH  14  16
ENDBRANCH   1  14
TORSDOF 5
ENDMDL
MODEL 3
REMARK VINA RESULT: -4.497586962      4.715      7.806
REMARK  5 active torsions:
REMARK  status: ('A' for Active; 'I' for Inactive)
REMARK    1  A    between atoms: N1_1  and  N2_4 
REMARK    2  A    between atoms: N2_4  and  C1_5 
REMARK    3  A    between atoms: C1_5  and  C2_6 
REMARK    4  A    between atoms: C2_6  and  N3_7 
REMARK    5  A    between atoms: N3_7  and  C3_9 
ROOT
HETATM    1  C3  UNL     1       5.961   7.678  22.408  1.00  0.00     0.133 A 
HETATM    2  N4  UNL     1       5.076   7.986  21.455  1.00  0.00    -0.337 N 
ATOM      3  H4  UNL     1       5.049   7.468  20.577  1.00  0.00     0.168 HD
HETATM    4  C4  UNL     1       4.222   8.999  21.688  1.00  0.00     0.183 A 
HETATM    5  N5  UNL     1       4.240   9.694  22.834  1.00  0.00    -0.337 N 
ATOM      6  H5  UNL     1       3.571  10.453  22.962  1.00  0.00     0.168 HD
HETATM    7  C5  UNL     1       5.121   9.417  23.830  1.00  0.00     0.138 A 
HETATM    8  N6  UNL     1       5.358   9.936  25.050  1.00  0.00    -0.337 N 
ATOM      9  H6  UNL     1       4.858  10.713  25.481  1.00  0.00     0.168 HD
HETATM   10  C6  UNL     1       6.378   9.240  25.599  1.00  0.00     0.182 A 
HETATM   11  N7  UNL     1       6.762   8.301  24.717  1.00  0.00    -0.346 N 
ATOM     12  H7  UNL     1       7.514   7.628  24.863  1.00  0.00     0.167 HD
HETATM   13  C7  UNL     1       5.996   8.386  23.601  1.00  0.00     0.122 A 
ENDROOT
BRANCH   1  14
HETATM   14  N3  UNL     1       6.797   6.737  22.258  1.00  0.00    -0.373 N 
ATOM     15  H3  UNL     1       7.604   6.937  21.667  1.00  0.00     0.161 HD
BRANCH  14  16
HETATM   16  C2  UNL     1       6.733   5.427  22.824  1.00  0.00     0.139 C 
BRANCH  16  17
HETATM   17  C1  UNL     1       7.920   5.108  23.697  1.00  0.00     0.153 C 
BRANCH  17  18
HETATM   18  N2  UNL     1       8.943   6.122  23.631  1.00  0.00    -0.147 NA
BRANCH  18  19
HETATM   19  N1  UNL     1      10.115   5.763  24.254  1.00  0.00    -0.348 N 
ATOM     20  H12 UNL     1      10.133   5.160  25.077  1.00  0.00     0.172 HD
ATOM     21  H11 UNL     1      10.948   6.155  23.815  1.00  0.00     0.172 HD
ENDBRANCH  18  19
ENDBRANCH  17  18
ENDBRANCH  16  17
ENDBRANCH  14  16
ENDBRANCH   1  14
TORSDOF 5
ENDMDL
MODEL 4
REMARK VINA RESULT: -4.497188775      0.803      2.477
REMARK  5 active torsions:
REMARK  status: ('A' for Active; 'I' for Inactive)
REMARK    1  A    between atoms: N1_1  and  N2_4 
REMARK    2  A    between atoms: N2_4  and  C1_5 
REMARK    3  A    between atoms: C1_5  and  C2_6 
REMARK    4  A    between atoms: C2_6  and  N3_7 
REMARK    5  A    between atoms: N3_7  and  C3_9 
ROOT
HETATM    1  C3  UNL     1      11.923   3.743  22.725  1.00  0.00     0.133 A 
HETATM    2  N4  UNL     1      11.459   2.537  22.380  1.00  0.00    -0.337 N 
ATOM      3  H4  UNL     1      10.792   2.042  22.972  1.00  0.00     0.168 HD
HETATM    4  C4  UNL     1      11.898   1.995  21.230  1.00  0.00     0.183 A 
HETATM    5  N5  UNL     1      12.775   2.627  20.436  1.00  0.00    -0.337 N 
ATOM      6  H5  UNL     1      13.077   2.174  19.574  1.00  0.00     0.168 HD
HETATM    7  C5  UNL     1      13.273   3.853  20.746  1.00  0.00     0.138 A 
HETATM    8  N6  UNL     1      14.141   4.695  20.153  1.00  0.00    -0.337 N 
ATOM      9  H6  UNL     1      14.626   4.536  19.270  1.00  0.00     0.168 HD
HETATM   10  C6  UNL     1      14.253   5.787  20.940  1.00  0.00     0.182 A 
HETATM   11  N7  UNL     1      13.458   5.611  22.009  1.00  0.00    -0.346 N 
ATOM     12  H7  UNL     1      13.342   6.277  22.773  1.00  0.00     0.167 HD
HETATM   13  C7  UNL     1      12.831   4.412  21.918  1.00  0.00     0.122 A 
ENDROOT
BRANCH   1  14
HETATM   14  N3  UNL     1      11.555   4.314  23.795  1.00  0.00    -0.373 N 
ATOM     15  H3  UNL     1      12.187   4.235  24.592  1.00  0.00     0.161 HD
BRANCH  14  16
HETATM   16  C2  UNL     1      10.353   5.055  24.009  1.00  0.00     0.139 C 
BRANCH  16  17
HETATM   17  C1  UNL     1      10.599   6.399  24.648  1.00  0.00     0.153 C 
BRANCH  17  18
HETATM   18  N2  UNL     1      11.574   7.181  23.929  1.00  0.00    -0.147 NA
BRANCH  18  19
HETATM   19  N1  UNL     1      11.686   8.474  24.385  1.00  0.00    -0.348 N 
ATOM     20  H12 UNL     1      12.582   8.960  24.430  1.00  0.00     0.172 HD
ATOM     21  H11 UNL     1      10.797   8.886  24.667  1.00  0.00     0.172 HD
ENDBRANCH  18  19
ENDBRANCH  17  18
ENDBRANCH  16  17
ENDBRANCH  14  16
ENDBRANCH   1  14
TORSDOF 5
ENDMDL
MODEL 5
REMARK VINA RESULT: -4.456673500      5.437      7.128
REMARK  5 active torsions:
REMARK  status: ('A' for Active; 'I' for Inactive)
REMARK    1  A    between atoms: N1_1  and  N2_4 
REMARK    2  A    between atoms: N2_4  and  C1_5 
REMARK    3  A    between atoms: C1_5  and  C2_6 
REMARK    4  A    between atoms: C2_6  and  N3_7 
REMARK    5  A    between atoms: N3_7  and  C3_9 
ROOT
HETATM    1  C3  UNL     1       6.598   8.467  24.692  1.00  0.00     0.133 A 
HETATM    2  N4  UNL     1       7.614   7.599  24.711  1.00  0.00    -0.337 N 
ATOM      3  H4  UNL     1       8.204   7.499  25.538  1.00  0.00     0.168 HD
HETATM    4  C4  UNL     1       7.837   6.861  23.609  1.00  0.00     0.183 A 
HETATM    5  N5  UNL     1       7.076   6.976  22.511  1.00  0.00    -0.337 N 
ATOM      6  H5  UNL     1       7.287   6.394  21.701  1.00  0.00     0.168 HD
HETATM    7  C5  UNL     1       6.033   7.844  22.446  1.00  0.00     0.138 A 
HETATM    8  N6  UNL     1       5.127   8.160  21.500  1.00  0.00    -0.337 N 
ATOM      9  H6  UNL     1       5.065   7.754  20.567  1.00  0.00     0.168 HD
HETATM   10  C6  UNL     1       4.317   9.113  22.012  1.00  0.00     0.182 A 
HETATM   11  N7  UNL     1       4.729   9.377  23.265  1.00  0.00    -0.346 N 
ATOM     12  H7  UNL     1       4.301  10.058  23.893  1.00  0.00     0.167 HD
HETATM   13  C7  UNL     1       5.799   8.601  23.565  1.00  0.00     0.122 A 
ENDROOT
BRANCH   1  14
HETATM   14  N3  UNL     1       6.329   9.196  25.694  1.00  0.00    -0.373 N 
ATOM     15  H3  UNL     1       5.435   9.688  25.670  1.00  0.00     0.161 HD
BRANCH  14  16
HETATM   16  C2  UNL     1       7.138   9.404  26.852  1.00  0.00     0.139 C 
BRANCH  16  17
HETATM   17  C1  UNL     1       8.103  10.552  26.695  1.00  0.00     0.153 C 
BRANCH  17  18
HETATM   18  N2  UNL     1       9.369  10.136  26.142  1.00  0.00    -0.147 NA
BRANCH  18  19
HETATM   19  N1  UNL     1      10.333  11.115  26.178  1.00  0.00    -0.348 N 
ATOM     20  H12 UNL     1      10.372  11.869  25.492  1.00  0.00     0.172 HD
ATOM     21  H11 UNL     1      10.993  11.010  26.949  1.00  0.00     0.172 HD
ENDBRANCH  18  19
ENDBRANCH  17  18
ENDBRANCH  16  17
ENDBRANCH  14  16
ENDBRANCH   1  14
TORSDOF 5
ENDMDL
