MODEL 1
REMARK VINA RESULT: -5.712405002      0.000      0.000
REMARK  6 active torsions:
REMARK  status: ('A' for Active; 'I' for Inactive)
REMARK    1  A    between atoms: N1_1  and  C1_4 
REMARK    2  A    between atoms: C2_10  and  C3_11 
REMARK    3  A    between atoms: C3_11  and  N4_12 
REMARK    4  A    between atoms: C3_11  and  C4_16 
REMARK    5  A    between atoms: C4_16  and  C5_17 
REMARK    6  A    between atoms: C5_17  and  N5_18 
ROOT
HETATM    1  C3  UNL     1       3.109   2.508   5.846  1.00  0.00     0.240 C 
ENDROOT
BRANCH   1   2
HETATM    2  C2  UNL     1       2.041   3.523   6.040  1.00  0.00     0.110 A 
HETATM    3  C1  UNL     1       2.159   4.800   6.552  1.00  0.00     0.148 A 
HETATM    4  N2  UNL     1       0.921   5.379   6.549  1.00  0.00    -0.224 N 
HETATM    5  O1  UNL     1       0.107   4.496   6.063  1.00  0.00    -0.155 OA
ATOM      6  H2  UNL     1       0.685   6.319   6.867  1.00  0.00     0.198 HD
HETATM    7  N3  UNL     1       0.720   3.406   5.756  1.00  0.00    -0.240 N 
ATOM      8  H3  UNL     1       0.277   2.578   5.357  1.00  0.00     0.196 HD
BRANCH   3   9
HETATM    9  N1  UNL     1       3.234   5.372   6.966  1.00  0.00    -0.382 N 
ATOM     10  H12 UNL     1       3.672   6.209   6.580  1.00  0.00     0.157 HD
ATOM     11  H11 UNL     1       3.798   5.051   7.753  1.00  0.00     0.157 HD
ENDBRANCH   3   9
ENDBRANCH   1   2
BRANCH   1  12
HETATM   12  N4  UNL     1       2.724   1.464   4.914  1.00  0.00    -0.069 N 
ATOM     13  H43 UNL     1       1.727   1.510   4.706  1.00  0.00     0.275 HD
ATOM     14  H42 UNL     1       3.096   1.649   3.983  1.00  0.00     0.275 HD
ATOM     15  H41 UNL     1       2.989   0.534   5.236  1.00  0.00     0.275 HD
ENDBRANCH   1  12
BRANCH   1  16
HETATM   16  C4  UNL     1       3.482   1.847   7.152  1.00  0.00     0.066 C 
BRANCH  16  17
HETATM   17  C5  UNL     1       4.914   2.110   7.511  1.00  0.00     0.232 C 
BRANCH  17  18
HETATM   18  N5  UNL     1       5.285   1.289   8.644  1.00  0.00    -0.079 N 
ATOM     19  H53 UNL     1       5.307   1.820   9.515  1.00  0.00     0.274 HD
ATOM     20  H52 UNL     1       4.552   0.626   8.896  1.00  0.00     0.274 HD
ATOM     21  H51 UNL     1       6.174   0.826   8.451  1.00  0.00     0.274 HD
ENDBRANCH  17  18
ENDBRANCH  16  17
ENDBRANCH   1  16
TORSDOF 6
ENDMDL
MODEL 2
REMARK VINA RESULT: -5.668966822      1.933      3.691
REMARK  6 active torsions:
REMARK  status: ('A' for Active; 'I' for Inactive)
REMARK    1  A    between atoms: N1_1  and  C1_4 
REMARK    2  A    between atoms: C2_10  and  C3_11 
REMARK    3  A    between atoms: C3_11  and  N4_12 
REMARK    4  A    between atoms: C3_11  and  C4_16 
REMARK    5  A    between atoms: C4_16  and  C5_17 
REMARK    6  A    between atoms: C5_17  and  N5_18 
ROOT
HETATM    1  C3  UNL     1       2.044   3.495   6.437  1.00  0.00     0.240 C 
ENDROOT
BRANCH   1   2
HETATM    2  C2  UNL     1       2.623   2.224   5.930  1.00  0.00     0.110 A 
HETATM    3  C1  UNL     1       3.360   1.284   6.622  1.00  0.00     0.148 A 
HETATM    4  N2  UNL     1       3.688   0.277   5.759  1.00  0.00    -0.224 N 
HETATM    5  O1  UNL     1       3.176   0.597   4.613  1.00  0.00    -0.155 OA
ATOM      6  H2  UNL     1       4.229  -0.561   5.974  1.00  0.00     0.198 HD
HETATM    7  N3  UNL     1       2.551   1.721   4.672  1.00  0.00    -0.240 N 
ATOM      8  H3  UNL     1       2.072   2.166   3.889  1.00  0.00     0.196 HD
BRANCH   3   9
HETATM    9  N1  UNL     1       3.693   1.322   7.864  1.00  0.00    -0.382 N 
ATOM     10  H12 UNL     1       4.559   1.692   8.256  1.00  0.00     0.157 HD
ATOM     11  H11 UNL     1       3.116   0.980   8.631  1.00  0.00     0.157 HD
ENDBRANCH   3   9
ENDBRANCH   1   2
BRANCH   1  12
HETATM   12  N4  UNL     1       0.713   3.748   5.921  1.00  0.00    -0.069 N 
ATOM     13  H43 UNL     1       0.721   4.513   5.246  1.00  0.00     0.275 HD
ATOM     14  H42 UNL     1       0.407   2.991   5.309  1.00  0.00     0.275 HD
ATOM     15  H41 UNL     1       0.030   3.919   6.659  1.00  0.00     0.275 HD
ENDBRANCH   1  12
BRANCH   1  16
HETATM   16  C4  UNL     1       2.912   4.677   6.076  1.00  0.00     0.066 C 
BRANCH  16  17
HETATM   17  C5  UNL     1       4.107   4.778   6.976  1.00  0.00     0.232 C 
BRANCH  17  18
HETATM   18  N5  UNL     1       3.681   5.195   8.295  1.00  0.00    -0.079 N 
ATOM     19  H53 UNL     1       2.809   5.722   8.271  1.00  0.00     0.274 HD
ATOM     20  H52 UNL     1       3.361   4.411   8.864  1.00  0.00     0.274 HD
ATOM     21  H51 UNL     1       4.434   5.715   8.746  1.00  0.00     0.274 HD
ENDBRANCH  17  18
ENDBRANCH  16  17
ENDBRANCH   1  16
TORSDOF 6
ENDMDL
MODEL 3
REMARK VINA RESULT: -5.561803065      1.275      2.418
REMARK  6 active torsions:
REMARK  status: ('A' for Active; 'I' for Inactive)
REMARK    1  A    between atoms: N1_1  and  C1_4 
REMARK    2  A    between atoms: C2_10  and  C3_11 
REMARK    3  A    between atoms: C3_11  and  N4_12 
REMARK    4  A    between atoms: C3_11  and  C4_16 
REMARK    5  A    between atoms: C4_16  and  C5_17 
REMARK    6  A    between atoms: C5_17  and  N5_18 
ROOT
HETATM    1  C3  UNL     1       3.462   4.362   7.333  1.00  0.00     0.240 C 
ENDROOT
BRANCH   1   2
HETATM    2  C2  UNL     1       2.186   4.598   6.610  1.00  0.00     0.110 A 
HETATM    3  C1  UNL     1       1.265   3.666   6.173  1.00  0.00     0.148 A 
HETATM    4  N2  UNL     1       0.243   4.331   5.556  1.00  0.00    -0.224 N 
HETATM    5  O1  UNL     1       0.537   5.592   5.619  1.00  0.00    -0.155 OA
ATOM      6  H2  UNL     1      -0.586   3.917   5.129  1.00  0.00     0.198 HD
HETATM    7  N3  UNL     1       1.657   5.786   6.223  1.00  0.00    -0.240 N 
ATOM      8  H3  UNL     1       2.083   6.699   6.387  1.00  0.00     0.196 HD
BRANCH   3   9
HETATM    9  N1  UNL     1       1.331   2.390   6.312  1.00  0.00    -0.382 N 
ATOM     10  H12 UNL     1       1.598   1.876   7.151  1.00  0.00     0.157 HD
ATOM     11  H11 UNL     1       1.117   1.714   5.578  1.00  0.00     0.157 HD
ENDBRANCH   3   9
ENDBRANCH   1   2
BRANCH   1  12
HETATM   12  N4  UNL     1       4.244   5.572   7.498  1.00  0.00    -0.069 N 
ATOM     13  H43 UNL     1       4.260   6.117   6.636  1.00  0.00     0.275 HD
ATOM     14  H42 UNL     1       3.765   6.238   8.105  1.00  0.00     0.275 HD
ATOM     15  H41 UNL     1       5.189   5.387   7.832  1.00  0.00     0.275 HD
ENDBRANCH   1  12
BRANCH   1  16
HETATM   16  C4  UNL     1       4.323   3.350   6.612  1.00  0.00     0.066 C 
BRANCH  16  17
HETATM   17  C5  UNL     1       5.039   2.452   7.575  1.00  0.00     0.232 C 
BRANCH  17  18
HETATM   18  N5  UNL     1       4.154   1.383   7.987  1.00  0.00    -0.079 N 
ATOM     19  H53 UNL     1       3.195   1.705   8.117  1.00  0.00     0.274 HD
ATOM     20  H52 UNL     1       3.982   0.715   7.236  1.00  0.00     0.274 HD
ATOM     21  H51 UNL     1       4.528   0.936   8.824  1.00  0.00     0.274 HD
ENDBRANCH  17  18
ENDBRANCH  16  17
ENDBRANCH   1  16
TORSDOF 6
ENDMDL
MODEL 4
REMARK VINA RESULT: -5.551048102      1.416      1.966
REMARK  6 active torsions:
REMARK  status: ('A' for Active; 'I' for Inactive)
REMARK    1  A    between atoms: N1_1  and  C1_4 
REMARK    2  A    between atoms: C2_10  and  C3_11 
REMARK    3  A    between atoms: C3_11  and  N4_12 
REMARK    4  A    between atoms: C3_11  and  C4_16 
REMARK    5  A    between atoms: C4_16  and  C5_17 
REMARK    6  A    between atoms: C5_17  and  N5_18 
ROOT
HETATM    1  C3  UNL     1       2.540   2.290   5.999  1.00  0.00     0.240 C 
ENDROOT
BRANCH   1   2
HETATM    2  C2  UNL     1       2.386   3.762   6.139  1.00  0.00     0.110 A 
HETATM    3  C1  UNL     1       1.233   4.515   6.033  1.00  0.00     0.148 A 
HETATM    4  N2  UNL     1       1.560   5.827   6.233  1.00  0.00    -0.224 N 
HETATM    5  O1  UNL     1       2.838   5.857   6.445  1.00  0.00    -0.155 OA
ATOM      6  H2  UNL     1       0.924   6.624   6.217  1.00  0.00     0.198 HD
HETATM    7  N3  UNL     1       3.353   4.678   6.398  1.00  0.00    -0.240 N 
ATOM      8  H3  UNL     1       4.340   4.464   6.536  1.00  0.00     0.196 HD
BRANCH   3   9
HETATM    9  N1  UNL     1       0.047   4.083   5.792  1.00  0.00    -0.382 N 
ATOM     10  H12 UNL     1      -0.832   4.572   5.967  1.00  0.00     0.157 HD
ATOM     11  H11 UNL     1      -0.170   3.174   5.384  1.00  0.00     0.157 HD
ENDBRANCH   3   9
ENDBRANCH   1   2
BRANCH   1  12
HETATM   12  N4  UNL     1       1.712   1.551   6.933  1.00  0.00    -0.069 N 
ATOM     13  H43 UNL     1       1.581   2.074   7.798  1.00  0.00     0.275 HD
ATOM     14  H42 UNL     1       0.744   1.513   6.614  1.00  0.00     0.275 HD
ATOM     15  H41 UNL     1       2.072   0.616   7.121  1.00  0.00     0.275 HD
ENDBRANCH   1  12
BRANCH   1  16
HETATM   16  C4  UNL     1       3.973   1.865   6.214  1.00  0.00     0.066 C 
BRANCH  16  17
HETATM   17  C5  UNL     1       4.212   1.436   7.631  1.00  0.00     0.232 C 
BRANCH  17  18
HETATM   18  N5  UNL     1       5.197   2.306   8.238  1.00  0.00    -0.079 N 
ATOM     19  H53 UNL     1       6.151   2.015   8.029  1.00  0.00     0.274 HD
ATOM     20  H52 UNL     1       5.225   3.224   7.795  1.00  0.00     0.274 HD
ATOM     21  H51 UNL     1       5.023   2.368   9.241  1.00  0.00     0.274 HD
ENDBRANCH  17  18
ENDBRANCH  16  17
ENDBRANCH   1  16
TORSDOF 6
ENDMDL
MODEL 5
REMARK VINA RESULT: -5.417148515      1.608      2.511
REMARK  6 active torsions:
REMARK  status: ('A' for Active; 'I' for Inactive)
REMARK    1  A    between atoms: N1_1  and  C1_4 
REMARK    2  A    between atoms: C2_10  and  C3_11 
REMARK    3  A    between atoms: C3_11  and  N4_12 
REMARK    4  A    between atoms: C3_11  and  C4_16 
REMARK    5  A    between atoms: C4_16  and  C5_17 
REMARK    6  A    between atoms: C5_17  and  N5_18 
ROOT
HETATM    1  C3  UNL     1       3.734   3.236   7.239  1.00  0.00     0.240 C 
ENDROOT
BRANCH   1   2
HETATM    2  C2  UNL     1       2.860   4.282   6.648  1.00  0.00     0.110 A 
HETATM    3  C1  UNL     1       1.620   4.127   6.060  1.00  0.00     0.148 A 
HETATM    4  N2  UNL     1       1.182   5.356   5.655  1.00  0.00    -0.224 N 
HETATM    5  O1  UNL     1       2.110   6.200   5.981  1.00  0.00    -0.155 OA
ATOM      6  H2  UNL     1       0.301   5.568   5.187  1.00  0.00     0.198 HD
HETATM    7  N3  UNL     1       3.100   5.614   6.560  1.00  0.00    -0.240 N 
ATOM      8  H3  UNL     1       3.939   6.082   6.901  1.00  0.00     0.196 HD
BRANCH   3   9
HETATM    9  N1  UNL     1       0.966   3.030   5.909  1.00  0.00    -0.382 N 
ATOM     10  H12 UNL     1       0.309   2.805   5.162  1.00  0.00     0.157 HD
ATOM     11  H11 UNL     1       1.027   2.226   6.534  1.00  0.00     0.157 HD
ENDBRANCH   3   9
ENDBRANCH   1   2
BRANCH   1  12
HETATM   12  N4  UNL     1       4.731   3.784   8.139  1.00  0.00    -0.069 N 
ATOM     13  H43 UNL     1       4.814   3.215   8.983  1.00  0.00     0.275 HD
ATOM     14  H42 UNL     1       5.671   3.661   7.764  1.00  0.00     0.275 HD
ATOM     15  H41 UNL     1       4.555   4.761   8.373  1.00  0.00     0.275 HD
ENDBRANCH   1  12
BRANCH   1  16
HETATM   16  C4  UNL     1       4.458   2.455   6.168  1.00  0.00     0.066 C 
BRANCH  16  17
HETATM   17  C5  UNL     1       3.865   1.090   5.986  1.00  0.00     0.232 C 
BRANCH  17  18
HETATM   18  N5  UNL     1       3.230   0.674   7.218  1.00  0.00    -0.079 N 
ATOM     19  H53 UNL     1       3.012   1.463   7.826  1.00  0.00     0.274 HD
ATOM     20  H52 UNL     1       2.279   0.339   7.068  1.00  0.00     0.274 HD
ATOM     21  H51 UNL     1       3.815  -0.021   7.683  1.00  0.00     0.274 HD
ENDBRANCH  17  18
ENDBRANCH  16  17
ENDBRANCH   1  16
TORSDOF 6
ENDMDL
