MODEL 1
REMARK VINA RESULT: -7.810340194      0.000      0.000
REMARK  19 active torsions:
REMARK  status: ('A' for Active; 'I' for Inactive)
REMARK    1  A    between atoms: C2_2  and  O1_3 
REMARK    2  A    between atoms: C2_2  and  C3_5 
REMARK    3  A    between atoms: C3_5  and  C4_7 
REMARK    4  A    between atoms: C4_7  and  C5_8 
REMARK    5  A    between atoms: C4_7  and  C27_39 
REMARK    6  A    between atoms: C5_8  and  C6_9 
REMARK    7  A    between atoms: C6_9  and  O3_10 
REMARK    8  A    between atoms: C6_9  and  C7_12 
REMARK    9  A    between atoms: C12_17  and  O4_18 
REMARK   10  A    between atoms: C14_21  and  C15_22 
REMARK   11  A    between atoms: C15_22  and  O5_23 
REMARK   12  A    between atoms: C15_22  and  C16_25 
REMARK   13  A    between atoms: C16_25  and  C17_26 
REMARK   14  A    between atoms: C17_26  and  C18_27 
REMARK   15  A    between atoms: C18_27  and  O6_29 
REMARK   16  A    between atoms: O6_29  and  C20_30 
REMARK   17  A    between atoms: C27_39  and  C29_41 
REMARK   18  A    between atoms: C29_41  and  C30_43 
REMARK   19  A    between atoms: C32_45  and  C33_47 
ROOT
HETATM    1  C7  UNL     1      20.866  27.029  17.936  1.00  0.00     0.023 C 
HETATM    2  C8  UNL     1      20.222  28.256  17.469  1.00  0.00     0.008 C 
HETATM    3  C9  UNL     1      18.758  28.112  17.857  1.00  0.00     0.006 C 
HETATM    4  C10 UNL     1      18.627  26.783  18.571  1.00  0.00     0.001 C 
HETATM    5  C11 UNL     1      17.266  26.254  18.410  1.00  0.00     0.028 C 
HETATM    6  C12 UNL     1      16.658  25.797  19.705  1.00  0.00     0.123 C 
HETATM    7  C13 UNL     1      15.981  24.513  19.381  1.00  0.00     0.040 C 
HETATM    8  C14 UNL     1      16.737  23.985  18.168  1.00  0.00     0.025 C 
HETATM    9  C21 UNL     1      17.044  25.175  17.381  1.00  0.00    -0.032 C 
HETATM   10  C22 UNL     1      15.867  25.582  16.514  1.00  0.00     0.016 C 
HETATM   11  C23 UNL     1      18.200  25.062  16.431  1.00  0.00     0.011 C 
HETATM   12  C24 UNL     1      19.560  25.042  17.037  1.00  0.00     0.011 C 
HETATM   13  C25 UNL     1      19.793  25.955  18.161  1.00  0.00    -0.034 C 
HETATM   14  C26 UNL     1      20.335  25.118  19.332  1.00  0.00     0.016 C 
ENDROOT
BRANCH   1  15
HETATM   15  C6  UNL     1      22.086  26.520  17.281  1.00  0.00     0.123 C 
BRANCH  15  16
HETATM   16  C5  UNL     1      22.534  27.335  16.113  1.00  0.00     0.045 C 
BRANCH  16  17
HETATM   17  C4  UNL     1      22.917  26.693  14.853  1.00  0.00     0.076 C 
BRANCH  17  18
HETATM   18  C3  UNL     1      24.429  26.522  14.795  1.00  0.00     0.186 C 
HETATM   19  O2  UNL     1      25.071  26.329  15.884  1.00  0.00    -0.290 OA
BRANCH  18  20
HETATM   20  C2  UNL     1      25.193  26.565  13.582  1.00  0.00     0.102 C 
HETATM   21  C1  UNL     1      25.072  27.564  12.738  1.00  0.00     0.054 C 
BRANCH  20  22
HETATM   22  O1  UNL     1      26.082  25.562  13.262  1.00  0.00    -0.358 OA
ATOM     23  H1  UNL     1      25.870  24.679  13.540  1.00  0.00     0.217 HD
ENDBRANCH  20  22
ENDBRANCH  18  20
ENDBRANCH  17  18
BRANCH  17  24
HETATM   24  C27 UNL     1      22.297  25.291  14.697  1.00  0.00     0.063 C 
HETATM   25  C28 UNL     1      23.309  24.206  14.813  1.00  0.00     0.018 C 
BRANCH  24  26
HETATM   26  C29 UNL     1      21.493  25.293  13.474  1.00  0.00     0.137 C 
HETATM   27  O8  UNL     1      21.572  26.225  12.695  1.00  0.00    -0.297 OA
BRANCH  26  28
HETATM   28  C30 UNL     1      20.551  24.184  13.113  1.00  0.00     0.081 A 
HETATM   29  C31 UNL     1      20.037  24.266  11.695  1.00  0.00     0.041 A 
HETATM   30  C32 UNL     1      19.143  24.543  12.856  1.00  0.00     0.051 A 
HETATM   31 CL1  UNL     1      18.583  26.207  13.144  1.00  0.00    -0.118 Cl
BRANCH  30  32
HETATM   32  C33 UNL     1      18.050  23.507  13.087  1.00  0.00     0.002 C 
HETATM   33  C34 UNL     1      18.126  22.470  11.976  1.00  0.00     0.011 C 
HETATM   34  C35 UNL     1      16.692  24.175  13.114  1.00  0.00     0.011 C 
ENDBRANCH  30  32
ENDBRANCH  26  28
ENDBRANCH  24  26
ENDBRANCH  17  24
ENDBRANCH  16  17
ENDBRANCH  15  16
BRANCH  15  35
HETATM   35  O3  UNL     1      23.183  26.669  18.203  1.00  0.00    -0.395 OA
ATOM     36  H3  UNL     1      22.861  26.225  18.978  1.00  0.00     0.210 HD
ENDBRANCH  15  35
ENDBRANCH   1  15
BRANCH   6  37
HETATM   37  O4  UNL     1      15.651  26.676  20.179  1.00  0.00    -0.395 OA
ATOM     38  H4  UNL     1      14.801  26.256  20.254  1.00  0.00     0.210 HD
ENDBRANCH   6  37
BRANCH   8  39
HETATM   39  C15 UNL     1      16.125  22.784  17.588  1.00  0.00     0.123 C 
BRANCH  39  40
HETATM   40  O5  UNL     1      15.223  22.114  18.381  1.00  0.00    -0.395 OA
ATOM     41  H5  UNL     1      14.319  22.122  18.090  1.00  0.00     0.210 HD
ENDBRANCH  39  40
BRANCH  39  42
HETATM   42  C16 UNL     1      17.025  21.784  16.921  1.00  0.00     0.034 C 
BRANCH  42  43
HETATM   43  C17 UNL     1      16.482  21.436  15.517  1.00  0.00     0.035 C 
BRANCH  43  44
HETATM   44  C18 UNL     1      16.503  19.910  15.441  1.00  0.00     0.129 C 
HETATM   45  C19 UNL     1      17.124  19.368  16.710  1.00  0.00     0.040 C 
BRANCH  44  46
HETATM   46  O6  UNL     1      15.200  19.374  15.321  1.00  0.00    -0.301 OA
BRANCH  46  47
HETATM   47  C20 UNL     1      15.058  18.107  14.800  1.00  0.00     0.373 C 
HETATM   48  N1  UNL     1      14.639  16.996  15.612  1.00  0.00    -0.032 NA
HETATM   49  O7  UNL     1      15.300  17.915  13.580  1.00  0.00    -0.242 OA
ENDBRANCH  46  47
ENDBRANCH  44  46
ENDBRANCH  43  44
ENDBRANCH  42  43
ENDBRANCH  39  42
ENDBRANCH   8  39
TORSDOF 19
ENDMDL
MODEL 2
REMARK VINA RESULT: -7.652124030      2.644      5.291
REMARK  19 active torsions:
REMARK  status: ('A' for Active; 'I' for Inactive)
REMARK    1  A    between atoms: C2_2  and  O1_3 
REMARK    2  A    between atoms: C2_2  and  C3_5 
REMARK    3  A    between atoms: C3_5  and  C4_7 
REMARK    4  A    between atoms: C4_7  and  C5_8 
REMARK    5  A    between atoms: C4_7  and  C27_39 
REMARK    6  A    between atoms: C5_8  and  C6_9 
REMARK    7  A    between atoms: C6_9  and  O3_10 
REMARK    8  A    between atoms: C6_9  and  C7_12 
REMARK    9  A    between atoms: C12_17  and  O4_18 
REMARK   10  A    between atoms: C14_21  and  C15_22 
REMARK   11  A    between atoms: C15_22  and  O5_23 
REMARK   12  A    between atoms: C15_22  and  C16_25 
REMARK   13  A    between atoms: C16_25  and  C17_26 
REMARK   14  A    between atoms: C17_26  and  C18_27 
REMARK   15  A    between atoms: C18_27  and  O6_29 
REMARK   16  A    between atoms: O6_29  and  C20_30 
REMARK   17  A    between atoms: C27_39  and  C29_41 
REMARK   18  A    between atoms: C29_41  and  C30_43 
REMARK   19  A    between atoms: C32_45  and  C33_47 
ROOT
HETATM    1  C7  UNL     1      16.564  26.206  18.241  1.00  0.00     0.023 C 
HETATM    2  C8  UNL     1      16.731  27.524  17.629  1.00  0.00     0.008 C 
HETATM    3  C9  UNL     1      16.018  27.435  16.287  1.00  0.00     0.006 C 
HETATM    4  C10 UNL     1      15.436  26.040  16.197  1.00  0.00     0.001 C 
HETATM    5  C11 UNL     1      15.318  25.631  14.791  1.00  0.00     0.028 C 
HETATM    6  C12 UNL     1      13.969  25.061  14.458  1.00  0.00     0.123 C 
HETATM    7  C13 UNL     1      14.252  23.877  13.603  1.00  0.00     0.040 C 
HETATM    8  C14 UNL     1      15.659  23.452  14.003  1.00  0.00     0.025 C 
HETATM    9  C21 UNL     1      16.369  24.706  14.232  1.00  0.00    -0.032 C 
HETATM   10  C22 UNL     1      16.879  25.299  12.932  1.00  0.00     0.016 C 
HETATM   11  C23 UNL     1      17.576  24.632  15.121  1.00  0.00     0.011 C 
HETATM   12  C24 UNL     1      17.322  24.443  16.576  1.00  0.00     0.011 C 
HETATM   13  C25 UNL     1      16.199  25.191  17.150  1.00  0.00    -0.034 C 
HETATM   14  C26 UNL     1      15.288  24.178  17.865  1.00  0.00     0.016 C 
ENDROOT
BRANCH   1  15
HETATM   15  C6  UNL     1      17.544  25.699  19.220  1.00  0.00     0.123 C 
BRANCH  15  16
HETATM   16  C5  UNL     1      18.649  26.655  19.527  1.00  0.00     0.045 C 
BRANCH  16  17
HETATM   17  C4  UNL     1      19.937  26.176  20.034  1.00  0.00     0.076 C 
BRANCH  17  18
HETATM   18  C3  UNL     1      19.803  24.737  20.516  1.00  0.00     0.186 C 
HETATM   19  O2  UNL     1      19.878  23.790  19.660  1.00  0.00    -0.290 OA
BRANCH  18  20
HETATM   20  C2  UNL     1      19.593  24.368  21.886  1.00  0.00     0.102 C 
HETATM   21  C1  UNL     1      20.143  23.286  22.389  1.00  0.00     0.054 C 
BRANCH  20  22
HETATM   22  O1  UNL     1      18.810  25.135  22.721  1.00  0.00    -0.358 OA
ATOM     23  H1  UNL     1      19.246  25.787  23.258  1.00  0.00     0.217 HD
ENDBRANCH  20  22
ENDBRANCH  18  20
ENDBRANCH  17  18
BRANCH  17  24
HETATM   24  C27 UNL     1      21.035  26.191  18.955  1.00  0.00     0.063 C 
HETATM   25  C28 UNL     1      22.393  26.388  19.529  1.00  0.00     0.018 C 
BRANCH  24  26
HETATM   26  C29 UNL     1      20.630  27.143  17.919  1.00  0.00     0.137 C 
HETATM   27  O8  UNL     1      20.613  28.336  18.162  1.00  0.00    -0.297 OA
BRANCH  26  28
HETATM   28  C30 UNL     1      20.222  26.726  16.539  1.00  0.00     0.081 A 
HETATM   29  C31 UNL     1      20.867  25.438  16.082  1.00  0.00     0.041 A 
HETATM   30  C32 UNL     1      21.256  26.749  15.486  1.00  0.00     0.051 A 
HETATM   31 CL1  UNL     1      22.867  27.418  15.838  1.00  0.00    -0.118 Cl
BRANCH  30  32
HETATM   32  C33 UNL     1      20.844  26.941  14.033  1.00  0.00     0.002 C 
HETATM   33  C34 UNL     1      19.510  27.673  14.002  1.00  0.00     0.011 C 
HETATM   34  C35 UNL     1      20.744  25.602  13.334  1.00  0.00     0.011 C 
ENDBRANCH  30  32
ENDBRANCH  26  28
ENDBRANCH  24  26
ENDBRANCH  17  24
ENDBRANCH  16  17
ENDBRANCH  15  16
BRANCH  15  35
HETATM   35  O3  UNL     1      16.880  25.574  20.493  1.00  0.00    -0.395 OA
ATOM     36  H3  UNL     1      17.409  24.921  20.936  1.00  0.00     0.210 HD
ENDBRANCH  15  35
ENDBRANCH   1  15
BRANCH   6  37
HETATM   37  O4  UNL     1      13.177  25.942  13.679  1.00  0.00    -0.395 OA
ATOM     38  H4  UNL     1      12.348  26.156  14.094  1.00  0.00     0.210 HD
ENDBRANCH   6  37
BRANCH   8  39
HETATM   39  C15 UNL     1      16.196  22.378  13.158  1.00  0.00     0.123 C 
BRANCH  39  40
HETATM   40  O5  UNL     1      15.376  21.926  12.152  1.00  0.00    -0.395 OA
ATOM     41  H5  UNL     1      15.690  22.051  11.264  1.00  0.00     0.210 HD
ENDBRANCH  39  40
BRANCH  39  42
HETATM   42  C16 UNL     1      16.835  21.200  13.835  1.00  0.00     0.034 C 
BRANCH  42  43
HETATM   43  C17 UNL     1      15.757  20.342  14.535  1.00  0.00     0.035 C 
BRANCH  43  44
HETATM   44  C18 UNL     1      16.458  19.715  15.739  1.00  0.00     0.129 C 
HETATM   45  C19 UNL     1      16.737  20.797  16.759  1.00  0.00     0.040 C 
BRANCH  44  46
HETATM   46  O6  UNL     1      15.657  18.724  16.352  1.00  0.00    -0.301 OA
BRANCH  46  47
HETATM   47  C20 UNL     1      15.620  17.468  15.786  1.00  0.00     0.373 C 
HETATM   48  N1  UNL     1      14.403  16.705  15.713  1.00  0.00    -0.032 NA
HETATM   49  O7  UNL     1      16.680  16.974  15.321  1.00  0.00    -0.242 OA
ENDBRANCH  46  47
ENDBRANCH  44  46
ENDBRANCH  43  44
ENDBRANCH  42  43
ENDBRANCH  39  42
ENDBRANCH   8  39
TORSDOF 19
ENDMDL
MODEL 3
REMARK VINA RESULT: -7.464339264      2.857      7.520
REMARK  19 active torsions:
REMARK  status: ('A' for Active; 'I' for Inactive)
REMARK    1  A    between atoms: C2_2  and  O1_3 
REMARK    2  A    between atoms: C2_2  and  C3_5 
REMARK    3  A    between atoms: C3_5  and  C4_7 
REMARK    4  A    between atoms: C4_7  and  C5_8 
REMARK    5  A    between atoms: C4_7  and  C27_39 
REMARK    6  A    between atoms: C5_8  and  C6_9 
REMARK    7  A    between atoms: C6_9  and  O3_10 
REMARK    8  A    between atoms: C6_9  and  C7_12 
REMARK    9  A    between atoms: C12_17  and  O4_18 
REMARK   10  A    between atoms: C14_21  and  C15_22 
REMARK   11  A    between atoms: C15_22  and  O5_23 
REMARK   12  A    between atoms: C15_22  and  C16_25 
REMARK   13  A    between atoms: C16_25  and  C17_26 
REMARK   14  A    between atoms: C17_26  and  C18_27 
REMARK   15  A    between atoms: C18_27  and  O6_29 
REMARK   16  A    between atoms: O6_29  and  C20_30 
REMARK   17  A    between atoms: C27_39  and  C29_41 
REMARK   18  A    between atoms: C29_41  and  C30_43 
REMARK   19  A    between atoms: C32_45  and  C33_47 
ROOT
HETATM    1  C7  UNL     1      15.436  24.476  16.407  1.00  0.00     0.023 C 
HETATM    2  C8  UNL     1      15.202  23.312  17.260  1.00  0.00     0.008 C 
HETATM    3  C9  UNL     1      16.032  23.559  18.512  1.00  0.00     0.006 C 
HETATM    4  C10 UNL     1      16.705  24.903  18.327  1.00  0.00     0.001 C 
HETATM    5  C11 UNL     1      17.960  24.950  19.089  1.00  0.00     0.028 C 
HETATM    6  C12 UNL     1      18.096  26.195  19.918  1.00  0.00     0.123 C 
HETATM    7  C13 UNL     1      19.508  26.626  19.735  1.00  0.00     0.040 C 
HETATM    8  C14 UNL     1      19.907  26.045  18.385  1.00  0.00     0.025 C 
HETATM    9  C21 UNL     1      19.251  24.742  18.338  1.00  0.00    -0.032 C 
HETATM   10  C22 UNL     1      20.060  23.689  19.071  1.00  0.00     0.016 C 
HETATM   11  C23 UNL     1      19.017  24.166  16.973  1.00  0.00     0.011 C 
HETATM   12  C24 UNL     1      17.944  24.800  16.157  1.00  0.00     0.011 C 
HETATM   13  C25 UNL     1      16.719  25.182  16.866  1.00  0.00    -0.034 C 
HETATM   14  C26 UNL     1      16.459  26.669  16.568  1.00  0.00     0.016 C 
ENDROOT
BRANCH   1  15
HETATM   15  C6  UNL     1      15.305  24.376  14.941  1.00  0.00     0.123 C 
BRANCH  15  16
HETATM   16  C5  UNL     1      15.077  22.987  14.444  1.00  0.00     0.045 C 
BRANCH  16  17
HETATM   17  C4  UNL     1      16.194  22.050  14.295  1.00  0.00     0.076 C 
BRANCH  17  18
HETATM   18  C3  UNL     1      15.828  20.703  14.902  1.00  0.00     0.186 C 
HETATM   19  O2  UNL     1      14.714  20.164  14.580  1.00  0.00    -0.290 OA
BRANCH  18  20
HETATM   20  C2  UNL     1      16.659  19.988  15.825  1.00  0.00     0.102 C 
HETATM   21  C1  UNL     1      17.423  20.624  16.684  1.00  0.00     0.054 C 
BRANCH  20  22
HETATM   22  O1  UNL     1      16.685  18.610  15.845  1.00  0.00    -0.358 OA
ATOM     23  H1  UNL     1      16.306  18.173  16.599  1.00  0.00     0.217 HD
ENDBRANCH  20  22
ENDBRANCH  18  20
ENDBRANCH  17  18
BRANCH  17  24
HETATM   24  C27 UNL     1      16.556  21.799  12.819  1.00  0.00     0.063 C 
HETATM   25  C28 UNL     1      16.230  20.414  12.382  1.00  0.00     0.018 C 
BRANCH  24  26
HETATM   26  C29 UNL     1      17.942  22.226  12.620  1.00  0.00     0.137 C 
HETATM   27  O8  UNL     1      18.706  21.534  11.973  1.00  0.00    -0.297 OA
BRANCH  26  28
HETATM   28  C30 UNL     1      18.492  23.502  13.181  1.00  0.00     0.081 A 
HETATM   29  C31 UNL     1      18.028  24.737  12.445  1.00  0.00     0.041 A 
HETATM   30  C32 UNL     1      19.438  24.264  12.343  1.00  0.00     0.051 A 
HETATM   31 CL1  UNL     1      20.016  23.577  10.807  1.00  0.00    -0.118 Cl
BRANCH  30  32
HETATM   32  C33 UNL     1      20.468  25.169  13.007  1.00  0.00     0.002 C 
HETATM   33  C34 UNL     1      21.182  24.375  14.091  1.00  0.00     0.011 C 
HETATM   34  C35 UNL     1      19.793  26.395  13.586  1.00  0.00     0.011 C 
ENDBRANCH  30  32
ENDBRANCH  26  28
ENDBRANCH  24  26
ENDBRANCH  17  24
ENDBRANCH  16  17
ENDBRANCH  15  16
BRANCH  15  35
HETATM   35  O3  UNL     1      14.091  25.048  14.553  1.00  0.00    -0.395 OA
ATOM     36  H3  UNL     1      14.226  25.925  14.891  1.00  0.00     0.210 HD
ENDBRANCH  15  35
ENDBRANCH   1  15
BRANCH   6  37
HETATM   37  O4  UNL     1      17.924  25.953  21.304  1.00  0.00    -0.395 OA
ATOM     38  H4  UNL     1      18.297  25.124  21.582  1.00  0.00     0.210 HD
ENDBRANCH   6  37
BRANCH   8  39
HETATM   39  C15 UNL     1      21.331  26.229  18.079  1.00  0.00     0.123 C 
BRANCH  39  40
HETATM   40  O5  UNL     1      22.147  26.547  19.139  1.00  0.00    -0.395 OA
ATOM     41  H5  UNL     1      23.082  26.464  18.991  1.00  0.00     0.210 HD
ENDBRANCH  39  40
BRANCH  39  42
HETATM   42  C16 UNL     1      21.696  27.092  16.906  1.00  0.00     0.034 C 
BRANCH  42  43
HETATM   43  C17 UNL     1      23.221  27.039  16.663  1.00  0.00     0.035 C 
BRANCH  43  44
HETATM   44  C18 UNL     1      23.390  27.055  15.145  1.00  0.00     0.129 C 
HETATM   45  C19 UNL     1      22.798  28.338  14.602  1.00  0.00     0.040 C 
BRANCH  44  46
HETATM   46  O6  UNL     1      24.752  27.000  14.769  1.00  0.00    -0.301 OA
BRANCH  46  47
HETATM   47  C20 UNL     1      25.180  25.936  14.007  1.00  0.00     0.373 C 
HETATM   48  N1  UNL     1      26.146  26.098  12.953  1.00  0.00    -0.032 NA
HETATM   49  O7  UNL     1      24.714  24.790  14.237  1.00  0.00    -0.242 OA
ENDBRANCH  46  47
ENDBRANCH  44  46
ENDBRANCH  43  44
ENDBRANCH  42  43
ENDBRANCH  39  42
ENDBRANCH   8  39
TORSDOF 19
ENDMDL
MODEL 4
REMARK VINA RESULT: -7.369522433      2.124      4.098
REMARK  19 active torsions:
REMARK  status: ('A' for Active; 'I' for Inactive)
REMARK    1  A    between atoms: C2_2  and  O1_3 
REMARK    2  A    between atoms: C2_2  and  C3_5 
REMARK    3  A    between atoms: C3_5  and  C4_7 
REMARK    4  A    between atoms: C4_7  and  C5_8 
REMARK    5  A    between atoms: C4_7  and  C27_39 
REMARK    6  A    between atoms: C5_8  and  C6_9 
REMARK    7  A    between atoms: C6_9  and  O3_10 
REMARK    8  A    between atoms: C6_9  and  C7_12 
REMARK    9  A    between atoms: C12_17  and  O4_18 
REMARK   10  A    between atoms: C14_21  and  C15_22 
REMARK   11  A    between atoms: C15_22  and  O5_23 
REMARK   12  A    between atoms: C15_22  and  C16_25 
REMARK   13  A    between atoms: C16_25  and  C17_26 
REMARK   14  A    between atoms: C17_26  and  C18_27 
REMARK   15  A    between atoms: C18_27  and  O6_29 
REMARK   16  A    between atoms: O6_29  and  C20_30 
REMARK   17  A    between atoms: C27_39  and  C29_41 
REMARK   18  A    between atoms: C29_41  and  C30_43 
REMARK   19  A    between atoms: C32_45  and  C33_47 
ROOT
HETATM    1  C7  UNL     1      16.701  26.502  18.311  1.00  0.00     0.023 C 
HETATM    2  C8  UNL     1      16.609  27.835  17.717  1.00  0.00     0.008 C 
HETATM    3  C9  UNL     1      15.657  27.684  16.539  1.00  0.00     0.006 C 
HETATM    4  C10 UNL     1      15.214  26.237  16.523  1.00  0.00     0.001 C 
HETATM    5  C11 UNL     1      14.862  25.830  15.156  1.00  0.00     0.028 C 
HETATM    6  C12 UNL     1      13.539  25.124  15.077  1.00  0.00     0.123 C 
HETATM    7  C13 UNL     1      13.766  23.984  14.148  1.00  0.00     0.040 C 
HETATM    8  C14 UNL     1      15.260  23.707  14.251  1.00  0.00     0.025 C 
HETATM    9  C21 UNL     1      15.871  25.026  14.375  1.00  0.00    -0.032 C 
HETATM   10  C22 UNL     1      16.050  25.681  13.019  1.00  0.00     0.016 C 
HETATM   11  C23 UNL     1      17.231  25.072  15.007  1.00  0.00     0.011 C 
HETATM   12  C24 UNL     1      17.290  24.843  16.478  1.00  0.00     0.011 C 
HETATM   13  C25 UNL     1      16.233  25.464  17.282  1.00  0.00    -0.034 C 
HETATM   14  C26 UNL     1      15.589  24.354  18.132  1.00  0.00     0.016 C 
ENDROOT
BRANCH   1  15
HETATM   15  C6  UNL     1      17.901  26.092  19.064  1.00  0.00     0.123 C 
BRANCH  15  16
HETATM   16  C5  UNL     1      19.087  26.974  18.847  1.00  0.00     0.045 C 
BRANCH  16  17
HETATM   17  C4  UNL     1      20.356  26.420  18.370  1.00  0.00     0.076 C 
BRANCH  17  18
HETATM   18  C3  UNL     1      21.255  26.085  19.552  1.00  0.00     0.186 C 
HETATM   19  O2  UNL     1      20.755  25.462  20.551  1.00  0.00    -0.290 OA
BRANCH  18  20
HETATM   20  C2  UNL     1      22.645  26.429  19.624  1.00  0.00     0.102 C 
HETATM   21  C1  UNL     1      23.204  27.191  18.711  1.00  0.00     0.054 C 
BRANCH  20  22
HETATM   22  O1  UNL     1      23.442  25.973  20.652  1.00  0.00    -0.358 OA
ATOM     23  H1  UNL     1      23.980  25.208  20.486  1.00  0.00     0.217 HD
ENDBRANCH  20  22
ENDBRANCH  18  20
ENDBRANCH  17  18
BRANCH  17  24
HETATM   24  C27 UNL     1      20.164  25.120  17.566  1.00  0.00     0.063 C 
HETATM   25  C28 UNL     1      20.505  23.907  18.357  1.00  0.00     0.018 C 
BRANCH  24  26
HETATM   26  C29 UNL     1      20.866  25.276  16.291  1.00  0.00     0.137 C 
HETATM   27  O8  UNL     1      21.569  26.252  16.098  1.00  0.00    -0.297 OA
BRANCH  26  28
HETATM   28  C30 UNL     1      20.771  24.277  15.177  1.00  0.00     0.081 A 
HETATM   29  C31 UNL     1      21.918  24.354  14.197  1.00  0.00     0.041 A 
HETATM   30  C32 UNL     1      20.545  24.795  13.815  1.00  0.00     0.051 A 
HETATM   31 CL1  UNL     1      20.227  26.528  13.564  1.00  0.00    -0.118 Cl
BRANCH  30  32
HETATM   32  C33 UNL     1      19.853  23.915  12.782  1.00  0.00     0.002 C 
HETATM   33  C34 UNL     1      20.833  22.846  12.323  1.00  0.00     0.011 C 
HETATM   34  C35 UNL     1      19.376  24.753  11.615  1.00  0.00     0.011 C 
ENDBRANCH  30  32
ENDBRANCH  26  28
ENDBRANCH  24  26
ENDBRANCH  17  24
ENDBRANCH  16  17
ENDBRANCH  15  16
BRANCH  15  35
HETATM   35  O3  UNL     1      17.632  26.274  20.467  1.00  0.00    -0.395 OA
ATOM     36  H3  UNL     1      18.194  25.622  20.869  1.00  0.00     0.210 HD
ENDBRANCH  15  35
ENDBRANCH   1  15
BRANCH   6  37
HETATM   37  O4  UNL     1      12.523  25.923  14.494  1.00  0.00    -0.395 OA
ATOM     38  H4  UNL     1      11.924  26.283  15.138  1.00  0.00     0.210 HD
ENDBRANCH   6  37
BRANCH   8  39
HETATM   39  C15 UNL     1      15.726  22.703  13.287  1.00  0.00     0.123 C 
BRANCH  39  40
HETATM   40  O5  UNL     1      14.768  22.148  12.472  1.00  0.00    -0.395 OA
ATOM     41  H5  UNL     1      13.863  22.299  12.722  1.00  0.00     0.210 HD
ENDBRANCH  39  40
BRANCH  39  42
HETATM   42  C16 UNL     1      16.634  21.615  13.782  1.00  0.00     0.034 C 
BRANCH  42  43
HETATM   43  C17 UNL     1      15.807  20.370  14.172  1.00  0.00     0.035 C 
BRANCH  43  44
HETATM   44  C18 UNL     1      16.426  19.864  15.474  1.00  0.00     0.129 C 
HETATM   45  C19 UNL     1      16.620  21.038  16.409  1.00  0.00     0.040 C 
BRANCH  44  46
HETATM   46  O6  UNL     1      15.592  18.919  16.116  1.00  0.00    -0.301 OA
BRANCH  46  47
HETATM   47  C20 UNL     1      15.644  17.607  15.697  1.00  0.00     0.373 C 
HETATM   48  N1  UNL     1      14.460  16.796  15.598  1.00  0.00    -0.032 NA
HETATM   49  O7  UNL     1      16.756  17.105  15.391  1.00  0.00    -0.242 OA
ENDBRANCH  46  47
ENDBRANCH  44  46
ENDBRANCH  43  44
ENDBRANCH  42  43
ENDBRANCH  39  42
ENDBRANCH   8  39
TORSDOF 19
ENDMDL
MODEL 5
REMARK VINA RESULT: -7.312213724      2.773      7.713
REMARK  19 active torsions:
REMARK  status: ('A' for Active; 'I' for Inactive)
REMARK    1  A    between atoms: C2_2  and  O1_3 
REMARK    2  A    between atoms: C2_2  and  C3_5 
REMARK    3  A    between atoms: C3_5  and  C4_7 
REMARK    4  A    between atoms: C4_7  and  C5_8 
REMARK    5  A    between atoms: C4_7  and  C27_39 
REMARK    6  A    between atoms: C5_8  and  C6_9 
REMARK    7  A    between atoms: C6_9  and  O3_10 
REMARK    8  A    between atoms: C6_9  and  C7_12 
REMARK    9  A    between atoms: C12_17  and  O4_18 
REMARK   10  A    between atoms: C14_21  and  C15_22 
REMARK   11  A    between atoms: C15_22  and  O5_23 
REMARK   12  A    between atoms: C15_22  and  C16_25 
REMARK   13  A    between atoms: C16_25  and  C17_26 
REMARK   14  A    between atoms: C17_26  and  C18_27 
REMARK   15  A    between atoms: C18_27  and  O6_29 
REMARK   16  A    between atoms: O6_29  and  C20_30 
REMARK   17  A    between atoms: C27_39  and  C29_41 
REMARK   18  A    between atoms: C29_41  and  C30_43 
REMARK   19  A    between atoms: C32_45  and  C33_47 
ROOT
HETATM    1  C7  UNL     1      15.708  23.807  16.578  1.00  0.00     0.023 C 
HETATM    2  C8  UNL     1      15.556  23.049  17.820  1.00  0.00     0.008 C 
HETATM    3  C9  UNL     1      16.087  23.963  18.914  1.00  0.00     0.006 C 
HETATM    4  C10 UNL     1      16.510  25.250  18.237  1.00  0.00     0.001 C 
HETATM    5  C11 UNL     1      17.577  25.901  19.009  1.00  0.00     0.028 C 
HETATM    6  C12 UNL     1      17.322  27.362  19.246  1.00  0.00     0.123 C 
HETATM    7  C13 UNL     1      18.634  28.024  19.015  1.00  0.00     0.040 C 
HETATM    8  C14 UNL     1      19.370  27.082  18.072  1.00  0.00     0.025 C 
HETATM    9  C21 UNL     1      18.997  25.745  18.524  1.00  0.00    -0.032 C 
HETATM   10  C22 UNL     1      19.851  25.299  19.695  1.00  0.00     0.016 C 
HETATM   11  C23 UNL     1      19.124  24.643  17.513  1.00  0.00     0.011 C 
HETATM   12  C24 UNL     1      18.111  24.620  16.422  1.00  0.00     0.011 C 
HETATM   13  C25 UNL     1      16.729  24.931  16.801  1.00  0.00    -0.034 C 
HETATM   14  C26 UNL     1      16.244  26.068  15.885  1.00  0.00     0.016 C 
ENDROOT
BRANCH   1  15
HETATM   15  C6  UNL     1      15.861  23.114  15.285  1.00  0.00     0.123 C 
BRANCH  15  16
HETATM   16  C5  UNL     1      16.310  21.695  15.404  1.00  0.00     0.045 C 
BRANCH  16  17
HETATM   17  C4  UNL     1      16.501  20.865  14.212  1.00  0.00     0.076 C 
BRANCH  17  18
HETATM   18  C3  UNL     1      15.482  19.734  14.196  1.00  0.00     0.186 C 
HETATM   19  O2  UNL     1      14.253  20.007  14.423  1.00  0.00    -0.290 OA
BRANCH  18  20
HETATM   20  C2  UNL     1      15.812  18.362  13.943  1.00  0.00     0.102 C 
HETATM   21  C1  UNL     1      15.279  17.711  12.934  1.00  0.00     0.054 C 
BRANCH  20  22
HETATM   22  O1  UNL     1      16.701  17.681  14.746  1.00  0.00    -0.358 OA
ATOM     23  H1  UNL     1      16.486  17.595  15.667  1.00  0.00     0.217 HD
ENDBRANCH  20  22
ENDBRANCH  18  20
ENDBRANCH  17  18
BRANCH  17  24
HETATM   24  C27 UNL     1      16.312  21.662  12.907  1.00  0.00     0.063 C 
HETATM   25  C28 UNL     1      15.473  20.937  11.915  1.00  0.00     0.018 C 
BRANCH  24  26
HETATM   26  C29 UNL     1      17.636  22.082  12.445  1.00  0.00     0.137 C 
HETATM   27  O8  UNL     1      18.193  21.468  11.553  1.00  0.00    -0.297 OA
BRANCH  26  28
HETATM   28  C30 UNL     1      18.369  23.256  13.021  1.00  0.00     0.081 A 
HETATM   29  C31 UNL     1      17.675  24.577  12.786  1.00  0.00     0.041 A 
HETATM   30  C32 UNL     1      18.941  24.233  12.076  1.00  0.00     0.051 A 
HETATM   31 CL1  UNL     1      18.896  23.910  10.327  1.00  0.00    -0.118 Cl
BRANCH  30  32
HETATM   32  C33 UNL     1      20.153  25.058  12.491  1.00  0.00     0.002 C 
HETATM   33  C34 UNL     1      21.071  24.180  13.327  1.00  0.00     0.011 C 
HETATM   34  C35 UNL     1      19.714  26.281  13.268  1.00  0.00     0.011 C 
ENDBRANCH  30  32
ENDBRANCH  26  28
ENDBRANCH  24  26
ENDBRANCH  17  24
ENDBRANCH  16  17
ENDBRANCH  15  16
BRANCH  15  35
HETATM   35  O3  UNL     1      14.555  22.978  14.693  1.00  0.00    -0.395 OA
ATOM     36  H3  UNL     1      14.216  22.202  15.123  1.00  0.00     0.210 HD
ENDBRANCH  15  35
ENDBRANCH   1  15
BRANCH   6  37
HETATM   37  O4  UNL     1      16.956  27.645  20.586  1.00  0.00    -0.395 OA
ATOM     38  H4  UNL     1      17.634  28.112  21.061  1.00  0.00     0.210 HD
ENDBRANCH   6  37
BRANCH   8  39
HETATM   39  C15 UNL     1      20.763  27.480  17.835  1.00  0.00     0.123 C 
BRANCH  39  40
HETATM   40  O5  UNL     1      21.211  28.577  18.531  1.00  0.00    -0.395 OA
ATOM     41  H5  UNL     1      21.985  28.449  19.068  1.00  0.00     0.210 HD
ENDBRANCH  39  40
BRANCH  39  42
HETATM   42  C16 UNL     1      21.239  27.576  16.414  1.00  0.00     0.034 C 
BRANCH  42  43
HETATM   43  C17 UNL     1      22.411  26.597  16.180  1.00  0.00     0.035 C 
BRANCH  43  44
HETATM   44  C18 UNL     1      22.969  26.956  14.804  1.00  0.00     0.129 C 
HETATM   45  C19 UNL     1      22.551  28.369  14.461  1.00  0.00     0.040 C 
BRANCH  44  46
HETATM   46  O6  UNL     1      24.381  26.892  14.779  1.00  0.00    -0.301 OA
BRANCH  46  47
HETATM   47  C20 UNL     1      24.980  25.853  14.102  1.00  0.00     0.373 C 
HETATM   48  N1  UNL     1      25.995  26.080  13.108  1.00  0.00    -0.032 NA
HETATM   49  O7  UNL     1      24.630  24.672  14.360  1.00  0.00    -0.242 OA
ENDBRANCH  46  47
ENDBRANCH  44  46
ENDBRANCH  43  44
ENDBRANCH  42  43
ENDBRANCH  39  42
ENDBRANCH   8  39
TORSDOF 19
ENDMDL
