MODEL 1
REMARK VINA RESULT: -9.885160959      0.000      0.000
REMARK  2 active torsions:
REMARK  status: ('A' for Active; 'I' for Inactive)
REMARK    1  A    between atoms: C7_7  and  N1_8 
REMARK    2  A    between atoms: N1_8  and  O1_10 
ROOT
HETATM    1  C1  UNL     1      16.558   8.537  -6.659  1.00  0.00     0.050 C 
HETATM    2  C2  UNL     1      16.263   9.848  -7.287  1.00  0.00    -0.033 A 
HETATM    3  C3  UNL     1      16.980  10.358  -8.363  1.00  0.00     0.023 A 
HETATM    4  C4  UNL     1      16.676  11.586  -8.922  1.00  0.00     0.000 A 
HETATM    5  C5  UNL     1      15.640  12.312  -8.397  1.00  0.00    -0.034 A 
HETATM    6  C6  UNL     1      14.889  11.841  -7.314  1.00  0.00     0.040 A 
HETATM    7  C7  UNL     1      15.227  10.594  -6.775  1.00  0.00     0.060 A 
HETATM    8  C8  UNL     1      15.505  13.572  -9.147  1.00  0.00     0.068 A 
HETATM    9  C9  UNL     1      14.115  13.888  -9.556  1.00  0.00     0.021 C 
HETATM   10  C10 UNL     1      16.529  13.538 -10.149  1.00  0.00     0.050 A 
HETATM   11  C11 UNL     1      17.193  12.400 -10.012  1.00  0.00     0.069 A 
HETATM   12  N2  UNL     1      18.312  11.926 -10.797  1.00  0.00    -0.328 N 
ATOM     13  H2  UNL     1      18.626  10.982 -10.574  1.00  0.00     0.168 HD
HETATM   14  C12 UNL     1      18.970  12.511 -11.730  1.00  0.00     0.195 C 
HETATM   15  N3  UNL     1      20.046  11.753 -12.321  1.00  0.00    -0.063 NA
HETATM   16  N4  UNL     1      18.787  13.833 -12.284  1.00  0.00    -0.302 N 
ATOM     17  H4  UNL     1      19.481  14.125 -12.972  1.00  0.00     0.171 HD
HETATM   18  C13 UNL     1      17.860  14.696 -12.022  1.00  0.00     0.184 C 
HETATM   19  N5  UNL     1      17.816  15.977 -12.661  1.00  0.00    -0.360 N 
ATOM     20  H5  UNL     1      18.556  16.413 -13.211  1.00  0.00     0.162 HD
HETATM   21  C14 UNL     1      16.511  16.527 -12.369  1.00  0.00     0.143 C 
HETATM   22  C15 UNL     1      15.881  15.663 -11.288  1.00  0.00     0.151 C 
HETATM   23  N6  UNL     1      16.775  14.577 -11.125  1.00  0.00    -0.318 N 
ENDROOT
BRANCH   7  24
HETATM   24  N1  UNL     1      14.439  10.155  -5.676  1.00  0.00    -0.269 N 
ATOM     25  H1  UNL     1      14.793   9.385  -5.109  1.00  0.00     0.194 HD
BRANCH  24  26
HETATM   26  O1  UNL     1      13.253  10.696  -5.342  1.00  0.00    -0.289 OA
ATOM     27  H1  UNL     1      13.144  11.356  -4.668  1.00  0.00     0.244 HD
ENDBRANCH  24  26
ENDBRANCH   7  24
TORSDOF 2
ENDMDL
MODEL 2
REMARK VINA RESULT: -9.491694395      1.268      1.362
REMARK  2 active torsions:
REMARK  status: ('A' for Active; 'I' for Inactive)
REMARK    1  A    between atoms: C7_7  and  N1_8 
REMARK    2  A    between atoms: N1_8  and  O1_10 
ROOT
HETATM    1  C1  UNL     1      16.206   8.961  -7.791  1.00  0.00     0.050 C 
HETATM    2  C2  UNL     1      16.022  10.273  -8.458  1.00  0.00    -0.033 A 
HETATM    3  C3  UNL     1      16.993  10.868  -9.255  1.00  0.00     0.023 A 
HETATM    4  C4  UNL     1      16.786  12.093  -9.861  1.00  0.00     0.000 A 
HETATM    5  C5  UNL     1      15.589  12.732  -9.666  1.00  0.00    -0.034 A 
HETATM    6  C6  UNL     1      14.581  12.174  -8.872  1.00  0.00     0.040 A 
HETATM    7  C7  UNL     1      14.828  10.931  -8.276  1.00  0.00     0.060 A 
HETATM    8  C8  UNL     1      15.598  14.008 -10.402  1.00  0.00     0.068 A 
HETATM    9  C9  UNL     1      14.379  14.249 -11.211  1.00  0.00     0.021 C 
HETATM   10  C10 UNL     1      16.878  14.077 -11.043  1.00  0.00     0.050 A 
HETATM   11  C11 UNL     1      17.549  12.980 -10.728  1.00  0.00     0.069 A 
HETATM   12  N2  UNL     1      18.884  12.608 -11.140  1.00  0.00    -0.328 N 
ATOM     13  H2  UNL     1      19.184  11.677 -10.847  1.00  0.00     0.168 HD
HETATM   14  C12 UNL     1      19.751  13.268 -11.819  1.00  0.00     0.195 C 
HETATM   15  N3  UNL     1      21.008  12.603 -12.064  1.00  0.00    -0.063 NA
HETATM   16  N4  UNL     1      19.650  14.595 -12.380  1.00  0.00    -0.302 N 
ATOM     17  H4  UNL     1      20.497  14.956 -12.818  1.00  0.00     0.171 HD
HETATM   18  C13 UNL     1      18.627  15.386 -12.400  1.00  0.00     0.184 C 
HETATM   19  N5  UNL     1      18.687  16.685 -13.002  1.00  0.00    -0.360 N 
ATOM     20  H5  UNL     1      19.526  17.188 -13.292  1.00  0.00     0.162 HD
HETATM   21  C14 UNL     1      17.319  17.139 -13.114  1.00  0.00     0.143 C 
HETATM   22  C15 UNL     1      16.454  16.197 -12.291  1.00  0.00     0.151 C 
HETATM   23  N6  UNL     1      17.333  15.165 -11.880  1.00  0.00    -0.318 N 
ENDROOT
BRANCH   7  24
HETATM   24  N1  UNL     1      13.777  10.402  -7.478  1.00  0.00    -0.269 N 
ATOM     25  H1  UNL     1      14.013   9.697  -6.779  1.00  0.00     0.194 HD
BRANCH  24  26
HETATM   26  O1  UNL     1      12.490  10.777  -7.590  1.00  0.00    -0.289 OA
ATOM     27  H1  UNL     1      11.834  10.620  -6.922  1.00  0.00     0.244 HD
ENDBRANCH  24  26
ENDBRANCH   7  24
TORSDOF 2
ENDMDL
MODEL 3
REMARK VINA RESULT: -9.237797724      3.124      7.107
REMARK  2 active torsions:
REMARK  status: ('A' for Active; 'I' for Inactive)
REMARK    1  A    between atoms: C7_7  and  N1_8 
REMARK    2  A    between atoms: N1_8  and  O1_10 
ROOT
HETATM    1  C1  UNL     1      13.195  16.718 -10.648  1.00  0.00     0.050 C 
HETATM    2  C2  UNL     1      13.961  15.494 -10.309  1.00  0.00    -0.033 A 
HETATM    3  C3  UNL     1      13.642  14.664  -9.241  1.00  0.00     0.023 A 
HETATM    4  C4  UNL     1      14.380  13.530  -8.956  1.00  0.00     0.000 A 
HETATM    5  C5  UNL     1      15.452  13.224  -9.751  1.00  0.00    -0.034 A 
HETATM    6  C6  UNL     1      15.813  14.028 -10.837  1.00  0.00     0.040 A 
HETATM    7  C7  UNL     1      15.041  15.168 -11.095  1.00  0.00     0.060 A 
HETATM    8  C8  UNL     1      16.079  11.985  -9.260  1.00  0.00     0.068 A 
HETATM    9  C9  UNL     1      16.364  10.988 -10.319  1.00  0.00     0.021 C 
HETATM   10  C10 UNL     1      15.304  11.583  -8.123  1.00  0.00     0.050 A 
HETATM   11  C11 UNL     1      14.336  12.472  -7.957  1.00  0.00     0.069 A 
HETATM   12  N2  UNL     1      13.308  12.485  -6.939  1.00  0.00    -0.328 N 
ATOM     13  H2  UNL     1      12.610  13.222  -7.040  1.00  0.00     0.168 HD
HETATM   14  C12 UNL     1      13.140  11.712  -5.929  1.00  0.00     0.195 C 
HETATM   15  N3  UNL     1      11.999  11.997  -5.094  1.00  0.00    -0.063 NA
HETATM   16  N4  UNL     1      13.936  10.584  -5.501  1.00  0.00    -0.302 N 
ATOM     17  H4  UNL     1      13.660  10.158  -4.616  1.00  0.00     0.171 HD
HETATM   18  C13 UNL     1      14.952  10.044  -6.091  1.00  0.00     0.184 C 
HETATM   19  N5  UNL     1      15.641   8.919  -5.534  1.00  0.00    -0.360 N 
ATOM     20  H5  UNL     1      15.551   8.554  -4.586  1.00  0.00     0.162 HD
HETATM   21  C14 UNL     1      16.490   8.407  -6.586  1.00  0.00     0.143 C 
HETATM   22  C15 UNL     1      16.509   9.438  -7.703  1.00  0.00     0.151 C 
HETATM   23  N6  UNL     1      15.556  10.410  -7.315  1.00  0.00    -0.318 N 
ENDROOT
BRANCH   7  24
HETATM   24  N1  UNL     1      15.444  15.956 -12.207  1.00  0.00    -0.269 N 
ATOM     25  H1  UNL     1      15.410  16.971 -12.114  1.00  0.00     0.194 HD
BRANCH  24  26
HETATM   26  O1  UNL     1      15.866  15.441 -13.377  1.00  0.00    -0.289 OA
ATOM     27  H1  UNL     1      15.503  14.657 -13.771  1.00  0.00     0.244 HD
ENDBRANCH  24  26
ENDBRANCH   7  24
TORSDOF 2
ENDMDL
MODEL 4
REMARK VINA RESULT: -9.212246844      2.794      6.988
REMARK  2 active torsions:
REMARK  status: ('A' for Active; 'I' for Inactive)
REMARK    1  A    between atoms: C7_7  and  N1_8 
REMARK    2  A    between atoms: N1_8  and  O1_10 
ROOT
HETATM    1  C1  UNL     1      15.898  16.608 -12.098  1.00  0.00     0.050 C 
HETATM    2  C2  UNL     1      16.290  15.363 -11.392  1.00  0.00    -0.033 A 
HETATM    3  C3  UNL     1      15.513  14.765 -10.408  1.00  0.00     0.023 A 
HETATM    4  C4  UNL     1      15.911  13.604  -9.772  1.00  0.00     0.000 A 
HETATM    5  C5  UNL     1      17.106  13.034 -10.127  1.00  0.00    -0.034 A 
HETATM    6  C6  UNL     1      17.924  13.599 -11.112  1.00  0.00     0.040 A 
HETATM    7  C7  UNL     1      17.486  14.774 -11.734  1.00  0.00     0.060 A 
HETATM    8  C8  UNL     1      17.318  11.818  -9.324  1.00  0.00     0.068 A 
HETATM    9  C9  UNL     1      17.736  10.635 -10.113  1.00  0.00     0.021 C 
HETATM   10  C10 UNL     1      16.169  11.710  -8.473  1.00  0.00     0.050 A 
HETATM   11  C11 UNL     1      15.372  12.735  -8.736  1.00  0.00     0.069 A 
HETATM   12  N2  UNL     1      14.098  13.047  -8.127  1.00  0.00    -0.328 N 
ATOM     13  H2  UNL     1      13.608  13.844  -8.534  1.00  0.00     0.168 HD
HETATM   14  C12 UNL     1      13.489  12.475  -7.152  1.00  0.00     0.195 C 
HETATM   15  N3  UNL     1      12.214  13.039  -6.781  1.00  0.00    -0.063 NA
HETATM   16  N4  UNL     1      13.899  11.336  -6.364  1.00  0.00    -0.302 N 
ATOM     17  H4  UNL     1      13.290  11.098  -5.581  1.00  0.00     0.171 HD
HETATM   18  C13 UNL     1      14.935  10.578  -6.521  1.00  0.00     0.184 C 
HETATM   19  N5  UNL     1      15.205   9.476  -5.647  1.00  0.00    -0.360 N 
ATOM     20  H5  UNL     1      14.761   9.282  -4.749  1.00  0.00     0.162 HD
HETATM   21  C14 UNL     1      16.234   8.693  -6.294  1.00  0.00     0.143 C 
HETATM   22  C15 UNL     1      16.783   9.520  -7.446  1.00  0.00     0.151 C 
HETATM   23  N6  UNL     1      15.944  10.660  -7.505  1.00  0.00    -0.318 N 
ENDROOT
BRANCH   7  24
HETATM   24  N1  UNL     1      18.348  15.313 -12.727  1.00  0.00    -0.269 N 
ATOM     25  H1  UNL     1      18.041  15.278 -13.700  1.00  0.00     0.194 HD
BRANCH  24  26
HETATM   26  O1  UNL     1      19.544  15.867 -12.460  1.00  0.00    -0.289 OA
ATOM     27  H1  UNL     1      19.976  15.811 -11.616  1.00  0.00     0.244 HD
ENDBRANCH  24  26
ENDBRANCH   7  24
TORSDOF 2
ENDMDL
MODEL 5
REMARK VINA RESULT: -8.927686184      3.719      5.694
REMARK  2 active torsions:
REMARK  status: ('A' for Active; 'I' for Inactive)
REMARK    1  A    between atoms: C7_7  and  N1_8 
REMARK    2  A    between atoms: N1_8  and  O1_10 
ROOT
HETATM    1  C1  UNL     1      16.871  11.537  -8.163  1.00  0.00     0.050 C 
HETATM    2  C2  UNL     1      16.382  12.485  -9.194  1.00  0.00    -0.033 A 
HETATM    3  C3  UNL     1      15.378  13.416  -8.961  1.00  0.00     0.023 A 
HETATM    4  C4  UNL     1      14.948  14.285  -9.947  1.00  0.00     0.000 A 
HETATM    5  C5  UNL     1      15.533  14.219 -11.185  1.00  0.00    -0.034 A 
HETATM    6  C6  UNL     1      16.548  13.299 -11.467  1.00  0.00     0.040 A 
HETATM    7  C7  UNL     1      16.957  12.437 -10.443  1.00  0.00     0.060 A 
HETATM    8  C8  UNL     1      14.920  15.230 -12.062  1.00  0.00     0.068 A 
HETATM    9  C9  UNL     1      15.896  16.049 -12.819  1.00  0.00     0.021 C 
HETATM   10  C10 UNL     1      13.935  15.894 -11.260  1.00  0.00     0.050 A 
HETATM   11  C11 UNL     1      13.959  15.347 -10.054  1.00  0.00     0.069 A 
HETATM   12  N2  UNL     1      13.143  15.688  -8.909  1.00  0.00    -0.328 N 
ATOM     13  H2  UNL     1      13.378  15.194  -8.048  1.00  0.00     0.168 HD
HETATM   14  C12 UNL     1      12.168  16.517  -8.810  1.00  0.00     0.195 C 
HETATM   15  N3  UNL     1      11.556  16.626  -7.508  1.00  0.00    -0.063 NA
HETATM   16  N4  UNL     1      11.588  17.368  -9.823  1.00  0.00    -0.302 N 
ATOM     17  H4  UNL     1      10.762  17.894  -9.540  1.00  0.00     0.171 HD
HETATM   18  C13 UNL     1      11.979  17.551 -11.042  1.00  0.00     0.184 C 
HETATM   19  N5  UNL     1      11.290  18.437 -11.933  1.00  0.00    -0.360 N 
ATOM     20  H5  UNL     1      10.369  18.851 -11.793  1.00  0.00     0.162 HD
HETATM   21  C14 UNL     1      12.165  18.625 -13.069  1.00  0.00     0.143 C 
HETATM   22  C15 UNL     1      13.275  17.590 -12.969  1.00  0.00     0.151 C 
HETATM   23  N6  UNL     1      13.079  16.969 -11.711  1.00  0.00    -0.318 N 
ENDROOT
BRANCH   7  24
HETATM   24  N1  UNL     1      17.990  11.518 -10.775  1.00  0.00    -0.269 N 
ATOM     25  H1  UNL     1      18.952  11.778 -10.556  1.00  0.00     0.194 HD
BRANCH  24  26
HETATM   26  O1  UNL     1      17.772  10.326 -11.360  1.00  0.00    -0.289 OA
ATOM     27  H1  UNL     1      17.382   9.583 -10.916  1.00  0.00     0.244 HD
ENDBRANCH  24  26
ENDBRANCH   7  24
TORSDOF 2
ENDMDL
