MODEL 1
REMARK VINA RESULT: -8.511092505      0.000      0.000
REMARK  2 active torsions:
REMARK  status: ('A' for Active; 'I' for Inactive)
REMARK    1  A    between atoms: C4_5  and  C5_6 
REMARK    2  A    between atoms: N1_7  and  C6_9 
ROOT
HETATM    1  C5  UNL     1      46.124  61.423  83.064  1.00  0.00     0.113 C 
HETATM    2  N1  UNL     1      45.293  61.183  82.131  1.00  0.00    -0.388 N 
ATOM      3  H1  UNL     1      45.569  60.482  81.444  1.00  0.00     0.159 HD
ENDROOT
BRANCH   2   4
HETATM    4  C6  UNL     1      44.017  61.791  81.945  1.00  0.00     0.030 C 
HETATM    5  C7  UNL     1      43.003  61.175  82.909  1.00  0.00     0.035 C 
HETATM    6  C8  UNL     1      41.654  61.815  82.677  1.00  0.00    -0.012 C 
HETATM    7  C9  UNL     1      41.174  61.644  81.264  1.00  0.00     0.009 C 
HETATM    8  C13 UNL     1      41.824  63.305  82.983  1.00  0.00     0.009 C 
HETATM    9  C10 UNL     1      42.219  62.188  80.306  1.00  0.00    -0.012 C 
HETATM   10  C11 UNL     1      42.317  63.671  80.549  1.00  0.00     0.009 C 
HETATM   11  C15 UNL     1      43.501  61.463  80.548  1.00  0.00     0.035 C 
HETATM   12  C12 UNL     1      42.743  63.917  81.976  1.00  0.00    -0.012 C 
HETATM   13  C14 UNL     1      44.118  63.281  82.161  1.00  0.00     0.035 C 
ENDBRANCH   2   4
BRANCH   1  14
HETATM   14  C4  UNL     1      47.381  60.703  83.094  1.00  0.00     0.047 A 
HETATM   15  C3  UNL     1      47.925  60.262  84.298  1.00  0.00     0.032 A 
HETATM   16  C2  UNL     1      49.114  59.588  84.254  1.00  0.00     0.023 A 
HETATM   17  C1  UNL     1      49.724  59.374  83.036  1.00  0.00     0.026 A 
HETATM   18 BR1  UNL     1      51.383  58.436  82.986  1.00  0.00    -0.050 Br
HETATM   19  C16 UNL     1      49.180  59.815  81.848  1.00  0.00     0.107 A 
HETATM   20  N2  UNL     1      48.011  60.472  81.930  1.00  0.00    -0.364 N 
ATOM     21  H2  UNL     1      47.583  60.811  81.069  1.00  0.00     0.165 HD
ENDBRANCH   1  14
TORSDOF 2
ENDMDL
MODEL 2
REMARK VINA RESULT: -8.478064627      0.061      1.686
REMARK  2 active torsions:
REMARK  status: ('A' for Active; 'I' for Inactive)
REMARK    1  A    between atoms: C4_5  and  C5_6 
REMARK    2  A    between atoms: N1_7  and  C6_9 
ROOT
HETATM    1  C5  UNL     1      46.131  61.427  83.058  1.00  0.00     0.113 C 
HETATM    2  N1  UNL     1      45.291  61.168  82.139  1.00  0.00    -0.388 N 
ATOM      3  H1  UNL     1      45.558  60.450  81.466  1.00  0.00     0.159 HD
ENDROOT
BRANCH   2   4
HETATM    4  C6  UNL     1      44.015  61.776  81.949  1.00  0.00     0.030 C 
HETATM    5  C7  UNL     1      43.522  61.512  80.526  1.00  0.00     0.035 C 
HETATM    6  C8  UNL     1      42.182  62.185  80.340  1.00  0.00    -0.012 C 
HETATM    7  C9  UNL     1      42.244  63.666  80.586  1.00  0.00     0.009 C 
HETATM    8  C13 UNL     1      41.229  61.539  81.348  1.00  0.00     0.009 C 
HETATM    9  C10 UNL     1      42.808  63.924  81.972  1.00  0.00    -0.012 C 
HETATM   10  C11 UNL     1      41.822  63.366  82.964  1.00  0.00     0.009 C 
HETATM   11  C15 UNL     1      44.156  63.290  82.057  1.00  0.00     0.035 C 
HETATM   12  C12 UNL     1      41.667  61.882  82.736  1.00  0.00    -0.012 C 
HETATM   13  C14 UNL     1      43.032  61.238  82.960  1.00  0.00     0.035 C 
ENDBRANCH   2   4
BRANCH   1  14
HETATM   14  C4  UNL     1      47.386  60.704  83.093  1.00  0.00     0.047 A 
HETATM   15  C3  UNL     1      47.921  60.258  84.300  1.00  0.00     0.032 A 
HETATM   16  C2  UNL     1      49.109  59.582  84.262  1.00  0.00     0.023 A 
HETATM   17  C1  UNL     1      49.726  59.370  83.047  1.00  0.00     0.026 A 
HETATM   18 BR1  UNL     1      51.383  58.427  83.004  1.00  0.00    -0.050 Br
HETATM   19  C16 UNL     1      49.191  59.815  81.857  1.00  0.00     0.107 A 
HETATM   20  N2  UNL     1      48.023  60.474  81.934  1.00  0.00    -0.364 N 
ATOM     21  H2  UNL     1      47.601  60.817  81.070  1.00  0.00     0.165 HD
ENDBRANCH   1  14
TORSDOF 2
ENDMDL
MODEL 3
REMARK VINA RESULT: -8.462079298      0.059      1.708
REMARK  2 active torsions:
REMARK  status: ('A' for Active; 'I' for Inactive)
REMARK    1  A    between atoms: C4_5  and  C5_6 
REMARK    2  A    between atoms: N1_7  and  C6_9 
ROOT
HETATM    1  C5  UNL     1      46.145  61.458  83.022  1.00  0.00     0.113 C 
HETATM    2  N1  UNL     1      45.292  61.182  82.119  1.00  0.00    -0.388 N 
ATOM      3  H1  UNL     1      45.543  60.441  81.465  1.00  0.00     0.159 HD
ENDROOT
BRANCH   2   4
HETATM    4  C6  UNL     1      44.021  61.800  81.923  1.00  0.00     0.030 C 
HETATM    5  C7  UNL     1      44.133  63.304  82.173  1.00  0.00     0.035 C 
HETATM    6  C8  UNL     1      42.772  63.934  81.986  1.00  0.00    -0.012 C 
HETATM    7  C9  UNL     1      41.737  63.346  82.902  1.00  0.00     0.009 C 
HETATM    8  C13 UNL     1      42.373  63.677  80.531  1.00  0.00     0.009 C 
HETATM    9  C10 UNL     1      41.685  61.842  82.705  1.00  0.00    -0.012 C 
HETATM   10  C11 UNL     1      41.204  61.593  81.300  1.00  0.00     0.009 C 
HETATM   11  C15 UNL     1      43.043  61.285  82.973  1.00  0.00     0.035 C 
HETATM   12  C12 UNL     1      42.174  62.210  80.322  1.00  0.00    -0.012 C 
HETATM   13  C14 UNL     1      43.525  61.530  80.524  1.00  0.00     0.035 C 
ENDBRANCH   2   4
BRANCH   1  14
HETATM   14  C4  UNL     1      47.390  60.720  83.066  1.00  0.00     0.047 A 
HETATM   15  C3  UNL     1      47.917  60.278  84.278  1.00  0.00     0.032 A 
HETATM   16  C2  UNL     1      49.097  59.587  84.248  1.00  0.00     0.023 A 
HETATM   17  C1  UNL     1      49.714  59.357  83.037  1.00  0.00     0.026 A 
HETATM   18 BR1  UNL     1      51.359  58.394  83.006  1.00  0.00    -0.050 Br
HETATM   19  C16 UNL     1      49.187  59.798  81.842  1.00  0.00     0.107 A 
HETATM   20  N2  UNL     1      48.027  60.472  81.910  1.00  0.00    -0.364 N 
ATOM     21  H2  UNL     1      47.611  60.812  81.042  1.00  0.00     0.165 HD
ENDBRANCH   1  14
TORSDOF 2
ENDMDL
MODEL 4
REMARK VINA RESULT: -8.382046365      0.608      2.031
REMARK  2 active torsions:
REMARK  status: ('A' for Active; 'I' for Inactive)
REMARK    1  A    between atoms: C4_5  and  C5_6 
REMARK    2  A    between atoms: N1_7  and  C6_9 
ROOT
HETATM    1  C5  UNL     1      46.116  61.501  82.869  1.00  0.00     0.113 C 
HETATM    2  N1  UNL     1      45.227  61.216  82.005  1.00  0.00    -0.388 N 
ATOM      3  H1  UNL     1      45.449  60.465  81.352  1.00  0.00     0.159 HD
ENDROOT
BRANCH   2   4
HETATM    4  C6  UNL     1      43.952  61.836  81.852  1.00  0.00     0.030 C 
HETATM    5  C7  UNL     1      43.455  61.652  80.418  1.00  0.00     0.035 C 
HETATM    6  C8  UNL     1      42.116  62.337  80.272  1.00  0.00    -0.012 C 
HETATM    7  C9  UNL     1      42.183  63.802  80.599  1.00  0.00     0.009 C 
HETATM    8  C13 UNL     1      41.165  61.638  81.246  1.00  0.00     0.009 C 
HETATM    9  C10 UNL     1      42.750  63.982  81.996  1.00  0.00    -0.012 C 
HETATM   10  C11 UNL     1      41.765  63.373  82.958  1.00  0.00     0.009 C 
HETATM   11  C15 UNL     1      44.097  63.342  82.043  1.00  0.00     0.035 C 
HETATM   12  C12 UNL     1      41.606  61.904  82.649  1.00  0.00    -0.012 C 
HETATM   13  C14 UNL     1      42.970  61.245  82.834  1.00  0.00     0.035 C 
ENDBRANCH   2   4
BRANCH   1  14
HETATM   14  C4  UNL     1      47.361  60.760  82.874  1.00  0.00     0.047 A 
HETATM   15  C3  UNL     1      48.227  60.809  81.783  1.00  0.00     0.032 A 
HETATM   16  C2  UNL     1      49.385  60.084  81.854  1.00  0.00     0.023 A 
HETATM   17  C1  UNL     1      49.649  59.342  82.985  1.00  0.00     0.026 A 
HETATM   18 BR1  UNL     1      51.265  58.335  83.073  1.00  0.00    -0.050 Br
HETATM   19  C16 UNL     1      48.787  59.298  84.060  1.00  0.00     0.107 A 
HETATM   20  N2  UNL     1      47.660  60.022  83.955  1.00  0.00    -0.364 N 
ATOM     21  H2  UNL     1      47.001  60.010  84.734  1.00  0.00     0.165 HD
ENDBRANCH   1  14
TORSDOF 2
ENDMDL
MODEL 5
REMARK VINA RESULT: -8.314703405      1.837      2.328
REMARK  2 active torsions:
REMARK  status: ('A' for Active; 'I' for Inactive)
REMARK    1  A    between atoms: C4_5  and  C5_6 
REMARK    2  A    between atoms: N1_7  and  C6_9 
ROOT
HETATM    1  C5  UNL     1      46.056  61.014  81.371  1.00  0.00     0.113 C 
HETATM    2  N1  UNL     1      45.190  61.703  80.742  1.00  0.00    -0.388 N 
ATOM      3  H1  UNL     1      45.457  62.035  79.816  1.00  0.00     0.159 HD
ENDROOT
BRANCH   2   4
HETATM    4  C6  UNL     1      43.886  62.059  81.195  1.00  0.00     0.030 C 
HETATM    5  C7  UNL     1      43.285  60.908  82.001  1.00  0.00     0.035 C 
HETATM    6  C8  UNL     1      41.895  61.297  82.449  1.00  0.00    -0.012 C 
HETATM    7  C9  UNL     1      40.993  61.630  81.295  1.00  0.00     0.009 C 
HETATM    8  C13 UNL     1      42.059  62.527  83.344  1.00  0.00     0.009 C 
HETATM    9  C10 UNL     1      41.631  62.721  80.454  1.00  0.00    -0.012 C 
HETATM   10  C11 UNL     1      41.706  63.958  81.311  1.00  0.00     0.009 C 
HETATM   11  C15 UNL     1      42.966  62.239  79.993  1.00  0.00     0.035 C 
HETATM   12  C12 UNL     1      42.557  63.674  82.525  1.00  0.00    -0.012 C 
HETATM   13  C14 UNL     1      43.955  63.313  82.033  1.00  0.00     0.035 C 
ENDBRANCH   2   4
BRANCH   1  14
HETATM   14  C4  UNL     1      47.337  60.750  80.748  1.00  0.00     0.047 A 
HETATM   15  C3  UNL     1      47.633  61.248  79.480  1.00  0.00     0.032 A 
HETATM   16  C2  UNL     1      48.861  60.961  78.951  1.00  0.00     0.023 A 
HETATM   17  C1  UNL     1      49.749  60.200  79.680  1.00  0.00     0.026 A 
HETATM   18 BR1  UNL     1      51.458  59.805  78.933  1.00  0.00    -0.050 Br
HETATM   19  C16 UNL     1      49.449  59.710  80.934  1.00  0.00     0.107 A 
HETATM   20  N2  UNL     1      48.234  60.012  81.422  1.00  0.00    -0.364 N 
ATOM     21  H2  UNL     1      47.982  59.665  82.347  1.00  0.00     0.165 HD
ENDBRANCH   1  14
TORSDOF 2
ENDMDL
