MODEL 1
REMARK VINA RESULT: -7.614239468      0.000      0.000
REMARK  4 active torsions:
REMARK  status: ('A' for Active; 'I' for Inactive)
REMARK    1  A    between atoms: N1_2  and  C2_4 
REMARK    2  A    between atoms: C3_7  and  C4_8 
REMARK    3  A    between atoms: C11_16  and  C12_17 
REMARK    4  A    between atoms: C13_18  and  C14_19 
ROOT
HETATM    1  C2  UNL     1     -21.520   2.098 -20.391  1.00  0.00     0.679 A 
HETATM    2  N2  UNL     1     -20.296   1.856 -20.836  1.00  0.00    -0.191 N 
ATOM      3  H2  UNL     1     -20.156   1.036 -21.426  1.00  0.00     0.184 HD
HETATM    4  C3  UNL     1     -19.215   2.634 -20.557  1.00  0.00     0.062 A 
HETATM    5  C10 UNL     1     -19.443   3.726 -19.763  1.00  0.00     0.070 A 
HETATM    6  C11 UNL     1     -20.701   4.021 -19.274  1.00  0.00     0.105 A 
HETATM    7  N3  UNL     1     -21.711   3.189 -19.607  1.00  0.00    -0.184 N 
ATOM      8  H3  UNL     1     -22.648   3.387 -19.258  1.00  0.00     0.185 HD
ENDROOT
BRANCH   6   9
HETATM    9  C12 UNL     1     -20.901   5.178 -18.443  1.00  0.00    -0.043 C 
HETATM   10  C13 UNL     1     -21.059   6.149 -17.730  1.00  0.00    -0.060 C 
BRANCH  10  11
HETATM   11  C14 UNL     1     -21.247   7.286 -16.876  1.00  0.00     0.018 A 
HETATM   12  C15 UNL     1     -20.410   7.464 -15.794  1.00  0.00     0.020 A 
HETATM   13  C16 UNL     1     -20.557   8.552 -14.942  1.00  0.00     0.001 A 
HETATM   14  C17 UNL     1     -21.558   9.476 -15.177  1.00  0.00     0.000 A 
HETATM   15  C18 UNL     1     -22.394   9.301 -16.254  1.00  0.00     0.001 A 
HETATM   16  C19 UNL     1     -22.237   8.216 -17.094  1.00  0.00     0.020 A 
ENDBRANCH  10  11
ENDBRANCH   6   9
BRANCH   4  17
HETATM   17  C4  UNL     1     -17.901   2.299 -21.086  1.00  0.00    -0.009 A 
HETATM   18  C5  UNL     1     -16.897   3.234 -21.037  1.00  0.00     0.017 A 
HETATM   19  C6  UNL     1     -15.624   3.009 -21.512  1.00  0.00     0.043 A 
HETATM   20  C7  UNL     1     -15.362   1.775 -22.061  1.00  0.00     0.116 A 
HETATM   21  F1  UNL     1     -14.115   1.506 -22.545  1.00  0.00    -0.206 F 
HETATM   22  C8  UNL     1     -16.357   0.801 -22.128  1.00  0.00     0.043 A 
HETATM   23  C9  UNL     1     -17.628   1.083 -21.632  1.00  0.00     0.017 A 
ENDBRANCH   4  17
BRANCH   1  24
HETATM   24  N1  UNL     1     -22.546   1.365 -20.652  1.00  0.00    -0.230 N 
HETATM   25  C1  UNL     1     -23.812   1.534 -19.953  1.00  0.00     0.165 C 
ATOM     26  H1  UNL     1     -22.470   0.645 -21.370  1.00  0.00     0.177 HD
ENDBRANCH   1  24
TORSDOF 4
ENDMDL
MODEL 2
REMARK VINA RESULT: -7.566889765      5.090      9.437
REMARK  4 active torsions:
REMARK  status: ('A' for Active; 'I' for Inactive)
REMARK    1  A    between atoms: N1_2  and  C2_4 
REMARK    2  A    between atoms: C3_7  and  C4_8 
REMARK    3  A    between atoms: C11_16  and  C12_17 
REMARK    4  A    between atoms: C13_18  and  C14_19 
ROOT
HETATM    1  C2  UNL     1     -21.128   8.309 -15.208  1.00  0.00     0.679 A 
HETATM    2  N2  UNL     1     -22.350   7.928 -14.865  1.00  0.00    -0.191 N 
ATOM      3  H2  UNL     1     -22.844   8.480 -14.165  1.00  0.00     0.184 HD
HETATM    4  C3  UNL     1     -22.987   6.846 -15.390  1.00  0.00     0.062 A 
HETATM    5  C10 UNL     1     -22.292   6.129 -16.327  1.00  0.00     0.070 A 
HETATM    6  C11 UNL     1     -21.015   6.486 -16.718  1.00  0.00     0.105 A 
HETATM    7  N3  UNL     1     -20.468   7.577 -16.140  1.00  0.00    -0.184 N 
ATOM      8  H3  UNL     1     -19.528   7.860 -16.413  1.00  0.00     0.185 HD
ENDROOT
BRANCH   6   9
HETATM    9  C12 UNL     1     -20.317   5.709 -17.707  1.00  0.00    -0.043 C 
HETATM   10  C13 UNL     1     -19.719   5.044 -18.529  1.00  0.00    -0.060 C 
BRANCH  10  11
HETATM   11  C14 UNL     1     -19.001   4.261 -19.493  1.00  0.00     0.018 A 
HETATM   12  C15 UNL     1     -17.763   4.692 -19.925  1.00  0.00     0.020 A 
HETATM   13  C16 UNL     1     -17.034   3.964 -20.857  1.00  0.00     0.001 A 
HETATM   14  C17 UNL     1     -17.551   2.786 -21.364  1.00  0.00     0.000 A 
HETATM   15  C18 UNL     1     -18.784   2.355 -20.936  1.00  0.00     0.001 A 
HETATM   16  C19 UNL     1     -19.499   3.088 -20.009  1.00  0.00     0.020 A 
ENDBRANCH  10  11
ENDBRANCH   6   9
BRANCH   4  17
HETATM   17  C4  UNL     1     -24.332   6.493 -14.960  1.00  0.00    -0.009 A 
HETATM   18  C5  UNL     1     -24.731   6.795 -13.682  1.00  0.00     0.017 A 
HETATM   19  C6  UNL     1     -25.982   6.500 -13.186  1.00  0.00     0.043 A 
HETATM   20  C7  UNL     1     -26.866   5.870 -14.031  1.00  0.00     0.116 A 
HETATM   21  F1  UNL     1     -28.116   5.557 -13.585  1.00  0.00    -0.206 F 
HETATM   22  C8  UNL     1     -26.495   5.547 -15.336  1.00  0.00     0.043 A 
HETATM   23  C9  UNL     1     -25.216   5.869 -15.785  1.00  0.00     0.017 A 
ENDBRANCH   4  17
BRANCH   1  24
HETATM   24  N1  UNL     1     -20.521   9.332 -14.714  1.00  0.00    -0.230 N 
HETATM   25  C1  UNL     1     -19.534   9.204 -13.652  1.00  0.00     0.165 C 
ATOM     26  H1  UNL     1     -20.739  10.259 -15.078  1.00  0.00     0.177 HD
ENDBRANCH   1  24
TORSDOF 4
ENDMDL
MODEL 3
REMARK VINA RESULT: -7.258240953      5.052      9.694
REMARK  4 active torsions:
REMARK  status: ('A' for Active; 'I' for Inactive)
REMARK    1  A    between atoms: N1_2  and  C2_4 
REMARK    2  A    between atoms: C3_7  and  C4_8 
REMARK    3  A    between atoms: C11_16  and  C12_17 
REMARK    4  A    between atoms: C13_18  and  C14_19 
ROOT
HETATM    1  C2  UNL     1     -20.652   8.329 -15.243  1.00  0.00     0.679 A 
HETATM    2  N2  UNL     1     -21.913   8.270 -14.841  1.00  0.00    -0.191 N 
ATOM      3  H2  UNL     1     -22.221   8.939 -14.135  1.00  0.00     0.184 HD
HETATM    4  C3  UNL     1     -22.824   7.374 -15.311  1.00  0.00     0.062 A 
HETATM    5  C10 UNL     1     -22.373   6.494 -16.258  1.00  0.00     0.070 A 
HETATM    6  C11 UNL     1     -21.067   6.514 -16.710  1.00  0.00     0.105 A 
HETATM    7  N3  UNL     1     -20.239   7.442 -16.182  1.00  0.00    -0.184 N 
ATOM      8  H3  UNL     1     -19.272   7.477 -16.501  1.00  0.00     0.185 HD
ENDROOT
BRANCH   6   9
HETATM    9  C12 UNL     1     -20.631   5.573 -17.706  1.00  0.00    -0.043 C 
HETATM   10  C13 UNL     1     -20.254   4.769 -18.535  1.00  0.00    -0.060 C 
BRANCH  10  11
HETATM   11  C14 UNL     1     -19.795   3.821 -19.509  1.00  0.00     0.018 A 
HETATM   12  C15 UNL     1     -18.479   3.858 -19.919  1.00  0.00     0.020 A 
HETATM   13  C16 UNL     1     -17.994   2.958 -20.860  1.00  0.00     0.001 A 
HETATM   14  C17 UNL     1     -18.840   2.006 -21.398  1.00  0.00     0.000 A 
HETATM   15  C18 UNL     1     -20.151   1.967 -20.991  1.00  0.00     0.001 A 
HETATM   16  C19 UNL     1     -20.622   2.867 -20.055  1.00  0.00     0.020 A 
ENDBRANCH  10  11
ENDBRANCH   6   9
BRANCH   4  17
HETATM   17  C4  UNL     1     -24.193   7.375 -14.817  1.00  0.00    -0.009 A 
HETATM   18  C5  UNL     1     -25.068   8.334 -15.262  1.00  0.00     0.017 A 
HETATM   19  C6  UNL     1     -26.381   8.414 -14.851  1.00  0.00     0.043 A 
HETATM   20  C7  UNL     1     -26.821   7.474 -13.948  1.00  0.00     0.116 A 
HETATM   21  F1  UNL     1     -28.112   7.514 -13.512  1.00  0.00    -0.206 F 
HETATM   22  C8  UNL     1     -25.959   6.486 -13.474  1.00  0.00     0.043 A 
HETATM   23  C9  UNL     1     -24.641   6.452 -13.924  1.00  0.00     0.017 A 
ENDBRANCH   4  17
BRANCH   1  24
HETATM   24  N1  UNL     1     -19.788   9.174 -14.801  1.00  0.00    -0.230 N 
HETATM   25  C1  UNL     1     -19.387   9.208 -13.401  1.00  0.00     0.165 C 
ATOM     26  H1  UNL     1     -19.371   9.841 -15.450  1.00  0.00     0.177 HD
ENDBRANCH   1  24
TORSDOF 4
ENDMDL
MODEL 4
REMARK VINA RESULT: -7.217291271      4.307      7.196
REMARK  4 active torsions:
REMARK  status: ('A' for Active; 'I' for Inactive)
REMARK    1  A    between atoms: N1_2  and  C2_4 
REMARK    2  A    between atoms: C3_7  and  C4_8 
REMARK    3  A    between atoms: C11_16  and  C12_17 
REMARK    4  A    between atoms: C13_18  and  C14_19 
ROOT
HETATM    1  C2  UNL     1     -20.397   8.530 -15.480  1.00  0.00     0.679 A 
HETATM    2  N2  UNL     1     -20.462   7.487 -16.294  1.00  0.00    -0.191 N 
ATOM      3  H2  UNL     1     -19.644   6.882 -16.362  1.00  0.00     0.184 HD
HETATM    4  C3  UNL     1     -21.553   7.171 -17.045  1.00  0.00     0.062 A 
HETATM    5  C10 UNL     1     -22.632   8.006 -16.926  1.00  0.00     0.070 A 
HETATM    6  C11 UNL     1     -22.613   9.106 -16.091  1.00  0.00     0.105 A 
HETATM    7  N3  UNL     1     -21.484   9.336 -15.386  1.00  0.00    -0.184 N 
ATOM      8  H3  UNL     1     -21.447  10.142 -14.763  1.00  0.00     0.185 HD
ENDROOT
BRANCH   6   9
HETATM    9  C12 UNL     1     -23.767   9.960 -15.992  1.00  0.00    -0.043 C 
HETATM   10  C13 UNL     1     -24.731  10.695 -15.908  1.00  0.00    -0.060 C 
BRANCH  10  11
HETATM   11  C14 UNL     1     -25.862  11.569 -15.797  1.00  0.00     0.018 A 
HETATM   12  C15 UNL     1     -26.540  11.648 -14.599  1.00  0.00     0.020 A 
HETATM   13  C16 UNL     1     -27.641  12.482 -14.449  1.00  0.00     0.001 A 
HETATM   14  C17 UNL     1     -28.070  13.250 -15.516  1.00  0.00     0.000 A 
HETATM   15  C18 UNL     1     -27.397  13.173 -16.711  1.00  0.00     0.001 A 
HETATM   16  C19 UNL     1     -26.304  12.340 -16.847  1.00  0.00     0.020 A 
ENDBRANCH  10  11
ENDBRANCH   6   9
BRANCH   4  17
HETATM   17  C4  UNL     1     -21.545   6.005 -17.916  1.00  0.00    -0.009 A 
HETATM   18  C5  UNL     1     -20.361   5.358 -18.164  1.00  0.00     0.017 A 
HETATM   19  C6  UNL     1     -20.255   4.248 -18.974  1.00  0.00     0.043 A 
HETATM   20  C7  UNL     1     -21.409   3.778 -19.557  1.00  0.00     0.116 A 
HETATM   21  F1  UNL     1     -21.354   2.682 -20.367  1.00  0.00    -0.206 F 
HETATM   22  C8  UNL     1     -22.630   4.410 -19.328  1.00  0.00     0.043 A 
HETATM   23  C9  UNL     1     -22.678   5.529 -18.499  1.00  0.00     0.017 A 
ENDBRANCH   4  17
BRANCH   1  24
HETATM   24  N1  UNL     1     -19.368   8.832 -14.769  1.00  0.00    -0.230 N 
HETATM   25  C1  UNL     1     -19.481   9.190 -13.362  1.00  0.00     0.165 C 
ATOM     26  H1  UNL     1     -18.445   8.822 -15.204  1.00  0.00     0.177 HD
ENDBRANCH   1  24
TORSDOF 4
ENDMDL
MODEL 5
REMARK VINA RESULT: -7.168710989      4.667      9.524
REMARK  4 active torsions:
REMARK  status: ('A' for Active; 'I' for Inactive)
REMARK    1  A    between atoms: N1_2  and  C2_4 
REMARK    2  A    between atoms: C3_7  and  C4_8 
REMARK    3  A    between atoms: C11_16  and  C12_17 
REMARK    4  A    between atoms: C13_18  and  C14_19 
ROOT
HETATM    1  C2  UNL     1     -20.715   8.052 -15.342  1.00  0.00     0.679 A 
HETATM    2  N2  UNL     1     -21.858   8.667 -15.609  1.00  0.00    -0.191 N 
ATOM      3  H2  UNL     1     -22.143   9.432 -14.998  1.00  0.00     0.184 HD
HETATM    4  C3  UNL     1     -22.675   8.342 -16.648  1.00  0.00     0.062 A 
HETATM    5  C10 UNL     1     -22.258   7.310 -17.446  1.00  0.00     0.070 A 
HETATM    6  C11 UNL     1     -21.075   6.637 -17.209  1.00  0.00     0.105 A 
HETATM    7  N3  UNL     1     -20.332   7.035 -16.153  1.00  0.00    -0.184 N 
ATOM      8  H3  UNL     1     -19.455   6.554 -15.958  1.00  0.00     0.185 HD
ENDROOT
BRANCH   6   9
HETATM    9  C12 UNL     1     -20.670   5.559 -18.069  1.00  0.00    -0.043 C 
HETATM   10  C13 UNL     1     -20.313   4.646 -18.788  1.00  0.00    -0.060 C 
BRANCH  10  11
HETATM   11  C14 UNL     1     -19.879   3.576 -19.639  1.00  0.00     0.018 A 
HETATM   12  C15 UNL     1     -18.575   3.559 -20.089  1.00  0.00     0.020 A 
HETATM   13  C16 UNL     1     -18.113   2.541 -20.915  1.00  0.00     0.001 A 
HETATM   14  C17 UNL     1     -18.970   1.525 -21.296  1.00  0.00     0.000 A 
HETATM   15  C18 UNL     1     -20.269   1.540 -20.849  1.00  0.00     0.001 A 
HETATM   16  C19 UNL     1     -20.716   2.558 -20.028  1.00  0.00     0.020 A 
ENDBRANCH  10  11
ENDBRANCH   6   9
BRANCH   4  17
HETATM   17  C4  UNL     1     -23.916   9.068 -16.874  1.00  0.00    -0.009 A 
HETATM   18  C5  UNL     1     -24.039  10.353 -16.410  1.00  0.00     0.017 A 
HETATM   19  C6  UNL     1     -25.173  11.117 -16.577  1.00  0.00     0.043 A 
HETATM   20  C7  UNL     1     -26.229  10.545 -17.247  1.00  0.00     0.116 A 
HETATM   21  F1  UNL     1     -27.374  11.262 -17.436  1.00  0.00    -0.206 F 
HETATM   22  C8  UNL     1     -26.141   9.240 -17.732  1.00  0.00     0.043 A 
HETATM   23  C9  UNL     1     -24.968   8.514 -17.536  1.00  0.00     0.017 A 
ENDBRANCH   4  17
BRANCH   1  24
HETATM   24  N1  UNL     1     -19.940   8.356 -14.360  1.00  0.00    -0.230 N 
HETATM   25  C1  UNL     1     -19.099   9.545 -14.381  1.00  0.00     0.165 C 
ATOM     26  H1  UNL     1     -19.913   7.746 -13.544  1.00  0.00     0.177 HD
ENDBRANCH   1  24
TORSDOF 4
ENDMDL
