MODEL 1
REMARK VINA RESULT: -7.233864837      0.000      0.000
REMARK  7 active torsions:
REMARK  status: ('A' for Active; 'I' for Inactive)
REMARK    1  A    between atoms: C1_4  and  C2_6 
REMARK    2  A    between atoms: N3_9  and  C5_10 
REMARK    3  A    between atoms: C5_10  and  C6_11 
REMARK    4  A    between atoms: C6_11  and  C7_12 
REMARK    5  A    between atoms: C7_12  and  N4_13 
REMARK    6  A    between atoms: C10_16  and  C11_17 
REMARK    7  A    between atoms: N5_18  and  O1_20 
ROOT
HETATM    1  C6  UNL     1     -34.558 -58.624   8.812  1.00  0.00     0.040 C 
ENDROOT
BRANCH   1   2
HETATM    2  C5  UNL     1     -35.199 -57.815   7.751  1.00  0.00     0.129 C 
BRANCH   2   3
HETATM    3  N3  UNL     1     -34.333 -56.811   7.228  1.00  0.00    -0.366 N 
HETATM    4  C4  UNL     1     -34.093 -56.742   5.908  1.00  0.00     0.091 A 
HETATM    5  C3  UNL     1     -33.272 -55.808   5.316  1.00  0.00     0.032 A 
HETATM    6  C2  UNL     1     -32.643 -54.873   6.103  1.00  0.00     0.007 A 
HETATM    7  C15 UNL     1     -32.890 -54.946   7.455  1.00  0.00     0.032 A 
HETATM    8  C14 UNL     1     -33.714 -55.888   8.020  1.00  0.00     0.091 A 
BRANCH   6   9
HETATM    9  C1  UNL     1     -31.752 -53.842   5.557  1.00  0.00     0.120 C 
HETATM   10  N1  UNL     1     -31.225 -53.927   4.385  1.00  0.00    -0.387 N 
ATOM     11  H12 UNL     1     -30.606 -53.211   4.006  1.00  0.00     0.157 HD
ATOM     12  H11 UNL     1     -31.457 -54.757   3.839  1.00  0.00     0.157 HD
HETATM   13  N2  UNL     1     -31.432 -52.694   6.314  1.00  0.00    -0.082 NA
ENDBRANCH   6   9
ENDBRANCH   2   3
ENDBRANCH   1   2
BRANCH   1  14
HETATM   14  C7  UNL     1     -33.578 -59.615   8.254  1.00  0.00     0.129 C 
BRANCH  14  15
HETATM   15  N4  UNL     1     -32.246 -59.215   8.727  1.00  0.00    -0.366 N 
HETATM   16  C8  UNL     1     -31.825 -59.434   9.977  1.00  0.00     0.091 A 
HETATM   17  C9  UNL     1     -30.585 -59.064  10.433  1.00  0.00     0.030 A 
HETATM   18  C10 UNL     1     -29.706 -58.419   9.541  1.00  0.00    -0.016 A 
HETATM   19  C12 UNL     1     -30.175 -58.215   8.267  1.00  0.00     0.030 A 
HETATM   20  C13 UNL     1     -31.441 -58.607   7.848  1.00  0.00     0.091 A 
BRANCH  18  21
HETATM   21  C11 UNL     1     -28.400 -58.017   9.981  1.00  0.00     0.125 C 
HETATM   22  N5  UNL     1     -27.252 -58.319   9.569  1.00  0.00    -0.280 N 
ATOM     23  H5  UNL     1     -26.479 -57.883  10.072  1.00  0.00     0.193 HD
BRANCH  22  24
HETATM   24  O1  UNL     1     -26.898 -59.125   8.573  1.00  0.00    -0.290 OA
ATOM     25  H1  UNL     1     -26.097 -59.135   8.061  1.00  0.00     0.244 HD
ENDBRANCH  22  24
ENDBRANCH  18  21
ENDBRANCH  14  15
ENDBRANCH   1  14
TORSDOF 7
ENDMDL
MODEL 2
REMARK VINA RESULT: -7.232579397      0.043      1.021
REMARK  7 active torsions:
REMARK  status: ('A' for Active; 'I' for Inactive)
REMARK    1  A    between atoms: C1_4  and  C2_6 
REMARK    2  A    between atoms: N3_9  and  C5_10 
REMARK    3  A    between atoms: C5_10  and  C6_11 
REMARK    4  A    between atoms: C6_11  and  C7_12 
REMARK    5  A    between atoms: C7_12  and  N4_13 
REMARK    6  A    between atoms: C10_16  and  C11_17 
REMARK    7  A    between atoms: N5_18  and  O1_20 
ROOT
HETATM    1  C6  UNL     1     -34.545 -58.625   8.823  1.00  0.00     0.040 C 
ENDROOT
BRANCH   1   2
HETATM    2  C5  UNL     1     -35.190 -57.816   7.763  1.00  0.00     0.129 C 
BRANCH   2   3
HETATM    3  N3  UNL     1     -34.324 -56.815   7.234  1.00  0.00    -0.366 N 
HETATM    4  C4  UNL     1     -34.078 -56.758   5.916  1.00  0.00     0.091 A 
HETATM    5  C3  UNL     1     -33.257 -55.827   5.318  1.00  0.00     0.032 A 
HETATM    6  C2  UNL     1     -32.635 -54.882   6.099  1.00  0.00     0.007 A 
HETATM    7  C15 UNL     1     -32.889 -54.943   7.450  1.00  0.00     0.032 A 
HETATM    8  C14 UNL     1     -33.712 -55.882   8.020  1.00  0.00     0.091 A 
BRANCH   6   9
HETATM    9  C1  UNL     1     -31.745 -53.854   5.548  1.00  0.00     0.120 C 
HETATM   10  N1  UNL     1     -31.209 -53.950   4.381  1.00  0.00    -0.387 N 
ATOM     11  H12 UNL     1     -30.591 -53.236   3.998  1.00  0.00     0.157 HD
ATOM     12  H11 UNL     1     -31.432 -54.787   3.843  1.00  0.00     0.157 HD
HETATM   13  N2  UNL     1     -31.437 -52.694   6.293  1.00  0.00    -0.082 NA
ENDBRANCH   6   9
ENDBRANCH   2   3
ENDBRANCH   1   2
BRANCH   1  14
HETATM   14  C7  UNL     1     -33.574 -59.623   8.261  1.00  0.00     0.129 C 
BRANCH  14  15
HETATM   15  N4  UNL     1     -32.230 -59.192   8.670  1.00  0.00    -0.366 N 
HETATM   16  C8  UNL     1     -31.393 -58.551   7.849  1.00  0.00     0.091 A 
HETATM   17  C9  UNL     1     -30.135 -58.145   8.217  1.00  0.00     0.030 A 
HETATM   18  C10 UNL     1     -29.698 -58.418   9.528  1.00  0.00    -0.016 A 
HETATM   19  C12 UNL     1     -30.587 -59.076  10.340  1.00  0.00     0.030 A 
HETATM   20  C13 UNL     1     -31.854 -59.469   9.925  1.00  0.00     0.091 A 
BRANCH  18  21
HETATM   21  C11 UNL     1     -28.388 -58.009   9.951  1.00  0.00     0.125 C 
HETATM   22  N5  UNL     1     -27.243 -58.320   9.536  1.00  0.00    -0.280 N 
ATOM     23  H5  UNL     1     -26.466 -57.876  10.024  1.00  0.00     0.193 HD
BRANCH  22  24
HETATM   24  O1  UNL     1     -26.898 -59.145   8.551  1.00  0.00    -0.290 OA
ATOM     25  H1  UNL     1     -27.358 -59.346   7.744  1.00  0.00     0.244 HD
ENDBRANCH  22  24
ENDBRANCH  18  21
ENDBRANCH  14  15
ENDBRANCH   1  14
TORSDOF 7
ENDMDL
MODEL 3
REMARK VINA RESULT: -7.221216439      0.041      1.015
REMARK  7 active torsions:
REMARK  status: ('A' for Active; 'I' for Inactive)
REMARK    1  A    between atoms: C1_4  and  C2_6 
REMARK    2  A    between atoms: N3_9  and  C5_10 
REMARK    3  A    between atoms: C5_10  and  C6_11 
REMARK    4  A    between atoms: C6_11  and  C7_12 
REMARK    5  A    between atoms: C7_12  and  N4_13 
REMARK    6  A    between atoms: C10_16  and  C11_17 
REMARK    7  A    between atoms: N5_18  and  O1_20 
ROOT
HETATM    1  C6  UNL     1     -34.548 -58.626   8.822  1.00  0.00     0.040 C 
ENDROOT
BRANCH   1   2
HETATM    2  C5  UNL     1     -35.220 -57.830   7.770  1.00  0.00     0.129 C 
BRANCH   2   3
HETATM    3  N3  UNL     1     -34.363 -56.847   7.195  1.00  0.00    -0.366 N 
HETATM    4  C4  UNL     1     -33.754 -55.938   7.974  1.00  0.00     0.091 A 
HETATM    5  C3  UNL     1     -32.912 -54.953   7.505  1.00  0.00     0.032 A 
HETATM    6  C2  UNL     1     -32.661 -54.872   6.156  1.00  0.00     0.007 A 
HETATM    7  C15 UNL     1     -33.286 -55.805   5.361  1.00  0.00     0.032 A 
HETATM    8  C14 UNL     1     -34.121 -56.776   5.854  1.00  0.00     0.091 A 
BRANCH   6   9
HETATM    9  C1  UNL     1     -31.777 -53.856   5.571  1.00  0.00     0.120 C 
HETATM   10  N1  UNL     1     -31.278 -53.965   4.390  1.00  0.00    -0.387 N 
ATOM     11  H12 UNL     1     -30.664 -53.260   3.984  1.00  0.00     0.157 HD
ATOM     12  H11 UNL     1     -31.525 -54.803   3.864  1.00  0.00     0.157 HD
HETATM   13  N2  UNL     1     -31.435 -52.696   6.299  1.00  0.00    -0.082 NA
ENDBRANCH   6   9
ENDBRANCH   2   3
ENDBRANCH   1   2
BRANCH   1  14
HETATM   14  C7  UNL     1     -33.568 -59.609   8.250  1.00  0.00     0.129 C 
BRANCH  14  15
HETATM   15  N4  UNL     1     -32.235 -59.208   8.717  1.00  0.00    -0.366 N 
HETATM   16  C8  UNL     1     -31.805 -59.434   9.963  1.00  0.00     0.091 A 
HETATM   17  C9  UNL     1     -30.563 -59.064  10.413  1.00  0.00     0.030 A 
HETATM   18  C10 UNL     1     -29.692 -58.409   9.520  1.00  0.00    -0.016 A 
HETATM   19  C12 UNL     1     -30.170 -58.197   8.251  1.00  0.00     0.030 A 
HETATM   20  C13 UNL     1     -31.438 -58.591   7.837  1.00  0.00     0.091 A 
BRANCH  18  21
HETATM   21  C11 UNL     1     -28.384 -58.006   9.955  1.00  0.00     0.125 C 
HETATM   22  N5  UNL     1     -27.238 -58.310   9.541  1.00  0.00    -0.280 N 
ATOM     23  H5  UNL     1     -26.463 -57.873  10.040  1.00  0.00     0.193 HD
BRANCH  22  24
HETATM   24  O1  UNL     1     -26.887 -59.121   8.547  1.00  0.00    -0.290 OA
ATOM     25  H1  UNL     1     -26.887 -58.961   7.610  1.00  0.00     0.244 HD
ENDBRANCH  22  24
ENDBRANCH  18  21
ENDBRANCH  14  15
ENDBRANCH   1  14
TORSDOF 7
ENDMDL
MODEL 4
REMARK VINA RESULT: -7.220081578      0.062      1.440
REMARK  7 active torsions:
REMARK  status: ('A' for Active; 'I' for Inactive)
REMARK    1  A    between atoms: C1_4  and  C2_6 
REMARK    2  A    between atoms: N3_9  and  C5_10 
REMARK    3  A    between atoms: C5_10  and  C6_11 
REMARK    4  A    between atoms: C6_11  and  C7_12 
REMARK    5  A    between atoms: C7_12  and  N4_13 
REMARK    6  A    between atoms: C10_16  and  C11_17 
REMARK    7  A    between atoms: N5_18  and  O1_20 
ROOT
HETATM    1  C6  UNL     1     -34.542 -58.636   8.828  1.00  0.00     0.040 C 
ENDROOT
BRANCH   1   2
HETATM    2  C5  UNL     1     -35.213 -57.854   7.765  1.00  0.00     0.129 C 
BRANCH   2   3
HETATM    3  N3  UNL     1     -34.361 -56.867   7.190  1.00  0.00    -0.366 N 
HETATM    4  C4  UNL     1     -33.776 -55.940   7.965  1.00  0.00     0.091 A 
HETATM    5  C3  UNL     1     -32.940 -54.950   7.497  1.00  0.00     0.032 A 
HETATM    6  C2  UNL     1     -32.670 -54.883   6.150  1.00  0.00     0.007 A 
HETATM    7  C15 UNL     1     -33.271 -55.833   5.358  1.00  0.00     0.032 A 
HETATM    8  C14 UNL     1     -34.101 -56.810   5.852  1.00  0.00     0.091 A 
BRANCH   6   9
HETATM    9  C1  UNL     1     -31.792 -53.863   5.565  1.00  0.00     0.120 C 
HETATM   10  N1  UNL     1     -31.284 -53.974   4.387  1.00  0.00    -0.387 N 
ATOM     11  H12 UNL     1     -30.675 -53.265   3.981  1.00  0.00     0.157 HD
ATOM     12  H11 UNL     1     -31.522 -54.817   3.865  1.00  0.00     0.157 HD
HETATM   13  N2  UNL     1     -31.465 -52.695   6.288  1.00  0.00    -0.082 NA
ENDBRANCH   6   9
ENDBRANCH   2   3
ENDBRANCH   1   2
BRANCH   1  14
HETATM   14  C7  UNL     1     -33.568 -59.632   8.269  1.00  0.00     0.129 C 
BRANCH  14  15
HETATM   15  N4  UNL     1     -32.225 -59.195   8.675  1.00  0.00    -0.366 N 
HETATM   16  C8  UNL     1     -31.394 -58.548   7.853  1.00  0.00     0.091 A 
HETATM   17  C9  UNL     1     -30.137 -58.137   8.218  1.00  0.00     0.030 A 
HETATM   18  C10 UNL     1     -29.695 -58.409   9.527  1.00  0.00    -0.016 A 
HETATM   19  C12 UNL     1     -30.578 -59.075  10.341  1.00  0.00     0.030 A 
HETATM   20  C13 UNL     1     -31.844 -59.473   9.928  1.00  0.00     0.091 A 
BRANCH  18  21
HETATM   21  C11 UNL     1     -28.386 -57.995   9.947  1.00  0.00     0.125 C 
HETATM   22  N5  UNL     1     -27.240 -58.308   9.536  1.00  0.00    -0.280 N 
ATOM     23  H5  UNL     1     -26.464 -57.858  10.021  1.00  0.00     0.193 HD
BRANCH  22  24
HETATM   24  O1  UNL     1     -26.893 -59.142   8.560  1.00  0.00    -0.290 OA
ATOM     25  H1  UNL     1     -26.254 -59.026   7.867  1.00  0.00     0.244 HD
ENDBRANCH  22  24
ENDBRANCH  18  21
ENDBRANCH  14  15
ENDBRANCH   1  14
TORSDOF 7
ENDMDL
MODEL 5
REMARK VINA RESULT: -7.045239650      1.657      2.453
REMARK  7 active torsions:
REMARK  status: ('A' for Active; 'I' for Inactive)
REMARK    1  A    between atoms: C1_4  and  C2_6 
REMARK    2  A    between atoms: N3_9  and  C5_10 
REMARK    3  A    between atoms: C5_10  and  C6_11 
REMARK    4  A    between atoms: C6_11  and  C7_12 
REMARK    5  A    between atoms: C7_12  and  N4_13 
REMARK    6  A    between atoms: C10_16  and  C11_17 
REMARK    7  A    between atoms: N5_18  and  O1_20 
ROOT
HETATM    1  C6  UNL     1     -33.303 -55.705   9.137  1.00  0.00     0.040 C 
ENDROOT
BRANCH   1   2
HETATM    2  C5  UNL     1     -33.862 -55.479   7.785  1.00  0.00     0.129 C 
BRANCH   2   3
HETATM    3  N3  UNL     1     -32.859 -55.161   6.823  1.00  0.00    -0.366 N 
HETATM    4  C4  UNL     1     -31.572 -55.058   7.193  1.00  0.00     0.091 A 
HETATM    5  C3  UNL     1     -30.539 -54.755   6.334  1.00  0.00     0.032 A 
HETATM    6  C2  UNL     1     -30.814 -54.538   5.004  1.00  0.00     0.007 A 
HETATM    7  C15 UNL     1     -32.134 -54.644   4.628  1.00  0.00     0.032 A 
HETATM    8  C14 UNL     1     -33.145 -54.948   5.506  1.00  0.00     0.091 A 
BRANCH   6   9
HETATM    9  C1  UNL     1     -29.776 -54.210   4.020  1.00  0.00     0.120 C 
HETATM   10  N1  UNL     1     -29.101 -55.110   3.394  1.00  0.00    -0.387 N 
ATOM     11  H12 UNL     1     -28.380 -54.883   2.710  1.00  0.00     0.157 HD
ATOM     12  H11 UNL     1     -29.321 -56.082   3.614  1.00  0.00     0.157 HD
HETATM   13  N2  UNL     1     -29.473 -52.865   3.715  1.00  0.00    -0.082 NA
ENDBRANCH   6   9
ENDBRANCH   2   3
ENDBRANCH   1   2
BRANCH   1  14
HETATM   14  C7  UNL     1     -33.466 -57.128   9.587  1.00  0.00     0.129 C 
BRANCH  14  15
HETATM   15  N4  UNL     1     -32.174 -57.794   9.382  1.00  0.00    -0.366 N 
HETATM   16  C8  UNL     1     -31.906 -58.543   8.308  1.00  0.00     0.091 A 
HETATM   17  C9  UNL     1     -30.704 -59.173   8.105  1.00  0.00     0.030 A 
HETATM   18  C10 UNL     1     -29.696 -59.026   9.077  1.00  0.00    -0.016 A 
HETATM   19  C12 UNL     1     -30.010 -58.249  10.165  1.00  0.00     0.030 A 
HETATM   20  C13 UNL     1     -31.243 -57.628  10.329  1.00  0.00     0.091 A 
BRANCH  18  21
HETATM   21  C11 UNL     1     -28.425 -59.670   8.901  1.00  0.00     0.125 C 
HETATM   22  N5  UNL     1     -27.347 -59.263   8.400  1.00  0.00    -0.280 N 
ATOM     23  H5  UNL     1     -26.583 -59.939   8.399  1.00  0.00     0.193 HD
BRANCH  22  24
HETATM   24  O1  UNL     1     -27.057 -58.078   7.871  1.00  0.00    -0.290 OA
ATOM     25  H1  UNL     1     -26.291 -57.531   8.001  1.00  0.00     0.244 HD
ENDBRANCH  22  24
ENDBRANCH  18  21
ENDBRANCH  14  15
ENDBRANCH   1  14
TORSDOF 7
ENDMDL
