MODEL 1
REMARK VINA RESULT: -7.618580507      0.000      0.000
REMARK  2 active torsions:
REMARK  status: ('A' for Active; 'I' for Inactive)
REMARK    1  A    between atoms: C1_2  and  C2_4 
REMARK    2  A    between atoms: C4_8  and  C5_9 
ROOT
HETATM    1  C2  UNL     1       2.087  24.837  10.915  1.00  0.00     0.088 C 
HETATM    2  C3  UNL     1       1.516  24.878  12.343  1.00  0.00     0.142 C 
HETATM    3  N1  UNL     1       0.232  25.568  12.159  1.00  0.00    -0.148 NA
HETATM    4  N2  UNL     1      -0.200  25.112  10.886  1.00  0.00    -0.143 NA
HETATM    5  C4  UNL     1       1.021  25.383  10.105  1.00  0.00     0.110 C 
ENDROOT
BRANCH   5   6
HETATM    6  C5  UNL     1       0.837  25.024   8.689  1.00  0.00     0.007 C 
HETATM    7  C6  UNL     1       0.493  23.601   8.467  1.00  0.00     0.006 C 
HETATM    8  C7  UNL     1       0.782  23.376   6.966  1.00  0.00     0.000 C 
HETATM    9  C8  UNL     1      -0.318  24.096   6.248  1.00  0.00     0.000 C 
HETATM   10  C9  UNL     1      -0.584  25.484   6.655  1.00  0.00     0.000 C 
HETATM   11  C10 UNL     1      -0.206  25.894   8.030  1.00  0.00     0.006 C 
ENDBRANCH   5   6
BRANCH   1  12
HETATM   12  C1  UNL     1       2.743  23.549  10.622  1.00  0.00     0.360 C 
HETATM   13  F1  UNL     1       2.019  22.508  11.283  1.00  0.00    -0.214 F 
HETATM   14  F2  UNL     1       3.999  23.468  11.190  1.00  0.00    -0.214 F 
ENDBRANCH   1  12
TORSDOF 2
ENDMDL
MODEL 2
REMARK VINA RESULT: -7.517230456      5.361      6.745
REMARK  2 active torsions:
REMARK  status: ('A' for Active; 'I' for Inactive)
REMARK    1  A    between atoms: C1_2  and  C2_4 
REMARK    2  A    between atoms: C4_8  and  C5_9 
ROOT
HETATM    1  C2  UNL     1      -0.126  26.618   5.191  1.00  0.00     0.088 C 
HETATM    2  C3  UNL     1      -0.665  25.186   5.355  1.00  0.00     0.142 C 
HETATM    3  N1  UNL     1      -0.507  24.623   4.006  1.00  0.00    -0.148 NA
HETATM    4  N2  UNL     1       0.689  25.231   3.542  1.00  0.00    -0.143 NA
HETATM    5  C4  UNL     1       0.373  26.641   3.834  1.00  0.00     0.110 C 
ENDROOT
BRANCH   5   6
HETATM    6  C5  UNL     1       1.466  27.531   3.407  1.00  0.00     0.007 C 
HETATM    7  C6  UNL     1       2.766  26.845   3.225  1.00  0.00     0.006 C 
HETATM    8  C7  UNL     1       3.798  27.995   3.218  1.00  0.00     0.000 C 
HETATM    9  C8  UNL     1       3.602  28.682   1.902  1.00  0.00     0.000 C 
HETATM   10  C9  UNL     1       2.224  29.047   1.538  1.00  0.00     0.000 C 
HETATM   11  C10 UNL     1       1.114  28.267   2.137  1.00  0.00     0.006 C 
ENDBRANCH   5   6
BRANCH   1  12
HETATM   12  C1  UNL     1       0.677  27.039   6.353  1.00  0.00     0.360 C 
HETATM   13  F1  UNL     1       1.883  26.271   6.377  1.00  0.00    -0.214 F 
HETATM   14  F2  UNL     1       0.070  26.709   7.548  1.00  0.00    -0.214 F 
ENDBRANCH   1  12
TORSDOF 2
ENDMDL
MODEL 3
REMARK VINA RESULT: -7.418955786      4.733      6.078
REMARK  2 active torsions:
REMARK  status: ('A' for Active; 'I' for Inactive)
REMARK    1  A    between atoms: C1_2  and  C2_4 
REMARK    2  A    between atoms: C4_8  and  C5_9 
ROOT
HETATM    1  C2  UNL     1       0.195  25.914   5.995  1.00  0.00     0.088 C 
HETATM    2  C3  UNL     1      -0.174  24.428   6.149  1.00  0.00     0.142 C 
HETATM    3  N1  UNL     1      -0.757  24.101   4.840  1.00  0.00    -0.148 NA
HETATM    4  N2  UNL     1       0.010  24.888   3.941  1.00  0.00    -0.143 NA
HETATM    5  C4  UNL     1      -0.103  26.198   4.609  1.00  0.00     0.110 C 
ENDROOT
BRANCH   5   6
HETATM    6  C5  UNL     1       0.595  27.246   3.846  1.00  0.00     0.007 C 
HETATM    7  C6  UNL     1       1.606  26.729   2.896  1.00  0.00     0.006 C 
HETATM    8  C7  UNL     1       2.474  27.964   2.564  1.00  0.00     0.000 C 
HETATM    9  C8  UNL     1       1.609  28.819   1.690  1.00  0.00     0.000 C 
HETATM   10  C9  UNL     1       0.246  29.096   2.166  1.00  0.00     0.000 C 
HETATM   11  C10 UNL     1      -0.378  28.128   3.101  1.00  0.00     0.006 C 
ENDBRANCH   5   6
BRANCH   1  12
HETATM   12  C1  UNL     1       1.493  26.226   6.621  1.00  0.00     0.360 C 
HETATM   13  F1  UNL     1       2.533  25.646   5.829  1.00  0.00    -0.214 F 
HETATM   14  F2  UNL     1       1.642  25.599   7.842  1.00  0.00    -0.214 F 
ENDBRANCH   1  12
TORSDOF 2
ENDMDL
MODEL 4
REMARK VINA RESULT: -7.286694852      3.279      4.449
REMARK  2 active torsions:
REMARK  status: ('A' for Active; 'I' for Inactive)
REMARK    1  A    between atoms: C1_2  and  C2_4 
REMARK    2  A    between atoms: C4_8  and  C5_9 
ROOT
HETATM    1  C2  UNL     1      -0.139  24.671   7.845  1.00  0.00     0.088 C 
HETATM    2  C3  UNL     1       0.520  23.341   8.251  1.00  0.00     0.142 C 
HETATM    3  N1  UNL     1       1.045  22.835   6.975  1.00  0.00    -0.148 NA
HETATM    4  N2  UNL     1       1.437  24.019   6.296  1.00  0.00    -0.143 NA
HETATM    5  C4  UNL     1       0.199  24.806   6.445  1.00  0.00     0.110 C 
ENDROOT
BRANCH   5   6
HETATM    6  C5  UNL     1       0.316  26.114   5.781  1.00  0.00     0.007 C 
HETATM    7  C6  UNL     1       1.670  26.405   5.256  1.00  0.00     0.006 C 
HETATM    8  C7  UNL     1       1.660  27.932   5.020  1.00  0.00     0.000 C 
HETATM    9  C8  UNL     1       0.791  28.132   3.817  1.00  0.00     0.000 C 
HETATM   10  C9  UNL     1      -0.522  27.470   3.825  1.00  0.00     0.000 C 
HETATM   11  C10 UNL     1      -0.689  26.258   4.663  1.00  0.00     0.006 C 
ENDBRANCH   5   6
BRANCH   1  12
HETATM   12  C1  UNL     1       0.106  25.731   8.840  1.00  0.00     0.360 C 
HETATM   13  F1  UNL     1       0.116  25.142  10.142  1.00  0.00    -0.214 F 
HETATM   14  F2  UNL     1      -0.941  26.628   8.908  1.00  0.00    -0.214 F 
ENDBRANCH   1  12
TORSDOF 2
ENDMDL
MODEL 5
REMARK VINA RESULT: -7.260252150      6.134      7.752
REMARK  2 active torsions:
REMARK  status: ('A' for Active; 'I' for Inactive)
REMARK    1  A    between atoms: C1_2  and  C2_4 
REMARK    2  A    between atoms: C4_8  and  C5_9 
ROOT
HETATM    1  C2  UNL     1       0.360  29.274   3.428  1.00  0.00     0.088 C 
HETATM    2  C3  UNL     1       0.541  29.548   1.925  1.00  0.00     0.142 C 
HETATM    3  N1  UNL     1       1.094  28.281   1.427  1.00  0.00    -0.148 NA
HETATM    4  N2  UNL     1       0.441  27.308   2.230  1.00  0.00    -0.143 NA
HETATM    5  C4  UNL     1       0.707  27.876   3.564  1.00  0.00     0.110 C 
ENDROOT
BRANCH   5   6
HETATM    6  C5  UNL     1       0.152  27.022   4.627  1.00  0.00     0.007 C 
HETATM    7  C6  UNL     1       0.022  25.596   4.248  1.00  0.00     0.006 C 
HETATM    8  C7  UNL     1      -0.948  25.016   5.301  1.00  0.00     0.000 C 
HETATM    9  C8  UNL     1      -0.149  24.948   6.566  1.00  0.00     0.000 C 
HETATM   10  C9  UNL     1       0.583  26.161   6.959  1.00  0.00     0.000 C 
HETATM   11  C10 UNL     1       0.963  27.123   5.896  1.00  0.00     0.006 C 
ENDBRANCH   5   6
BRANCH   1  12
HETATM   12  C1  UNL     1      -0.897  29.846   3.944  1.00  0.00     0.360 C 
HETATM   13  F1  UNL     1      -0.802  29.951   5.367  1.00  0.00    -0.214 F 
HETATM   14  F2  UNL     1      -1.967  28.993   3.762  1.00  0.00    -0.214 F 
ENDBRANCH   1  12
TORSDOF 2
ENDMDL
