MODEL 1
REMARK VINA RESULT: -6.663308821      0.000      0.000
REMARK  3 active torsions:
REMARK  status: ('A' for Active; 'I' for Inactive)
REMARK    1  A    between atoms: C11_13  and  C12_14 
REMARK    2  A    between atoms: C12_14  and  O2_15 
REMARK    3  A    between atoms: C16_20  and  O3_21 
ROOT
HETATM    1  C1  UNL     1     -17.218  33.083  -5.349  1.00  0.00     0.048 C 
HETATM    2  C2  UNL     1     -17.085  34.506  -4.741  1.00  0.00    -0.055 C 
HETATM    3  C3  UNL     1     -17.786  35.403  -5.374  1.00  0.00     0.004 C 
HETATM    4  C4  UNL     1     -18.060  36.817  -5.296  1.00  0.00    -0.016 C 
HETATM    5  C5  UNL     1     -17.538  37.764  -4.355  1.00  0.00     0.077 C 
HETATM    6  C6  UNL     1     -16.071  37.845  -4.071  1.00  0.00     0.164 C 
HETATM    7  O1  UNL     1     -15.288  37.032  -4.794  1.00  0.00    -0.380 OA
HETATM    8  C7  UNL     1     -14.375  36.258  -4.178  1.00  0.00     0.198 C 
HETATM    9  C8  UNL     1     -14.757  34.856  -3.922  1.00  0.00     0.081 C 
HETATM   10  C9  UNL     1     -13.772  34.281  -2.964  1.00  0.00     0.040 C 
HETATM   11 CL1  UNL     1     -14.488  33.936  -5.461  1.00  0.00    -0.112 Cl
HETATM   12  C10 UNL     1     -16.193  34.569  -3.582  1.00  0.00    -0.013 C 
HETATM   13  C11 UNL     1     -16.716  35.232  -2.341  1.00  0.00     0.109 C 
HETATM   14  C13 UNL     1     -18.210  35.341  -2.291  1.00  0.00     0.052 C 
HETATM   15  C14 UNL     1     -18.655  36.754  -2.291  1.00  0.00     0.023 C 
HETATM   16  C15 UNL     1     -20.133  36.865  -2.696  1.00  0.00     0.013 C 
HETATM   17  C16 UNL     1     -17.821  37.775  -2.930  1.00  0.00     0.099 C 
HETATM   18  C17 UNL     1     -16.362  37.532  -2.649  1.00  0.00     0.188 C 
HETATM   19  O4  UNL     1     -16.020  36.365  -2.147  1.00  0.00    -0.362 OA
ENDROOT
BRANCH  13  20
HETATM   20  C12 UNL     1     -16.380  34.399  -1.069  1.00  0.00     0.207 C 
BRANCH  20  21
HETATM   21  O2  UNL     1     -15.697  35.176  -0.143  1.00  0.00    -0.398 OA
ATOM     22  H2  UNL     1     -14.761  35.040  -0.219  1.00  0.00     0.209 HD
ENDBRANCH  20  21
ENDBRANCH  13  20
BRANCH  17  23
HETATM   23  O3  UNL     1     -18.260  39.037  -2.415  1.00  0.00    -0.386 OA
ATOM     24  H3  UNL     1     -18.200  39.125  -1.470  1.00  0.00     0.210 HD
ENDBRANCH  17  23
TORSDOF 3
ENDMDL
MODEL 2
REMARK VINA RESULT: -5.991023597      2.335      3.768
REMARK  3 active torsions:
REMARK  status: ('A' for Active; 'I' for Inactive)
REMARK    1  A    between atoms: C11_13  and  C12_14 
REMARK    2  A    between atoms: C12_14  and  O2_15 
REMARK    3  A    between atoms: C16_20  and  O3_21 
ROOT
HETATM    1  C1  UNL     1     -18.347  36.682   0.918  1.00  0.00     0.048 C 
HETATM    2  C2  UNL     1     -18.368  36.659  -0.635  1.00  0.00    -0.055 C 
HETATM    3  C3  UNL     1     -19.525  36.986  -1.138  1.00  0.00     0.004 C 
HETATM    4  C4  UNL     1     -20.138  37.139  -2.434  1.00  0.00    -0.016 C 
HETATM    5  C5  UNL     1     -19.542  36.927  -3.721  1.00  0.00     0.077 C 
HETATM    6  C6  UNL     1     -18.782  35.675  -4.024  1.00  0.00     0.164 C 
HETATM    7  O1  UNL     1     -18.756  34.754  -3.049  1.00  0.00    -0.380 OA
HETATM    8  C7  UNL     1     -17.582  34.214  -2.669  1.00  0.00     0.198 C 
HETATM    9  C8  UNL     1     -16.946  34.790  -1.469  1.00  0.00     0.081 C 
HETATM   10  C9  UNL     1     -15.542  34.295  -1.413  1.00  0.00     0.040 C 
HETATM   11 CL1  UNL     1     -17.749  34.046  -0.024  1.00  0.00    -0.112 Cl
HETATM   12  C10 UNL     1     -17.092  36.269  -1.235  1.00  0.00    -0.013 C 
HETATM   13  C11 UNL     1     -16.528  37.158  -2.305  1.00  0.00     0.109 C 
HETATM   14  C13 UNL     1     -17.099  38.544  -2.308  1.00  0.00     0.052 C 
HETATM   15  C14 UNL     1     -17.841  38.826  -3.559  1.00  0.00     0.023 C 
HETATM   16  C15 UNL     1     -18.784  40.026  -3.380  1.00  0.00     0.013 C 
HETATM   17  C16 UNL     1     -18.470  37.724  -4.291  1.00  0.00     0.099 C 
HETATM   18  C17 UNL     1     -17.584  36.507  -4.297  1.00  0.00     0.188 C 
HETATM   19  O4  UNL     1     -16.563  36.487  -3.468  1.00  0.00    -0.362 OA
ENDROOT
BRANCH  13  20
HETATM   20  C12 UNL     1     -15.005  37.403  -2.093  1.00  0.00     0.207 C 
BRANCH  20  21
HETATM   21  O2  UNL     1     -14.263  36.718  -3.046  1.00  0.00    -0.398 OA
ATOM     22  H2  UNL     1     -13.973  37.308  -3.731  1.00  0.00     0.209 HD
ENDBRANCH  20  21
ENDBRANCH  13  20
BRANCH  17  23
HETATM   23  O3  UNL     1     -18.720  38.209  -5.615  1.00  0.00    -0.386 OA
ATOM     24  H3  UNL     1     -19.596  38.039  -5.942  1.00  0.00     0.210 HD
ENDBRANCH  17  23
TORSDOF 3
ENDMDL
MODEL 3
REMARK VINA RESULT: -5.972882213      2.312      4.409
REMARK  3 active torsions:
REMARK  status: ('A' for Active; 'I' for Inactive)
REMARK    1  A    between atoms: C11_13  and  C12_14 
REMARK    2  A    between atoms: C12_14  and  O2_15 
REMARK    3  A    between atoms: C16_20  and  O3_21 
ROOT
HETATM    1  C1  UNL     1     -16.455  39.449  -2.656  1.00  0.00     0.048 C 
HETATM    2  C2  UNL     1     -16.935  38.050  -3.132  1.00  0.00    -0.055 C 
HETATM    3  C3  UNL     1     -16.868  37.896  -4.424  1.00  0.00     0.004 C 
HETATM    4  C4  UNL     1     -17.153  36.884  -5.410  1.00  0.00    -0.016 C 
HETATM    5  C5  UNL     1     -17.684  35.569  -5.194  1.00  0.00     0.077 C 
HETATM    6  C6  UNL     1     -18.902  35.355  -4.353  1.00  0.00     0.164 C 
HETATM    7  O1  UNL     1     -19.490  36.463  -3.879  1.00  0.00    -0.380 OA
HETATM    8  C7  UNL     1     -19.794  36.553  -2.571  1.00  0.00     0.198 C 
HETATM    9  C8  UNL     1     -18.841  37.288  -1.718  1.00  0.00     0.081 C 
HETATM   10  C9  UNL     1     -19.178  36.995  -0.297  1.00  0.00     0.040 C 
HETATM   11 CL1  UNL     1     -19.193  39.056  -1.915  1.00  0.00    -0.112 Cl
HETATM   12  C10 UNL     1     -17.376  37.178  -2.043  1.00  0.00    -0.013 C 
HETATM   13  C11 UNL     1     -16.797  35.795  -1.984  1.00  0.00     0.109 C 
HETATM   14  C13 UNL     1     -15.525  35.634  -2.762  1.00  0.00     0.052 C 
HETATM   15  C14 UNL     1     -15.685  34.674  -3.878  1.00  0.00     0.023 C 
HETATM   16  C15 UNL     1     -14.569  34.850  -4.919  1.00  0.00     0.013 C 
HETATM   17  C16 UNL     1     -17.003  34.494  -4.494  1.00  0.00     0.099 C 
HETATM   18  C17 UNL     1     -18.089  34.498  -3.452  1.00  0.00     0.188 C 
HETATM   19  O4  UNL     1     -17.780  34.918  -2.244  1.00  0.00    -0.362 OA
ENDROOT
BRANCH  13  20
HETATM   20  C12 UNL     1     -16.373  35.419  -0.533  1.00  0.00     0.207 C 
BRANCH  20  21
HETATM   21  O2  UNL     1     -16.730  34.108  -0.245  1.00  0.00    -0.398 OA
ATOM     22  H2  UNL     1     -17.570  34.081   0.196  1.00  0.00     0.209 HD
ENDBRANCH  20  21
ENDBRANCH  13  20
BRANCH  17  23
HETATM   23  O3  UNL     1     -16.950  33.252  -5.205  1.00  0.00    -0.386 OA
ATOM     24  H3  UNL     1     -16.211  32.697  -4.984  1.00  0.00     0.210 HD
ENDBRANCH  17  23
TORSDOF 3
ENDMDL
MODEL 4
REMARK VINA RESULT: -5.957708765      2.334      4.938
REMARK  3 active torsions:
REMARK  status: ('A' for Active; 'I' for Inactive)
REMARK    1  A    between atoms: C11_13  and  C12_14 
REMARK    2  A    between atoms: C12_14  and  O2_15 
REMARK    3  A    between atoms: C16_20  and  O3_21 
ROOT
HETATM    1  C1  UNL     1     -17.302  34.283  -1.462  1.00  0.00     0.048 C 
HETATM    2  C2  UNL     1     -16.260  34.520  -2.589  1.00  0.00    -0.055 C 
HETATM    3  C3  UNL     1     -15.057  34.138  -2.266  1.00  0.00     0.004 C 
HETATM    4  C4  UNL     1     -13.740  34.098  -2.850  1.00  0.00    -0.016 C 
HETATM    5  C5  UNL     1     -13.339  34.555  -4.149  1.00  0.00     0.077 C 
HETATM    6  C6  UNL     1     -13.718  35.915  -4.642  1.00  0.00     0.164 C 
HETATM    7  O1  UNL     1     -14.388  36.688  -3.775  1.00  0.00    -0.380 OA
HETATM    8  C7  UNL     1     -15.524  37.298  -4.161  1.00  0.00     0.198 C 
HETATM    9  C8  UNL     1     -16.791  36.637  -3.794  1.00  0.00     0.081 C 
HETATM   10  C9  UNL     1     -17.885  37.275  -4.578  1.00  0.00     0.040 C 
HETATM   11 CL1  UNL     1     -17.148  37.076  -2.072  1.00  0.00    -0.112 Cl
HETATM   12  C10 UNL     1     -16.825  35.133  -3.792  1.00  0.00    -0.013 C 
HETATM   13  C11 UNL     1     -16.535  34.472  -5.108  1.00  0.00     0.109 C 
HETATM   14  C13 UNL     1     -16.094  33.044  -4.989  1.00  0.00     0.052 C 
HETATM   15  C14 UNL     1     -14.709  32.856  -5.478  1.00  0.00     0.023 C 
HETATM   16  C15 UNL     1     -14.111  31.545  -4.948  1.00  0.00     0.013 C 
HETATM   17  C16 UNL     1     -13.761  33.972  -5.411  1.00  0.00     0.099 C 
HETATM   18  C17 UNL     1     -14.431  35.270  -5.774  1.00  0.00     0.188 C 
HETATM   19  O4  UNL     1     -15.745  35.290  -5.823  1.00  0.00    -0.362 OA
ENDROOT
BRANCH  13  20
HETATM   20  C12 UNL     1     -17.816  34.373  -5.987  1.00  0.00     0.207 C 
BRANCH  20  21
HETATM   21  O2  UNL     1     -18.006  33.071  -6.430  1.00  0.00    -0.398 OA
ATOM     22  H2  UNL     1     -18.932  32.869  -6.485  1.00  0.00     0.209 HD
ENDBRANCH  20  21
ENDBRANCH  13  20
BRANCH  17  23
HETATM   23  O3  UNL     1     -12.695  33.652  -6.311  1.00  0.00    -0.386 OA
ATOM     24  H3  UNL     1     -11.971  33.177  -5.920  1.00  0.00     0.210 HD
ENDBRANCH  17  23
TORSDOF 3
ENDMDL
MODEL 5
REMARK VINA RESULT: -5.945215553      2.183      4.539
REMARK  3 active torsions:
REMARK  status: ('A' for Active; 'I' for Inactive)
REMARK    1  A    between atoms: C11_13  and  C12_14 
REMARK    2  A    between atoms: C12_14  and  O2_15 
REMARK    3  A    between atoms: C16_20  and  O3_21 
ROOT
HETATM    1  C1  UNL     1     -17.594  34.261   0.043  1.00  0.00     0.048 C 
HETATM    2  C2  UNL     1     -16.883  35.003  -1.122  1.00  0.00    -0.055 C 
HETATM    3  C3  UNL     1     -15.651  35.329  -0.848  1.00  0.00     0.004 C 
HETATM    4  C4  UNL     1     -14.540  35.993  -1.483  1.00  0.00    -0.016 C 
HETATM    5  C5  UNL     1     -14.493  36.574  -2.793  1.00  0.00     0.077 C 
HETATM    6  C6  UNL     1     -15.560  37.513  -3.262  1.00  0.00     0.164 C 
HETATM    7  O1  UNL     1     -16.508  37.818  -2.364  1.00  0.00    -0.380 OA
HETATM    8  C7  UNL     1     -17.808  37.719  -2.702  1.00  0.00     0.198 C 
HETATM    9  C8  UNL     1     -18.508  36.488  -2.291  1.00  0.00     0.081 C 
HETATM   10  C9  UNL     1     -19.801  36.429  -3.028  1.00  0.00     0.040 C 
HETATM   11 CL1  UNL     1     -18.982  36.693  -0.553  1.00  0.00    -0.112 Cl
HETATM   12  C10 UNL     1     -17.731  35.200  -2.298  1.00  0.00    -0.013 C 
HETATM   13  C11 UNL     1     -17.179  34.778  -3.629  1.00  0.00     0.109 C 
HETATM   14  C13 UNL     1     -16.038  33.810  -3.537  1.00  0.00     0.052 C 
HETATM   15  C14 UNL     1     -14.787  34.387  -4.080  1.00  0.00     0.023 C 
HETATM   16  C15 UNL     1     -13.561  33.608  -3.583  1.00  0.00     0.013 C 
HETATM   17  C16 UNL     1     -14.583  35.837  -4.042  1.00  0.00     0.099 C 
HETATM   18  C17 UNL     1     -15.857  36.569  -4.370  1.00  0.00     0.188 C 
HETATM   19  O4  UNL     1     -16.978  35.881  -4.368  1.00  0.00    -0.362 OA
ENDROOT
BRANCH  13  20
HETATM   20  C12 UNL     1     -18.240  33.995  -4.459  1.00  0.00     0.207 C 
BRANCH  20  21
HETATM   21  O2  UNL     1     -17.624  33.055  -5.275  1.00  0.00    -0.398 OA
ATOM     22  H2  UNL     1     -17.427  33.430  -6.125  1.00  0.00     0.209 HD
ENDBRANCH  20  21
ENDBRANCH  13  20
BRANCH  17  23
HETATM   23  O3  UNL     1     -13.545  36.125  -4.985  1.00  0.00    -0.386 OA
ATOM     24  H3  UNL     1     -12.749  35.620  -4.867  1.00  0.00     0.210 HD
ENDBRANCH  17  23
TORSDOF 3
ENDMDL
