MODEL 1
REMARK VINA RESULT: -8.557744828      0.000      0.000
REMARK  17 active torsions:
REMARK  status: ('A' for Active; 'I' for Inactive)
REMARK    1  A    between atoms: C2_2  and  C3_3 
REMARK    2  A    between atoms: C3_3  and  C4_4 
REMARK    3  A    between atoms: C4_4  and  C5_5 
REMARK    4  A    between atoms: C5_5  and  C6_6 
REMARK    5  A    between atoms: C6_6  and  O1_7 
REMARK    6  A    between atoms: C6_6  and  C7_9 
REMARK    7  A    between atoms: C8_10  and  C9_11 
REMARK    8  A    between atoms: C12_15  and  O3_16 
REMARK    9  A    between atoms: O3_16  and  C13_17 
REMARK   10  A    between atoms: C13_17  and  C14_18 
REMARK   11  A    between atoms: C15_19  and  C16_20 
REMARK   12  A    between atoms: C16_20  and  C17_21 
REMARK   13  A    between atoms: C17_21  and  C18_22 
REMARK   14  A    between atoms: C20_24  and  C21_25 
REMARK   15  A    between atoms: C27_35  and  C28_36 
REMARK   16  A    between atoms: C28_36  and  O7_37 
REMARK   17  A    between atoms: C29_39  and  O8_40 
ROOT
HETATM    1  C17 UNL     1     -11.513  20.342 -16.957  1.00  0.00     0.019 C 
ENDROOT
BRANCH   1   2
HETATM    2  C16 UNL     1     -12.106  18.976 -16.911  1.00  0.00     0.094 C 
BRANCH   2   3
HETATM    3  C15 UNL     1     -11.225  18.180 -16.016  1.00  0.00    -0.104 C 
HETATM    4  C14 UNL     1     -10.510  17.551 -15.276  1.00  0.00    -0.081 C 
BRANCH   4   5
HETATM    5  C13 UNL     1      -9.630  16.806 -14.364  1.00  0.00     0.261 C 
BRANCH   5   6
HETATM    6  O3  UNL     1      -9.106  15.672 -14.982  1.00  0.00    -0.371 OA
BRANCH   6   7
HETATM    7  C12 UNL     1      -7.737  15.610 -14.923  1.00  0.00     0.157 C 
HETATM    8  C9  UNL     1      -7.055  15.848 -16.258  1.00  0.00     0.173 C 
HETATM    9  O2  UNL     1      -6.035  14.938 -16.374  1.00  0.00    -0.379 OA
HETATM   10  C10 UNL     1      -5.815  14.314 -15.172  1.00  0.00     0.171 C 
HETATM   11  C11 UNL     1      -7.238  14.199 -14.608  1.00  0.00     0.061 C 
BRANCH   8  12
HETATM   12  C8  UNL     1      -7.991  15.624 -17.399  1.00  0.00     0.010 C 
HETATM   13  C7  UNL     1      -7.718  15.873 -18.652  1.00  0.00     0.035 C 
BRANCH  13  14
HETATM   14  C6  UNL     1      -6.463  16.411 -19.172  1.00  0.00     0.065 C 
BRANCH  14  15
HETATM   15  C5  UNL     1      -6.550  17.400 -20.264  1.00  0.00     0.036 C 
BRANCH  15  16
HETATM   16  C4  UNL     1      -6.633  18.841 -20.053  1.00  0.00    -0.001 C 
BRANCH  16  17
HETATM   17  C3  UNL     1      -7.838  19.648 -20.113  1.00  0.00    -0.027 C 
BRANCH  17  18
HETATM   18  C2  UNL     1      -9.061  19.282 -19.375  1.00  0.00     0.022 C 
HETATM   19  C1  UNL     1     -10.043  18.560 -20.356  1.00  0.00     0.009 C 
ENDBRANCH  17  18
ENDBRANCH  16  17
ENDBRANCH  15  16
ENDBRANCH  14  15
BRANCH  14  20
HETATM   20  O1  UNL     1      -5.410  15.541 -19.311  1.00  0.00    -0.361 OA
ATOM     21  H1  UNL     1      -5.450  15.027 -20.109  1.00  0.00     0.217 HD
ENDBRANCH  14  20
ENDBRANCH  13  14
ENDBRANCH   8  12
ENDBRANCH   6   7
ENDBRANCH   5   6
ENDBRANCH   4   5
ENDBRANCH   2   3
ENDBRANCH   1   2
BRANCH   1  22
HETATM   22  C18 UNL     1     -12.457  21.401 -17.514  1.00  0.00     0.020 C 
HETATM   23  C19 UNL     1     -13.066  22.163 -16.367  1.00  0.00     0.013 C 
HETATM   24  C20 UNL     1     -14.275  21.603 -15.755  1.00  0.00     0.006 C 
HETATM   25  C24 UNL     1     -15.474  22.549 -16.033  1.00  0.00     0.040 C 
HETATM   26  C25 UNL     1     -16.105  22.327 -17.350  1.00  0.00     0.156 C 
HETATM   27  O5  UNL     1     -15.596  21.130 -17.922  1.00  0.00    -0.351 OA
HETATM   28  C27 UNL     1     -15.807  23.271 -18.447  1.00  0.00     0.177 C 
HETATM   29  C26 UNL     1     -14.627  21.512 -18.813  1.00  0.00     0.289 C 
HETATM   30  O6  UNL     1     -14.520  22.895 -18.822  1.00  0.00    -0.349 OA
HETATM   31  C29 UNL     1     -13.360  20.798 -18.496  1.00  0.00     0.177 C 
BRANCH  24  32
HETATM   32  C21 UNL     1     -14.300  21.350 -14.293  1.00  0.00     0.099 C 
HETATM   33  C22 UNL     1     -13.558  20.280 -13.658  1.00  0.00     0.162 C 
HETATM   34  C23 UNL     1     -14.336  20.447 -12.386  1.00  0.00     0.126 C 
HETATM   35  O4  UNL     1     -14.392  19.311 -14.056  1.00  0.00    -0.324 OA
HETATM   36  S1  UNL     1     -15.632  20.368 -13.643  1.00  0.00    -0.079 SA
ENDBRANCH  24  32
BRANCH  31  37
HETATM   37  O8  UNL     1     -12.659  20.733 -19.733  1.00  0.00    -0.390 OA
ATOM     38  H8  UNL     1     -11.750  20.540 -19.534  1.00  0.00     0.210 HD
ENDBRANCH  31  37
BRANCH  28  39
HETATM   39  C28 UNL     1     -16.037  24.708 -18.249  1.00  0.00     0.198 C 
BRANCH  39  40
HETATM   40  O7  UNL     1     -15.003  25.478 -17.805  1.00  0.00    -0.398 OA
ATOM     41  H7  UNL     1     -15.102  26.423 -17.820  1.00  0.00     0.209 HD
ENDBRANCH  39  40
ENDBRANCH  28  39
ENDBRANCH   1  22
TORSDOF 17
ENDMDL
MODEL 2
REMARK VINA RESULT: -8.261124562      1.132      1.599
REMARK  17 active torsions:
REMARK  status: ('A' for Active; 'I' for Inactive)
REMARK    1  A    between atoms: C2_2  and  C3_3 
REMARK    2  A    between atoms: C3_3  and  C4_4 
REMARK    3  A    between atoms: C4_4  and  C5_5 
REMARK    4  A    between atoms: C5_5  and  C6_6 
REMARK    5  A    between atoms: C6_6  and  O1_7 
REMARK    6  A    between atoms: C6_6  and  C7_9 
REMARK    7  A    between atoms: C8_10  and  C9_11 
REMARK    8  A    between atoms: C12_15  and  O3_16 
REMARK    9  A    between atoms: O3_16  and  C13_17 
REMARK   10  A    between atoms: C13_17  and  C14_18 
REMARK   11  A    between atoms: C15_19  and  C16_20 
REMARK   12  A    between atoms: C16_20  and  C17_21 
REMARK   13  A    between atoms: C17_21  and  C18_22 
REMARK   14  A    between atoms: C20_24  and  C21_25 
REMARK   15  A    between atoms: C27_35  and  C28_36 
REMARK   16  A    between atoms: C28_36  and  O7_37 
REMARK   17  A    between atoms: C29_39  and  O8_40 
ROOT
HETATM    1  C17 UNL     1     -11.378  20.202 -16.819  1.00  0.00     0.019 C 
ENDROOT
BRANCH   1   2
HETATM    2  C16 UNL     1     -11.979  18.842 -16.721  1.00  0.00     0.094 C 
BRANCH   2   3
HETATM    3  C15 UNL     1     -11.110  18.079 -15.786  1.00  0.00    -0.104 C 
HETATM    4  C14 UNL     1     -10.388  17.465 -15.041  1.00  0.00    -0.081 C 
BRANCH   4   5
HETATM    5  C13 UNL     1      -9.491  16.713 -14.152  1.00  0.00     0.261 C 
BRANCH   5   6
HETATM    6  O3  UNL     1      -8.997  15.571 -14.781  1.00  0.00    -0.371 OA
BRANCH   6   7
HETATM    7  C12 UNL     1      -7.628  15.502 -14.776  1.00  0.00     0.157 C 
HETATM    8  C9  UNL     1      -7.001  15.681 -16.145  1.00  0.00     0.173 C 
HETATM    9  O2  UNL     1      -5.991  14.761 -16.266  1.00  0.00    -0.379 OA
HETATM   10  C10 UNL     1      -5.725  14.184 -15.050  1.00  0.00     0.171 C 
HETATM   11  C11 UNL     1      -7.124  14.102 -14.424  1.00  0.00     0.061 C 
BRANCH   8  12
HETATM   12  C8  UNL     1      -7.984  15.418 -17.238  1.00  0.00     0.010 C 
HETATM   13  C7  UNL     1      -7.789  15.685 -18.501  1.00  0.00     0.035 C 
BRANCH  13  14
HETATM   14  C6  UNL     1      -6.590  16.283 -19.084  1.00  0.00     0.065 C 
BRANCH  14  15
HETATM   15  C5  UNL     1      -6.774  17.190 -20.233  1.00  0.00     0.036 C 
BRANCH  15  16
HETATM   16  C4  UNL     1      -7.604  16.878 -21.391  1.00  0.00    -0.001 C 
BRANCH  16  17
HETATM   17  C3  UNL     1      -7.386  15.797 -22.335  1.00  0.00    -0.027 C 
BRANCH  17  18
HETATM   18  C2  UNL     1      -6.545  15.964 -23.535  1.00  0.00     0.022 C 
HETATM   19  C1  UNL     1      -7.443  15.803 -24.805  1.00  0.00     0.009 C 
ENDBRANCH  17  18
ENDBRANCH  16  17
ENDBRANCH  15  16
ENDBRANCH  14  15
BRANCH  14  20
HETATM   20  O1  UNL     1      -5.475  15.489 -19.193  1.00  0.00    -0.361 OA
ATOM     21  H1  UNL     1      -5.676  14.561 -19.223  1.00  0.00     0.217 HD
ENDBRANCH  14  20
ENDBRANCH  13  14
ENDBRANCH   8  12
ENDBRANCH   6   7
ENDBRANCH   5   6
ENDBRANCH   4   5
ENDBRANCH   2   3
ENDBRANCH   1   2
BRANCH   1  22
HETATM   22  C18 UNL     1     -12.306  21.239 -17.441  1.00  0.00     0.020 C 
HETATM   23  C19 UNL     1     -12.949  22.040 -16.340  1.00  0.00     0.013 C 
HETATM   24  C20 UNL     1     -14.175  21.499 -15.745  1.00  0.00     0.006 C 
HETATM   25  C24 UNL     1     -15.366  22.433 -16.091  1.00  0.00     0.040 C 
HETATM   26  C25 UNL     1     -15.957  22.164 -17.418  1.00  0.00     0.156 C 
HETATM   27  O5  UNL     1     -15.431  20.948 -17.933  1.00  0.00    -0.351 OA
HETATM   28  C27 UNL     1     -15.628  23.069 -18.538  1.00  0.00     0.177 C 
HETATM   29  C26 UNL     1     -14.436  21.300 -18.807  1.00  0.00     0.289 C 
HETATM   30  O6  UNL     1     -14.330  22.682 -18.861  1.00  0.00    -0.349 OA
HETATM   31  C29 UNL     1     -13.179  20.600 -18.428  1.00  0.00     0.177 C 
BRANCH  24  32
HETATM   32  C21 UNL     1     -14.244  21.298 -14.276  1.00  0.00     0.099 C 
HETATM   33  C22 UNL     1     -13.568  20.215 -13.590  1.00  0.00     0.162 C 
HETATM   34  C23 UNL     1     -14.364  20.463 -12.342  1.00  0.00     0.126 C 
HETATM   35  O4  UNL     1     -14.440  19.275 -13.975  1.00  0.00    -0.324 OA
HETATM   36  S1  UNL     1     -15.636  20.404 -13.624  1.00  0.00    -0.079 SA
ENDBRANCH  24  32
BRANCH  31  37
HETATM   37  O8  UNL     1     -12.441  20.492 -19.641  1.00  0.00    -0.390 OA
ATOM     38  H8  UNL     1     -12.367  19.568 -19.847  1.00  0.00     0.210 HD
ENDBRANCH  31  37
BRANCH  28  39
HETATM   39  C28 UNL     1     -15.865  24.511 -18.398  1.00  0.00     0.198 C 
BRANCH  39  40
HETATM   40  O7  UNL     1     -14.927  25.266 -17.758  1.00  0.00    -0.398 OA
ATOM     41  H7  UNL     1     -14.021  25.192 -18.033  1.00  0.00     0.209 HD
ENDBRANCH  39  40
ENDBRANCH  28  39
ENDBRANCH   1  22
TORSDOF 17
ENDMDL
MODEL 3
REMARK VINA RESULT: -8.235080608      3.118     10.305
REMARK  17 active torsions:
REMARK  status: ('A' for Active; 'I' for Inactive)
REMARK    1  A    between atoms: C2_2  and  C3_3 
REMARK    2  A    between atoms: C3_3  and  C4_4 
REMARK    3  A    between atoms: C4_4  and  C5_5 
REMARK    4  A    between atoms: C5_5  and  C6_6 
REMARK    5  A    between atoms: C6_6  and  O1_7 
REMARK    6  A    between atoms: C6_6  and  C7_9 
REMARK    7  A    between atoms: C8_10  and  C9_11 
REMARK    8  A    between atoms: C12_15  and  O3_16 
REMARK    9  A    between atoms: O3_16  and  C13_17 
REMARK   10  A    between atoms: C13_17  and  C14_18 
REMARK   11  A    between atoms: C15_19  and  C16_20 
REMARK   12  A    between atoms: C16_20  and  C17_21 
REMARK   13  A    between atoms: C17_21  and  C18_22 
REMARK   14  A    between atoms: C20_24  and  C21_25 
REMARK   15  A    between atoms: C27_35  and  C28_36 
REMARK   16  A    between atoms: C28_36  and  O7_37 
REMARK   17  A    between atoms: C29_39  and  O8_40 
ROOT
HETATM    1  C17 UNL     1     -13.760  21.318 -16.492  1.00  0.00     0.019 C 
ENDROOT
BRANCH   1   2
HETATM    2  C16 UNL     1     -14.602  20.749 -17.582  1.00  0.00     0.094 C 
BRANCH   2   3
HETATM    3  C15 UNL     1     -15.178  21.915 -18.303  1.00  0.00    -0.104 C 
HETATM    4  C14 UNL     1     -15.638  22.853 -18.906  1.00  0.00    -0.081 C 
BRANCH   4   5
HETATM    5  C13 UNL     1     -16.182  23.991 -19.660  1.00  0.00     0.261 C 
BRANCH   5   6
HETATM    6  O3  UNL     1     -17.446  24.347 -19.194  1.00  0.00    -0.371 OA
BRANCH   6   7
HETATM    7  C12 UNL     1     -17.411  25.305 -18.213  1.00  0.00     0.157 C 
HETATM    8  C9  UNL     1     -17.915  24.822 -16.867  1.00  0.00     0.173 C 
HETATM    9  O2  UNL     1     -18.697  25.815 -16.334  1.00  0.00    -0.379 OA
HETATM   10  C10 UNL     1     -18.551  26.974 -17.052  1.00  0.00     0.171 C 
HETATM   11  C11 UNL     1     -18.395  26.443 -18.484  1.00  0.00     0.061 C 
BRANCH   8  12
HETATM   12  C8  UNL     1     -18.766  23.603 -17.005  1.00  0.00     0.010 C 
HETATM   13  C7  UNL     1     -19.025  22.757 -16.044  1.00  0.00     0.035 C 
BRANCH  13  14
HETATM   14  C6  UNL     1     -18.540  22.837 -14.668  1.00  0.00     0.065 C 
BRANCH  14  15
HETATM   15  C5  UNL     1     -18.131  21.576 -14.019  1.00  0.00     0.036 C 
BRANCH  15  16
HETATM   16  C4  UNL     1     -16.743  21.192 -13.789  1.00  0.00    -0.001 C 
BRANCH  16  17
HETATM   17  C3  UNL     1     -15.672  22.070 -13.351  1.00  0.00    -0.027 C 
BRANCH  17  18
HETATM   18  C2  UNL     1     -14.411  21.547 -12.795  1.00  0.00     0.022 C 
HETATM   19  C1  UNL     1     -14.735  20.325 -11.874  1.00  0.00     0.009 C 
ENDBRANCH  17  18
ENDBRANCH  16  17
ENDBRANCH  15  16
ENDBRANCH  14  15
BRANCH  14  20
HETATM   20  O1  UNL     1     -19.185  23.701 -13.818  1.00  0.00    -0.361 OA
ATOM     21  H1  UNL     1     -18.772  24.555 -13.767  1.00  0.00     0.217 HD
ENDBRANCH  14  20
ENDBRANCH  13  14
ENDBRANCH   8  12
ENDBRANCH   6   7
ENDBRANCH   5   6
ENDBRANCH   4   5
ENDBRANCH   2   3
ENDBRANCH   1   2
BRANCH   1  22
HETATM   22  C18 UNL     1     -12.779  20.320 -15.891  1.00  0.00     0.020 C 
HETATM   23  C19 UNL     1     -11.408  20.585 -16.454  1.00  0.00     0.013 C 
HETATM   24  C20 UNL     1     -11.070  19.941 -17.728  1.00  0.00     0.006 C 
HETATM   25  C24 UNL     1      -9.945  18.898 -17.492  1.00  0.00     0.040 C 
HETATM   26  C25 UNL     1     -10.447  17.588 -17.028  1.00  0.00     0.156 C 
HETATM   27  O5  UNL     1     -11.862  17.552 -17.154  1.00  0.00    -0.351 OA
HETATM   28  C27 UNL     1     -10.318  17.246 -15.597  1.00  0.00     0.177 C 
HETATM   29  C26 UNL     1     -12.365  17.822 -15.908  1.00  0.00     0.289 C 
HETATM   30  O6  UNL     1     -11.322  18.016 -15.015  1.00  0.00    -0.349 OA
HETATM   31  C29 UNL     1     -13.317  18.962 -16.000  1.00  0.00     0.177 C 
BRANCH  24  32
HETATM   32  C21 UNL     1     -10.604  20.776 -18.863  1.00  0.00     0.099 C 
HETATM   33  C22 UNL     1     -11.426  21.080 -20.017  1.00  0.00     0.162 C 
HETATM   34  C23 UNL     1     -10.233  21.579 -20.780  1.00  0.00     0.126 C 
HETATM   35  O4  UNL     1     -11.293  19.870 -20.574  1.00  0.00    -0.324 OA
HETATM   36  S1  UNL     1      -9.669  19.982 -20.150  1.00  0.00    -0.079 SA
ENDBRANCH  24  32
BRANCH  31  37
HETATM   37  O8  UNL     1     -14.218  18.775 -14.912  1.00  0.00    -0.390 OA
ATOM     38  H8  UNL     1     -14.454  17.854 -14.895  1.00  0.00     0.210 HD
ENDBRANCH  31  37
BRANCH  28  39
HETATM   39  C28 UNL     1      -8.998  17.299 -14.956  1.00  0.00     0.198 C 
BRANCH  39  40
HETATM   40  O7  UNL     1      -8.604  18.467 -14.372  1.00  0.00    -0.398 OA
ATOM     41  H7  UNL     1      -9.063  18.763 -13.596  1.00  0.00     0.209 HD
ENDBRANCH  39  40
ENDBRANCH  28  39
ENDBRANCH   1  22
TORSDOF 17
ENDMDL
MODEL 4
REMARK VINA RESULT: -7.965338677      1.160      3.390
REMARK  17 active torsions:
REMARK  status: ('A' for Active; 'I' for Inactive)
REMARK    1  A    between atoms: C2_2  and  C3_3 
REMARK    2  A    between atoms: C3_3  and  C4_4 
REMARK    3  A    between atoms: C4_4  and  C5_5 
REMARK    4  A    between atoms: C5_5  and  C6_6 
REMARK    5  A    between atoms: C6_6  and  O1_7 
REMARK    6  A    between atoms: C6_6  and  C7_9 
REMARK    7  A    between atoms: C8_10  and  C9_11 
REMARK    8  A    between atoms: C12_15  and  O3_16 
REMARK    9  A    between atoms: O3_16  and  C13_17 
REMARK   10  A    between atoms: C13_17  and  C14_18 
REMARK   11  A    between atoms: C15_19  and  C16_20 
REMARK   12  A    between atoms: C16_20  and  C17_21 
REMARK   13  A    between atoms: C17_21  and  C18_22 
REMARK   14  A    between atoms: C20_24  and  C21_25 
REMARK   15  A    between atoms: C27_35  and  C28_36 
REMARK   16  A    between atoms: C28_36  and  O7_37 
REMARK   17  A    between atoms: C29_39  and  O8_40 
ROOT
HETATM    1  C17 UNL     1     -11.491  20.580 -16.732  1.00  0.00     0.019 C 
ENDROOT
BRANCH   1   2
HETATM    2  C16 UNL     1     -11.827  19.172 -17.086  1.00  0.00     0.094 C 
BRANCH   2   3
HETATM    3  C15 UNL     1     -10.657  18.652 -17.843  1.00  0.00    -0.104 C 
HETATM    4  C14 UNL     1      -9.697  18.246 -18.448  1.00  0.00    -0.081 C 
BRANCH   4   5
HETATM    5  C13 UNL     1      -8.514  17.773 -19.181  1.00  0.00     0.261 C 
BRANCH   5   6
HETATM    6  O3  UNL     1      -7.796  16.842 -18.433  1.00  0.00    -0.371 OA
BRANCH   6   7
HETATM    7  C12 UNL     1      -6.716  16.326 -19.104  1.00  0.00     0.157 C 
HETATM    8  C9  UNL     1      -5.583  15.887 -18.196  1.00  0.00     0.173 C 
HETATM    9  O2  UNL     1      -4.406  16.294 -18.771  1.00  0.00    -0.379 OA
HETATM   10  C10 UNL     1      -4.625  16.715 -20.058  1.00  0.00     0.171 C 
HETATM   11  C11 UNL     1      -6.002  17.385 -19.943  1.00  0.00     0.061 C 
BRANCH   8  12
HETATM   12  C8  UNL     1      -5.676  16.532 -16.853  1.00  0.00     0.010 C 
HETATM   13  C7  UNL     1      -5.879  15.897 -15.730  1.00  0.00     0.035 C 
BRANCH  13  14
HETATM   14  C6  UNL     1      -6.054  14.455 -15.571  1.00  0.00     0.065 C 
BRANCH  14  15
HETATM   15  C5  UNL     1      -6.918  13.994 -14.467  1.00  0.00     0.036 C 
BRANCH  15  16
HETATM   16  C4  UNL     1      -7.949  14.815 -13.843  1.00  0.00    -0.001 C 
BRANCH  16  17
HETATM   17  C3  UNL     1      -9.261  15.108 -14.392  1.00  0.00    -0.027 C 
BRANCH  17  18
HETATM   18  C2  UNL     1      -9.541  16.356 -15.126  1.00  0.00     0.022 C 
HETATM   19  C1  UNL     1      -8.847  17.544 -14.380  1.00  0.00     0.009 C 
ENDBRANCH  17  18
ENDBRANCH  16  17
ENDBRANCH  15  16
ENDBRANCH  14  15
BRANCH  14  20
HETATM   20  O1  UNL     1      -4.953  13.658 -15.768  1.00  0.00    -0.361 OA
ATOM     21  H1  UNL     1      -5.007  13.131 -16.557  1.00  0.00     0.217 HD
ENDBRANCH  14  20
ENDBRANCH  13  14
ENDBRANCH   8  12
ENDBRANCH   6   7
ENDBRANCH   5   6
ENDBRANCH   4   5
ENDBRANCH   2   3
ENDBRANCH   1   2
BRANCH   1  22
HETATM   22  C18 UNL     1     -12.453  21.605 -17.320  1.00  0.00     0.020 C 
HETATM   23  C19 UNL     1     -13.188  22.285 -16.196  1.00  0.00     0.013 C 
HETATM   24  C20 UNL     1     -14.404  21.634 -15.698  1.00  0.00     0.006 C 
HETATM   25  C24 UNL     1     -15.633  22.521 -16.031  1.00  0.00     0.040 C 
HETATM   26  C25 UNL     1     -16.151  22.317 -17.399  1.00  0.00     0.156 C 
HETATM   27  O5  UNL     1     -15.532  21.174 -17.974  1.00  0.00    -0.351 OA
HETATM   28  C27 UNL     1     -15.830  23.319 -18.436  1.00  0.00     0.177 C 
HETATM   29  C26 UNL     1     -14.524  21.646 -18.775  1.00  0.00     0.289 C 
HETATM   30  O6  UNL     1     -14.499  23.032 -18.726  1.00  0.00    -0.349 OA
HETATM   31  C29 UNL     1     -13.244  20.993 -18.389  1.00  0.00     0.177 C 
BRANCH  24  32
HETATM   32  C21 UNL     1     -14.521  21.321 -14.252  1.00  0.00     0.099 C 
HETATM   33  C22 UNL     1     -13.654  20.383 -13.568  1.00  0.00     0.162 C 
HETATM   34  C23 UNL     1     -14.568  20.350 -12.379  1.00  0.00     0.126 C 
HETATM   35  O4  UNL     1     -14.247  19.293 -14.070  1.00  0.00    -0.324 OA
HETATM   36  S1  UNL     1     -15.699  20.083 -13.763  1.00  0.00    -0.079 SA
ENDBRANCH  24  32
BRANCH  31  37
HETATM   37  O8  UNL     1     -12.451  21.016 -19.571  1.00  0.00    -0.390 OA
ATOM     38  H8  UNL     1     -11.736  21.624 -19.421  1.00  0.00     0.210 HD
ENDBRANCH  31  37
BRANCH  28  39
HETATM   39  C28 UNL     1     -16.159  24.732 -18.204  1.00  0.00     0.198 C 
BRANCH  39  40
HETATM   40  O7  UNL     1     -15.149  25.593 -17.892  1.00  0.00    -0.398 OA
ATOM     41  H7  UNL     1     -14.933  26.281 -18.510  1.00  0.00     0.209 HD
ENDBRANCH  39  40
ENDBRANCH  28  39
ENDBRANCH   1  22
TORSDOF 17
ENDMDL
MODEL 5
REMARK VINA RESULT: -7.962770323      1.981      4.913
REMARK  17 active torsions:
REMARK  status: ('A' for Active; 'I' for Inactive)
REMARK    1  A    between atoms: C2_2  and  C3_3 
REMARK    2  A    between atoms: C3_3  and  C4_4 
REMARK    3  A    between atoms: C4_4  and  C5_5 
REMARK    4  A    between atoms: C5_5  and  C6_6 
REMARK    5  A    between atoms: C6_6  and  O1_7 
REMARK    6  A    between atoms: C6_6  and  C7_9 
REMARK    7  A    between atoms: C8_10  and  C9_11 
REMARK    8  A    between atoms: C12_15  and  O3_16 
REMARK    9  A    between atoms: O3_16  and  C13_17 
REMARK   10  A    between atoms: C13_17  and  C14_18 
REMARK   11  A    between atoms: C15_19  and  C16_20 
REMARK   12  A    between atoms: C16_20  and  C17_21 
REMARK   13  A    between atoms: C17_21  and  C18_22 
REMARK   14  A    between atoms: C20_24  and  C21_25 
REMARK   15  A    between atoms: C27_35  and  C28_36 
REMARK   16  A    between atoms: C28_36  and  O7_37 
REMARK   17  A    between atoms: C29_39  and  O8_40 
ROOT
HETATM    1  C17 UNL     1     -12.018  21.523 -18.689  1.00  0.00     0.019 C 
ENDROOT
BRANCH   1   2
HETATM    2  C16 UNL     1     -11.951  20.676 -19.913  1.00  0.00     0.094 C 
BRANCH   2   3
HETATM    3  C15 UNL     1     -10.519  20.310 -20.077  1.00  0.00    -0.104 C 
HETATM    4  C14 UNL     1      -9.352  20.028 -20.195  1.00  0.00    -0.081 C 
BRANCH   4   5
HETATM    5  C13 UNL     1      -7.924  19.706 -20.327  1.00  0.00     0.261 C 
BRANCH   5   6
HETATM    6  O3  UNL     1      -7.571  18.634 -19.508  1.00  0.00    -0.371 OA
BRANCH   6   7
HETATM    7  C12 UNL     1      -8.126  17.445 -19.907  1.00  0.00     0.157 C 
HETATM    8  C9  UNL     1      -7.834  16.289 -18.969  1.00  0.00     0.173 C 
HETATM    9  O2  UNL     1      -7.538  15.193 -19.738  1.00  0.00    -0.379 OA
HETATM   10  C10 UNL     1      -7.852  15.434 -21.051  1.00  0.00     0.171 C 
HETATM   11  C11 UNL     1      -7.495  16.920 -21.196  1.00  0.00     0.061 C 
BRANCH   8  12
HETATM   12  C8  UNL     1      -6.648  16.568 -18.107  1.00  0.00     0.010 C 
HETATM   13  C7  UNL     1      -6.585  16.340 -16.822  1.00  0.00     0.035 C 
BRANCH  13  14
HETATM   14  C6  UNL     1      -7.647  15.776 -15.992  1.00  0.00     0.065 C 
BRANCH  14  15
HETATM   15  C5  UNL     1      -7.810  16.328 -14.633  1.00  0.00     0.036 C 
BRANCH  15  16
HETATM   16  C4  UNL     1      -8.751  17.389 -14.292  1.00  0.00    -0.001 C 
BRANCH  16  17
HETATM   17  C3  UNL     1      -9.678  18.037 -15.203  1.00  0.00    -0.027 C 
BRANCH  17  18
HETATM   18  C2  UNL     1     -10.870  17.347 -15.728  1.00  0.00     0.022 C 
HETATM   19  C1  UNL     1     -11.090  17.785 -17.213  1.00  0.00     0.009 C 
ENDBRANCH  17  18
ENDBRANCH  16  17
ENDBRANCH  15  16
ENDBRANCH  14  15
BRANCH  14  20
HETATM   20  O1  UNL     1      -7.847  14.420 -16.054  1.00  0.00    -0.361 OA
ATOM     21  H1  UNL     1      -8.696  14.150 -15.724  1.00  0.00     0.217 HD
ENDBRANCH  14  20
ENDBRANCH  13  14
ENDBRANCH   8  12
ENDBRANCH   6   7
ENDBRANCH   5   6
ENDBRANCH   4   5
ENDBRANCH   2   3
ENDBRANCH   1   2
BRANCH   1  22
HETATM   22  C18 UNL     1     -12.917  20.954 -17.598  1.00  0.00     0.020 C 
HETATM   23  C19 UNL     1     -14.345  20.992 -18.074  1.00  0.00     0.013 C 
HETATM   24  C20 UNL     1     -15.093  22.234 -17.852  1.00  0.00     0.006 C 
HETATM   25  C24 UNL     1     -16.233  21.969 -16.832  1.00  0.00     0.040 C 
HETATM   26  C25 UNL     1     -15.792  22.049 -15.425  1.00  0.00     0.156 C 
HETATM   27  O5  UNL     1     -14.480  22.593 -15.370  1.00  0.00    -0.351 OA
HETATM   28  C27 UNL     1     -15.570  20.793 -14.679  1.00  0.00     0.177 C 
HETATM   29  C26 UNL     1     -13.628  21.527 -15.238  1.00  0.00     0.289 C 
HETATM   30  O6  UNL     1     -14.358  20.348 -15.199  1.00  0.00    -0.349 OA
HETATM   31  C29 UNL     1     -12.602  21.582 -16.313  1.00  0.00     0.177 C 
BRANCH  24  32
HETATM   32  C21 UNL     1     -15.742  22.908 -19.005  1.00  0.00     0.099 C 
HETATM   33  C22 UNL     1     -15.223  24.116 -19.614  1.00  0.00     0.162 C 
HETATM   34  C23 UNL     1     -16.508  24.334 -20.358  1.00  0.00     0.126 C 
HETATM   35  O4  UNL     1     -15.638  24.926 -18.633  1.00  0.00    -0.324 OA
HETATM   36  S1  UNL     1     -17.068  24.042 -18.665  1.00  0.00    -0.079 SA
ENDBRANCH  24  32
BRANCH  31  37
HETATM   37  O8  UNL     1     -11.471  20.904 -15.775  1.00  0.00    -0.390 OA
ATOM     38  H8  UNL     1     -10.993  20.527 -16.505  1.00  0.00     0.210 HD
ENDBRANCH  31  37
BRANCH  28  39
HETATM   39  C28 UNL     1     -16.649  19.801 -14.593  1.00  0.00     0.198 C 
BRANCH  39  40
HETATM   40  O7  UNL     1     -16.575  18.689 -15.378  1.00  0.00    -0.398 OA
ATOM     41  H7  UNL     1     -17.294  18.504 -15.971  1.00  0.00     0.209 HD
ENDBRANCH  39  40
ENDBRANCH  28  39
ENDBRANCH   1  22
TORSDOF 17
ENDMDL
