MODEL 1
REMARK VINA RESULT: -5.715777398      0.000      0.000
REMARK  6 active torsions:
REMARK  status: ('A' for Active; 'I' for Inactive)
REMARK    1  A    between atoms: C2_2  and  C3_3 
REMARK    2  A    between atoms: C3_3  and  O1_4 
REMARK    3  A    between atoms: O1_4  and  C4_5 
REMARK    4  A    between atoms: C4_5  and  C6_7 
REMARK    5  A    between atoms: C6_7  and  C7_8 
REMARK    6  A    between atoms: C7_8  and  C8_9 
ROOT
HETATM    1  C7  UNL     1      20.568  -3.180  -3.237  1.00  0.00     0.061 C 
ENDROOT
BRANCH   1   2
HETATM    2  C6  UNL     1      19.594  -3.087  -4.405  1.00  0.00     0.037 C 
BRANCH   2   3
HETATM    3  C4  UNL     1      18.220  -2.702  -3.901  1.00  0.00     0.118 C 
HETATM    4  C5  UNL     1      18.135  -1.207  -3.891  1.00  0.00     0.039 C 
BRANCH   3   5
HETATM    5  O1  UNL     1      17.984  -3.287  -2.680  1.00  0.00    -0.383 OA
BRANCH   5   6
HETATM    6  C3  UNL     1      16.926  -2.733  -1.982  1.00  0.00     0.194 C 
BRANCH   6   7
HETATM    7  C2  UNL     1      16.194  -3.789  -1.231  1.00  0.00    -0.011 C 
HETATM    8  C1  UNL     1      16.764  -4.952  -0.922  1.00  0.00     0.009 C 
ENDBRANCH   6   7
ENDBRANCH   5   6
ENDBRANCH   3   5
ENDBRANCH   2   3
ENDBRANCH   1   2
BRANCH   1   9
HETATM    9  C8  UNL     1      21.840  -2.568  -3.704  1.00  0.00     0.025 A 
HETATM   10  C9  UNL     1      22.044  -1.473  -4.515  1.00  0.00     0.114 A 
HETATM   11  N1  UNL     1      23.361  -1.259  -4.688  1.00  0.00    -0.360 N 
HETATM   12  C10 UNL     1      23.989  -2.214  -3.988  1.00  0.00     0.180 A 
ATOM     13  H1  UNL     1      23.793  -0.518  -5.240  1.00  0.00     0.166 HD
HETATM   14  N2  UNL     1      23.087  -3.008  -3.391  1.00  0.00    -0.355 N 
ATOM     15  H2  UNL     1      23.303  -3.810  -2.799  1.00  0.00     0.166 HD
ENDBRANCH   1   9
TORSDOF 6
ENDMDL
MODEL 2
REMARK VINA RESULT: -5.651590728      0.882      1.096
REMARK  6 active torsions:
REMARK  status: ('A' for Active; 'I' for Inactive)
REMARK    1  A    between atoms: C2_2  and  C3_3 
REMARK    2  A    between atoms: C3_3  and  O1_4 
REMARK    3  A    between atoms: O1_4  and  C4_5 
REMARK    4  A    between atoms: C4_5  and  C6_7 
REMARK    5  A    between atoms: C6_7  and  C7_8 
REMARK    6  A    between atoms: C7_8  and  C8_9 
ROOT
HETATM    1  C7  UNL     1      21.121  -2.078  -4.176  1.00  0.00     0.061 C 
ENDROOT
BRANCH   1   2
HETATM    2  C6  UNL     1      20.410  -3.153  -3.361  1.00  0.00     0.037 C 
BRANCH   2   3
HETATM    3  C4  UNL     1      18.914  -3.046  -3.561  1.00  0.00     0.118 C 
HETATM    4  C5  UNL     1      18.587  -1.608  -3.823  1.00  0.00     0.039 C 
BRANCH   3   5
HETATM    5  O1  UNL     1      18.253  -3.585  -2.484  1.00  0.00    -0.383 OA
BRANCH   5   6
HETATM    6  C3  UNL     1      17.099  -2.910  -2.131  1.00  0.00     0.194 C 
BRANCH   6   7
HETATM    7  C2  UNL     1      16.285  -3.733  -1.195  1.00  0.00    -0.011 C 
HETATM    8  C1  UNL     1      16.648  -4.967  -0.850  1.00  0.00     0.009 C 
ENDBRANCH   6   7
ENDBRANCH   5   6
ENDBRANCH   3   5
ENDBRANCH   2   3
ENDBRANCH   1   2
BRANCH   1   9
HETATM    9  C8  UNL     1      22.560  -2.164  -3.816  1.00  0.00     0.025 A 
HETATM   10  C9  UNL     1      23.676  -1.956  -4.598  1.00  0.00     0.114 A 
HETATM   11  N1  UNL     1      24.795  -2.137  -3.873  1.00  0.00    -0.360 N 
HETATM   12  C10 UNL     1      24.389  -2.459  -2.637  1.00  0.00     0.180 A 
ATOM     13  H1  UNL     1      25.757  -2.048  -4.199  1.00  0.00     0.166 HD
HETATM   14  N2  UNL     1      23.049  -2.479  -2.588  1.00  0.00    -0.355 N 
ATOM     15  H2  UNL     1      22.488  -2.694  -1.764  1.00  0.00     0.166 HD
ENDBRANCH   1   9
TORSDOF 6
ENDMDL
MODEL 3
REMARK VINA RESULT: -5.638808990      1.348      1.548
REMARK  6 active torsions:
REMARK  status: ('A' for Active; 'I' for Inactive)
REMARK    1  A    between atoms: C2_2  and  C3_3 
REMARK    2  A    between atoms: C3_3  and  O1_4 
REMARK    3  A    between atoms: O1_4  and  C4_5 
REMARK    4  A    between atoms: C4_5  and  C6_7 
REMARK    5  A    between atoms: C6_7  and  C7_8 
REMARK    6  A    between atoms: C7_8  and  C8_9 
ROOT
HETATM    1  C7  UNL     1      19.264  -3.203  -3.155  1.00  0.00     0.061 C 
ENDROOT
BRANCH   1   2
HETATM    2  C6  UNL     1      18.303  -2.037  -2.952  1.00  0.00     0.037 C 
BRANCH   2   3
HETATM    3  C4  UNL     1      17.027  -2.280  -3.727  1.00  0.00     0.118 C 
HETATM    4  C5  UNL     1      15.973  -1.371  -3.175  1.00  0.00     0.039 C 
BRANCH   3   5
HETATM    5  O1  UNL     1      16.696  -3.613  -3.687  1.00  0.00    -0.383 OA
BRANCH   5   6
HETATM    6  C3  UNL     1      15.556  -3.892  -2.955  1.00  0.00     0.194 C 
BRANCH   6   7
HETATM    7  C2  UNL     1      15.832  -4.962  -1.958  1.00  0.00    -0.011 C 
HETATM    8  C1  UNL     1      16.674  -4.774  -0.943  1.00  0.00     0.009 C 
ENDBRANCH   6   7
ENDBRANCH   5   6
ENDBRANCH   3   5
ENDBRANCH   2   3
ENDBRANCH   1   2
BRANCH   1   9
HETATM    9  C8  UNL     1      20.536  -2.616  -3.649  1.00  0.00     0.025 A 
HETATM   10  C9  UNL     1      20.750  -1.701  -4.658  1.00  0.00     0.114 A 
HETATM   11  N1  UNL     1      22.063  -1.438  -4.779  1.00  0.00    -0.360 N 
HETATM   12  C10 UNL     1      22.680  -2.183  -3.850  1.00  0.00     0.180 A 
ATOM     13  H1  UNL     1      22.501  -0.800  -5.443  1.00  0.00     0.166 HD
HETATM   14  N2  UNL     1      21.774  -2.895  -3.164  1.00  0.00    -0.355 N 
ATOM     15  H2  UNL     1      21.981  -3.542  -2.403  1.00  0.00     0.166 HD
ENDBRANCH   1   9
TORSDOF 6
ENDMDL
MODEL 4
REMARK VINA RESULT: -5.603419253      1.524      2.104
REMARK  6 active torsions:
REMARK  status: ('A' for Active; 'I' for Inactive)
REMARK    1  A    between atoms: C2_2  and  C3_3 
REMARK    2  A    between atoms: C3_3  and  O1_4 
REMARK    3  A    between atoms: O1_4  and  C4_5 
REMARK    4  A    between atoms: C4_5  and  C6_7 
REMARK    5  A    between atoms: C6_7  and  C7_8 
REMARK    6  A    between atoms: C7_8  and  C8_9 
ROOT
HETATM    1  C7  UNL     1      21.292  -1.739  -4.611  1.00  0.00     0.061 C 
ENDROOT
BRANCH   1   2
HETATM    2  C6  UNL     1      20.396  -2.939  -4.323  1.00  0.00     0.037 C 
BRANCH   2   3
HETATM    3  C4  UNL     1      19.313  -2.550  -3.342  1.00  0.00     0.118 C 
HETATM    4  C5  UNL     1      19.076  -3.715  -2.432  1.00  0.00     0.039 C 
BRANCH   3   5
HETATM    5  O1  UNL     1      18.193  -2.128  -4.017  1.00  0.00    -0.383 OA
BRANCH   5   6
HETATM    6  C3  UNL     1      17.537  -1.068  -3.418  1.00  0.00     0.194 C 
BRANCH   6   7
HETATM    7  C2  UNL     1      16.082  -1.361  -3.300  1.00  0.00    -0.011 C 
HETATM    8  C1  UNL     1      15.631  -2.393  -2.589  1.00  0.00     0.009 C 
ENDBRANCH   6   7
ENDBRANCH   5   6
ENDBRANCH   3   5
ENDBRANCH   2   3
ENDBRANCH   1   2
BRANCH   1   9
HETATM    9  C8  UNL     1      22.620  -2.059  -4.027  1.00  0.00     0.025 A 
HETATM   10  C9  UNL     1      23.848  -2.171  -4.643  1.00  0.00     0.114 A 
HETATM   11  N1  UNL     1      24.797  -2.475  -3.739  1.00  0.00    -0.360 N 
HETATM   12  C10 UNL     1      24.173  -2.555  -2.555  1.00  0.00     0.180 A 
ATOM     13  H1  UNL     1      25.791  -2.617  -3.919  1.00  0.00     0.166 HD
HETATM   14  N2  UNL     1      22.865  -2.306  -2.713  1.00  0.00    -0.355 N 
ATOM     15  H2  UNL     1      22.168  -2.303  -1.969  1.00  0.00     0.166 HD
ENDBRANCH   1   9
TORSDOF 6
ENDMDL
MODEL 5
REMARK VINA RESULT: -5.470748067      2.029      2.487
REMARK  6 active torsions:
REMARK  status: ('A' for Active; 'I' for Inactive)
REMARK    1  A    between atoms: C2_2  and  C3_3 
REMARK    2  A    between atoms: C3_3  and  O1_4 
REMARK    3  A    between atoms: O1_4  and  C4_5 
REMARK    4  A    between atoms: C4_5  and  C6_7 
REMARK    5  A    between atoms: C6_7  and  C7_8 
REMARK    6  A    between atoms: C7_8  and  C8_9 
ROOT
HETATM    1  C7  UNL     1      19.515  -2.951  -4.304  1.00  0.00     0.061 C 
ENDROOT
BRANCH   1   2
HETATM    2  C6  UNL     1      19.092  -3.335  -2.892  1.00  0.00     0.037 C 
BRANCH   2   3
HETATM    3  C4  UNL     1      17.591  -3.209  -2.751  1.00  0.00     0.118 C 
HETATM    4  C5  UNL     1      17.146  -4.169  -1.691  1.00  0.00     0.039 C 
BRANCH   3   5
HETATM    5  O1  UNL     1      16.985  -3.397  -3.970  1.00  0.00    -0.383 OA
BRANCH   5   6
HETATM    6  C3  UNL     1      15.653  -3.765  -3.889  1.00  0.00     0.194 C 
BRANCH   6   7
HETATM    7  C2  UNL     1      15.340  -4.795  -4.916  1.00  0.00    -0.011 C 
HETATM    8  C1  UNL     1      14.459  -4.569  -5.890  1.00  0.00     0.009 C 
ENDBRANCH   6   7
ENDBRANCH   5   6
ENDBRANCH   3   5
ENDBRANCH   2   3
ENDBRANCH   1   2
BRANCH   1   9
HETATM    9  C8  UNL     1      20.921  -2.477  -4.206  1.00  0.00     0.025 A 
HETATM   10  C9  UNL     1      21.566  -1.485  -4.913  1.00  0.00     0.114 A 
HETATM   11  N1  UNL     1      22.844  -1.380  -4.507  1.00  0.00    -0.360 N 
HETATM   12  C10 UNL     1      23.008  -2.301  -3.547  1.00  0.00     0.180 A 
ATOM     13  H1  UNL     1      23.547  -0.730  -4.860  1.00  0.00     0.166 HD
HETATM   14  N2  UNL     1      21.860  -2.968  -3.356  1.00  0.00    -0.355 N 
ATOM     15  H2  UNL     1      21.716  -3.720  -2.682  1.00  0.00     0.166 HD
ENDBRANCH   1   9
TORSDOF 6
ENDMDL
