MODEL 1
REMARK VINA RESULT: -6.471981689      0.000      0.000
REMARK  6 active torsions:
REMARK  status: ('A' for Active; 'I' for Inactive)
REMARK    1  A    between atoms: C2_2  and  C3_3 
REMARK    2  A    between atoms: C3_3  and  C4_4 
REMARK    3  A    between atoms: C3_3  and  N2_13 
REMARK    4  A    between atoms: C4_4  and  C5_5 
REMARK    5  A    between atoms: C8_8  and  N1_9 
REMARK    6  A    between atoms: N2_13  and  C10_15 
ROOT
HETATM    1  C3  UNL     1      19.134  -4.650  -4.183  1.00  0.00     0.006 C 
ENDROOT
BRANCH   1   2
HETATM    2  C2  UNL     1      19.564  -5.873  -4.917  1.00  0.00     0.014 C 
HETATM    3  C1  UNL     1      20.723  -6.065  -5.522  1.00  0.00     0.013 C 
ENDBRANCH   1   2
BRANCH   1   4
HETATM    4  C4  UNL     1      19.494  -3.392  -4.864  1.00  0.00     0.063 C 
BRANCH   4   5
HETATM    5  C5  UNL     1      20.182  -2.329  -4.093  1.00  0.00     0.021 C 
HETATM    6  C6  UNL     1      21.459  -2.547  -3.373  1.00  0.00     0.009 C 
HETATM    7  C7  UNL     1      22.142  -2.442  -4.749  1.00  0.00     0.033 C 
HETATM    8  C8  UNL     1      21.022  -1.427  -5.051  1.00  0.00     0.188 C 
BRANCH   8   9
HETATM    9  N1  UNL     1      20.534  -1.428  -6.388  1.00  0.00    -0.075 N 
ATOM     10  H13 UNL     1      21.186  -0.955  -7.014  1.00  0.00     0.274 HD
ATOM     11  H12 UNL     1      20.571  -2.366  -6.788  1.00  0.00     0.274 HD
ATOM     12  H11 UNL     1      19.598  -1.033  -6.473  1.00  0.00     0.274 HD
ENDBRANCH   8   9
ENDBRANCH   4   5
ENDBRANCH   1   4
BRANCH   1  13
HETATM   13  N2  UNL     1      18.242  -4.786  -3.132  1.00  0.00    -0.384 N 
HETATM   14  C9  UNL     1      17.717  -6.226  -3.117  1.00  0.00     0.150 C 
BRANCH  13  15
HETATM   15  C10 UNL     1      17.195  -4.071  -2.693  1.00  0.00     0.083 C 
HETATM   16  C11 UNL     1      16.710  -4.661  -1.344  1.00  0.00     0.025 C 
HETATM   17  C12 UNL     1      15.519  -3.815  -0.966  1.00  0.00     0.002 C 
HETATM   18  C13 UNL     1      15.335  -2.870  -2.086  1.00  0.00     0.002 C 
HETATM   19  C14 UNL     1      15.936  -3.680  -3.281  1.00  0.00     0.025 C 
ENDBRANCH  13  15
ENDBRANCH   1  13
TORSDOF 6
ENDMDL
MODEL 2
REMARK VINA RESULT: -6.443713136      1.725      1.966
REMARK  6 active torsions:
REMARK  status: ('A' for Active; 'I' for Inactive)
REMARK    1  A    between atoms: C2_2  and  C3_3 
REMARK    2  A    between atoms: C3_3  and  C4_4 
REMARK    3  A    between atoms: C3_3  and  N2_13 
REMARK    4  A    between atoms: C4_4  and  C5_5 
REMARK    5  A    between atoms: C8_8  and  N1_9 
REMARK    6  A    between atoms: N2_13  and  C10_15 
ROOT
HETATM    1  C3  UNL     1      19.546  -5.436  -4.661  1.00  0.00     0.006 C 
ENDROOT
BRANCH   1   2
HETATM    2  C2  UNL     1      20.533  -6.207  -5.469  1.00  0.00     0.014 C 
HETATM    3  C1  UNL     1      20.799  -6.048  -6.754  1.00  0.00     0.013 C 
ENDBRANCH   1   2
BRANCH   1   4
HETATM    4  C4  UNL     1      19.554  -3.988  -4.939  1.00  0.00     0.063 C 
BRANCH   4   5
HETATM    5  C5  UNL     1      20.455  -3.111  -4.155  1.00  0.00     0.021 C 
HETATM    6  C6  UNL     1      21.932  -3.140  -4.286  1.00  0.00     0.009 C 
HETATM    7  C7  UNL     1      21.736  -2.328  -5.580  1.00  0.00     0.033 C 
HETATM    8  C8  UNL     1      20.550  -1.702  -4.820  1.00  0.00     0.188 C 
BRANCH   8   9
HETATM    9  N1  UNL     1      19.411  -1.383  -5.613  1.00  0.00    -0.075 N 
ATOM     10  H13 UNL     1      18.866  -0.635  -5.183  1.00  0.00     0.274 HD
ATOM     11  H12 UNL     1      19.688  -0.913  -6.474  1.00  0.00     0.274 HD
ATOM     12  H11 UNL     1      18.823  -2.192  -5.812  1.00  0.00     0.274 HD
ENDBRANCH   8   9
ENDBRANCH   4   5
ENDBRANCH   1   4
BRANCH   1  13
HETATM   13  N2  UNL     1      18.572  -6.131  -3.965  1.00  0.00    -0.384 N 
HETATM   14  C9  UNL     1      17.251  -6.031  -4.738  1.00  0.00     0.150 C 
BRANCH  13  15
HETATM   15  C10 UNL     1      18.177  -6.161  -2.683  1.00  0.00     0.083 C 
HETATM   16  C11 UNL     1      16.679  -6.556  -2.623  1.00  0.00     0.025 C 
HETATM   17  C12 UNL     1      16.335  -6.521  -1.154  1.00  0.00     0.002 C 
HETATM   18  C13 UNL     1      17.563  -6.064  -0.473  1.00  0.00     0.002 C 
HETATM   19  C14 UNL     1      18.247  -5.215  -1.594  1.00  0.00     0.025 C 
ENDBRANCH  13  15
ENDBRANCH   1  13
TORSDOF 6
ENDMDL
MODEL 3
REMARK VINA RESULT: -6.432702454      1.621      2.316
REMARK  6 active torsions:
REMARK  status: ('A' for Active; 'I' for Inactive)
REMARK    1  A    between atoms: C2_2  and  C3_3 
REMARK    2  A    between atoms: C3_3  and  C4_4 
REMARK    3  A    between atoms: C3_3  and  N2_13 
REMARK    4  A    between atoms: C4_4  and  C5_5 
REMARK    5  A    between atoms: C8_8  and  N1_9 
REMARK    6  A    between atoms: N2_13  and  C10_15 
ROOT
HETATM    1  C3  UNL     1      18.890  -4.523  -4.367  1.00  0.00     0.006 C 
ENDROOT
BRANCH   1   2
HETATM    2  C2  UNL     1      19.476  -5.577  -5.243  1.00  0.00     0.014 C 
HETATM    3  C1  UNL     1      18.813  -6.449  -5.981  1.00  0.00     0.013 C 
ENDBRANCH   1   2
BRANCH   1   4
HETATM    4  C4  UNL     1      19.621  -3.242  -4.411  1.00  0.00     0.063 C 
BRANCH   4   5
HETATM    5  C5  UNL     1      20.639  -3.032  -5.467  1.00  0.00     0.021 C 
HETATM    6  C6  UNL     1      20.788  -1.755  -6.206  1.00  0.00     0.009 C 
HETATM    7  C7  UNL     1      21.508  -1.224  -4.953  1.00  0.00     0.033 C 
HETATM    8  C8  UNL     1      22.017  -2.675  -4.825  1.00  0.00     0.188 C 
BRANCH   8   9
HETATM    9  N1  UNL     1      22.154  -3.163  -3.495  1.00  0.00    -0.075 N 
ATOM     10  H13 UNL     1      21.273  -3.550  -3.156  1.00  0.00     0.274 HD
ATOM     11  H12 UNL     1      22.726  -4.007  -3.474  1.00  0.00     0.274 HD
ATOM     12  H11 UNL     1      22.516  -2.462  -2.847  1.00  0.00     0.274 HD
ENDBRANCH   8   9
ENDBRANCH   4   5
ENDBRANCH   1   4
BRANCH   1  13
HETATM   13  N2  UNL     1      17.629  -4.728  -3.835  1.00  0.00    -0.384 N 
HETATM   14  C9  UNL     1      16.904  -3.379  -3.757  1.00  0.00     0.150 C 
BRANCH  13  15
HETATM   15  C10 UNL     1      17.158  -5.394  -2.769  1.00  0.00     0.083 C 
HETATM   16  C11 UNL     1      18.193  -5.303  -1.618  1.00  0.00     0.025 C 
HETATM   17  C12 UNL     1      17.586  -6.110  -0.497  1.00  0.00     0.002 C 
HETATM   18  C13 UNL     1      16.329  -6.661  -1.043  1.00  0.00     0.002 C 
HETATM   19  C14 UNL     1      16.656  -6.733  -2.571  1.00  0.00     0.025 C 
ENDBRANCH  13  15
ENDBRANCH   1  13
TORSDOF 6
ENDMDL
MODEL 4
REMARK VINA RESULT: -6.420514374      1.750      2.972
REMARK  6 active torsions:
REMARK  status: ('A' for Active; 'I' for Inactive)
REMARK    1  A    between atoms: C2_2  and  C3_3 
REMARK    2  A    between atoms: C3_3  and  C4_4 
REMARK    3  A    between atoms: C3_3  and  N2_13 
REMARK    4  A    between atoms: C4_4  and  C5_5 
REMARK    5  A    between atoms: C8_8  and  N1_9 
REMARK    6  A    between atoms: N2_13  and  C10_15 
ROOT
HETATM    1  C3  UNL     1      18.115  -3.340  -3.900  1.00  0.00     0.006 C 
ENDROOT
BRANCH   1   2
HETATM    2  C2  UNL     1      16.809  -2.622  -3.882  1.00  0.00     0.014 C 
HETATM    3  C1  UNL     1      16.334  -1.869  -2.906  1.00  0.00     0.013 C 
ENDBRANCH   1   2
BRANCH   1   4
HETATM    4  C4  UNL     1      19.275  -2.455  -4.112  1.00  0.00     0.063 C 
BRANCH   4   5
HETATM    5  C5  UNL     1      20.191  -2.729  -5.244  1.00  0.00     0.021 C 
HETATM    6  C6  UNL     1      20.666  -1.677  -6.176  1.00  0.00     0.009 C 
HETATM    7  C7  UNL     1      21.645  -1.266  -5.061  1.00  0.00     0.033 C 
HETATM    8  C8  UNL     1      21.669  -2.775  -4.743  1.00  0.00     0.188 C 
BRANCH   8   9
HETATM    9  N1  UNL     1      21.780  -3.111  -3.364  1.00  0.00    -0.075 N 
ATOM     10  H13 UNL     1      21.419  -2.360  -2.776  1.00  0.00     0.274 HD
ATOM     11  H12 UNL     1      21.121  -3.849  -3.116  1.00  0.00     0.274 HD
ATOM     12  H11 UNL     1      22.729  -3.364  -3.090  1.00  0.00     0.274 HD
ENDBRANCH   8   9
ENDBRANCH   4   5
ENDBRANCH   1   4
BRANCH   1  13
HETATM   13  N2  UNL     1      18.156  -4.654  -3.464  1.00  0.00    -0.384 N 
HETATM   14  C9  UNL     1      18.112  -5.578  -4.687  1.00  0.00     0.150 C 
BRANCH  13  15
HETATM   15  C10 UNL     1      17.496  -5.351  -2.527  1.00  0.00     0.083 C 
HETATM   16  C11 UNL     1      18.371  -5.438  -1.250  1.00  0.00     0.025 C 
HETATM   17  C12 UNL     1      17.558  -6.267  -0.287  1.00  0.00     0.002 C 
HETATM   18  C13 UNL     1      16.346  -6.661  -1.033  1.00  0.00     0.002 C 
HETATM   19  C14 UNL     1      16.867  -6.651  -2.507  1.00  0.00     0.025 C 
ENDBRANCH  13  15
ENDBRANCH   1  13
TORSDOF 6
ENDMDL
MODEL 5
REMARK VINA RESULT: -6.335585906      1.738      3.517
REMARK  6 active torsions:
REMARK  status: ('A' for Active; 'I' for Inactive)
REMARK    1  A    between atoms: C2_2  and  C3_3 
REMARK    2  A    between atoms: C3_3  and  C4_4 
REMARK    3  A    between atoms: C3_3  and  N2_13 
REMARK    4  A    between atoms: C4_4  and  C5_5 
REMARK    5  A    between atoms: C8_8  and  N1_9 
REMARK    6  A    between atoms: N2_13  and  C10_15 
ROOT
HETATM    1  C3  UNL     1      17.850  -3.042  -3.677  1.00  0.00     0.006 C 
ENDROOT
BRANCH   1   2
HETATM    2  C2  UNL     1      16.808  -1.980  -3.591  1.00  0.00     0.014 C 
HETATM    3  C1  UNL     1      15.691  -2.024  -2.887  1.00  0.00     0.013 C 
ENDBRANCH   1   2
BRANCH   1   4
HETATM    4  C4  UNL     1      19.213  -2.519  -3.882  1.00  0.00     0.063 C 
BRANCH   4   5
HETATM    5  C5  UNL     1      19.951  -2.897  -5.111  1.00  0.00     0.021 C 
HETATM    6  C6  UNL     1      20.291  -1.929  -6.182  1.00  0.00     0.009 C 
HETATM    7  C7  UNL     1      21.426  -1.452  -5.258  1.00  0.00     0.033 C 
HETATM    8  C8  UNL     1      21.486  -2.932  -4.829  1.00  0.00     0.188 C 
BRANCH   8   9
HETATM    9  N1  UNL     1      21.796  -3.163  -3.459  1.00  0.00    -0.075 N 
ATOM     10  H13 UNL     1      22.730  -3.562  -3.360  1.00  0.00     0.274 HD
ATOM     11  H12 UNL     1      21.936  -2.283  -2.964  1.00  0.00     0.274 HD
ATOM     12  H11 UNL     1      21.102  -3.741  -2.985  1.00  0.00     0.274 HD
ENDBRANCH   8   9
ENDBRANCH   4   5
ENDBRANCH   1   4
BRANCH   1  13
HETATM   13  N2  UNL     1      17.515  -4.332  -3.301  1.00  0.00    -0.384 N 
HETATM   14  C9  UNL     1      18.338  -4.712  -2.065  1.00  0.00     0.150 C 
BRANCH  13  15
HETATM   15  C10 UNL     1      17.387  -5.495  -3.957  1.00  0.00     0.083 C 
HETATM   16  C11 UNL     1      17.139  -6.630  -2.931  1.00  0.00     0.025 C 
HETATM   17  C12 UNL     1      17.050  -7.885  -3.765  1.00  0.00     0.002 C 
HETATM   18  C13 UNL     1      17.307  -7.453  -5.154  1.00  0.00     0.002 C 
HETATM   19  C14 UNL     1      18.199  -6.188  -4.930  1.00  0.00     0.025 C 
ENDBRANCH  13  15
ENDBRANCH   1  13
TORSDOF 6
ENDMDL
