MODEL 1
REMARK VINA RESULT: -7.480504681      0.000      0.000
REMARK  8 active torsions:
REMARK  status: ('A' for Active; 'I' for Inactive)
REMARK    1  A    between atoms: C2_2  and  O1_3 
REMARK    2  A    between atoms: C2_2  and  C3_5 
REMARK    3  A    between atoms: C3_5  and  C4_6 
REMARK    4  A    between atoms: C4_6  and  C5_7 
REMARK    5  A    between atoms: C5_7  and  C6_8 
REMARK    6  A    between atoms: C6_8  and  C8_11 
REMARK    7  A    between atoms: C14_17  and  C15_18 
REMARK    8  A    between atoms: C15_18  and  O2_19 
ROOT
HETATM    1  C6  UNL     1       7.087 -10.475 -23.792  1.00  0.00     0.097 C 
HETATM    2  C7  UNL     1       8.038 -11.460 -24.306  1.00  0.00     0.064 C 
HETATM    3  N1  UNL     1       8.798 -12.240 -24.699  1.00  0.00    -0.197 NA
ENDROOT
BRANCH   1   4
HETATM    4  C5  UNL     1       7.741  -9.662 -22.652  1.00  0.00     0.020 C 
BRANCH   4   5
HETATM    5  C4  UNL     1       8.151  -8.333 -23.131  1.00  0.00     0.004 C 
BRANCH   5   6
HETATM    6  C3  UNL     1       7.459  -7.664 -24.249  1.00  0.00     0.031 C 
BRANCH   6   7
HETATM    7  C2  UNL     1       6.524  -6.570 -23.922  1.00  0.00     0.114 C 
HETATM    8  C1  UNL     1       5.917  -5.920 -25.117  1.00  0.00     0.039 C 
BRANCH   7   9
HETATM    9  O1  UNL     1       7.233  -5.646 -23.128  1.00  0.00    -0.396 OA
ATOM     10  H1  UNL     1       7.740  -5.043 -23.659  1.00  0.00     0.210 HD
ENDBRANCH   7   9
ENDBRANCH   6   7
ENDBRANCH   5   6
ENDBRANCH   4   5
ENDBRANCH   1   4
BRANCH   1  11
HETATM   11  C8  UNL     1       5.886 -11.226 -23.269  1.00  0.00     0.011 C 
HETATM   12  C9  UNL     1       5.628 -12.481 -24.088  1.00  0.00     0.007 C 
HETATM   13  C10 UNL     1       4.131 -12.474 -24.424  1.00  0.00     0.006 C 
HETATM   14  C11 UNL     1       3.590 -11.448 -23.523  1.00  0.00     0.000 C 
HETATM   15  C12 UNL     1       2.302 -10.846 -23.805  1.00  0.00     0.027 C 
HETATM   16  C22 UNL     1       4.675 -10.400 -23.511  1.00  0.00     0.032 C 
HETATM   17  C13 UNL     1       1.212 -11.761 -24.297  1.00  0.00     0.042 C 
HETATM   18  C16 UNL     1       2.248  -9.731 -24.810  1.00  0.00     0.062 C 
HETATM   19  C14 UNL     1       0.271 -10.767 -24.961  1.00  0.00     0.146 C 
HETATM   20  O3  UNL     1       0.844  -9.500 -24.782  1.00  0.00    -0.373 OA
HETATM   21  C17 UNL     1       2.501 -10.181 -26.223  1.00  0.00     0.046 C 
HETATM   22  C18 UNL     1       2.968  -8.495 -24.416  1.00  0.00     0.041 C 
HETATM   23  C19 UNL     1       3.337  -8.408 -22.964  1.00  0.00     0.043 C 
HETATM   24  C20 UNL     1       4.404  -9.329 -22.510  1.00  0.00     0.087 A 
HETATM   25  C21 UNL     1       5.122  -9.176 -21.292  1.00  0.00     0.207 A 
HETATM   26  O4  UNL     1       3.974  -9.996 -21.227  1.00  0.00    -0.374 OA
BRANCH  19  27
HETATM   27  C15 UNL     1      -1.026 -10.745 -24.141  1.00  0.00     0.196 C 
BRANCH  27  28
HETATM   28  O2  UNL     1      -1.985 -11.455 -24.850  1.00  0.00    -0.398 OA
ATOM     29  H2  UNL     1      -1.533 -12.111 -25.367  1.00  0.00     0.209 HD
ENDBRANCH  27  28
ENDBRANCH  19  27
ENDBRANCH   1  11
TORSDOF 8
ENDMDL
MODEL 2
REMARK VINA RESULT: -7.287272187      2.943      5.411
REMARK  8 active torsions:
REMARK  status: ('A' for Active; 'I' for Inactive)
REMARK    1  A    between atoms: C2_2  and  O1_3 
REMARK    2  A    between atoms: C2_2  and  C3_5 
REMARK    3  A    between atoms: C3_5  and  C4_6 
REMARK    4  A    between atoms: C4_6  and  C5_7 
REMARK    5  A    between atoms: C5_7  and  C6_8 
REMARK    6  A    between atoms: C6_8  and  C8_11 
REMARK    7  A    between atoms: C14_17  and  C15_18 
REMARK    8  A    between atoms: C15_18  and  O2_19 
ROOT
HETATM    1  C6  UNL     1       5.305 -12.090 -24.417  1.00  0.00     0.097 C 
HETATM    2  C7  UNL     1       4.362 -13.175 -24.688  1.00  0.00     0.064 C 
HETATM    3  N1  UNL     1       3.625 -14.044 -24.892  1.00  0.00    -0.197 NA
ENDROOT
BRANCH   1   4
HETATM    4  C5  UNL     1       6.686 -12.677 -24.051  1.00  0.00     0.020 C 
BRANCH   4   5
HETATM    5  C4  UNL     1       6.976 -13.870 -24.862  1.00  0.00     0.004 C 
BRANCH   5   6
HETATM    6  C3  UNL     1       8.295 -14.528 -24.827  1.00  0.00     0.031 C 
BRANCH   6   7
HETATM    7  C2  UNL     1       9.263 -14.185 -25.887  1.00  0.00     0.114 C 
HETATM    8  C1  UNL     1      10.146 -15.316 -26.285  1.00  0.00     0.039 C 
BRANCH   7   9
HETATM    9  O1  UNL     1      10.007 -13.080 -25.423  1.00  0.00    -0.396 OA
ATOM     10  H1  UNL     1      10.075 -13.075 -24.476  1.00  0.00     0.210 HD
ENDBRANCH   7   9
ENDBRANCH   6   7
ENDBRANCH   5   6
ENDBRANCH   4   5
ENDBRANCH   1   4
BRANCH   1  11
HETATM   11  C8  UNL     1       4.759 -11.286 -23.260  1.00  0.00     0.011 C 
HETATM   12  C9  UNL     1       3.255 -11.108 -23.381  1.00  0.00     0.007 C 
HETATM   13  C10 UNL     1       2.979  -9.618 -23.148  1.00  0.00     0.006 C 
HETATM   14  C11 UNL     1       4.246  -9.125 -22.591  1.00  0.00     0.000 C 
HETATM   15  C12 UNL     1       4.542  -7.707 -22.616  1.00  0.00     0.027 C 
HETATM   16  C22 UNL     1       5.282  -9.899 -23.366  1.00  0.00     0.032 C 
HETATM   17  C13 UNL     1       3.412  -6.765 -22.301  1.00  0.00     0.042 C 
HETATM   18  C16 UNL     1       5.087  -7.122 -23.889  1.00  0.00     0.062 C 
HETATM   19  C14 UNL     1       3.919  -5.474 -22.925  1.00  0.00     0.146 C 
HETATM   20  O3  UNL     1       5.180  -5.767 -23.465  1.00  0.00    -0.373 OA
HETATM   21  C17 UNL     1       4.082  -7.072 -25.007  1.00  0.00     0.046 C 
HETATM   22  C18 UNL     1       6.428  -7.618 -24.284  1.00  0.00     0.041 C 
HETATM   23  C19 UNL     1       7.182  -8.343 -23.208  1.00  0.00     0.043 C 
HETATM   24  C20 UNL     1       6.657  -9.677 -22.835  1.00  0.00     0.087 A 
HETATM   25  C21 UNL     1       7.397 -10.648 -22.106  1.00  0.00     0.207 A 
HETATM   26  O4  UNL     1       6.592  -9.784 -21.332  1.00  0.00    -0.374 OA
BRANCH  19  27
HETATM   27  C15 UNL     1       4.188  -4.486 -21.782  1.00  0.00     0.196 C 
BRANCH  27  28
HETATM   28  O2  UNL     1       2.976  -4.229 -21.156  1.00  0.00    -0.398 OA
ATOM     29  H2  UNL     1       3.166  -3.933 -20.273  1.00  0.00     0.209 HD
ENDBRANCH  27  28
ENDBRANCH  19  27
ENDBRANCH   1  11
TORSDOF 8
ENDMDL
MODEL 3
REMARK VINA RESULT: -7.223031298      3.247      6.058
REMARK  8 active torsions:
REMARK  status: ('A' for Active; 'I' for Inactive)
REMARK    1  A    between atoms: C2_2  and  O1_3 
REMARK    2  A    between atoms: C2_2  and  C3_5 
REMARK    3  A    between atoms: C3_5  and  C4_6 
REMARK    4  A    between atoms: C4_6  and  C5_7 
REMARK    5  A    between atoms: C5_7  and  C6_8 
REMARK    6  A    between atoms: C6_8  and  C8_11 
REMARK    7  A    between atoms: C14_17  and  C15_18 
REMARK    8  A    between atoms: C15_18  and  O2_19 
ROOT
HETATM    1  C6  UNL     1       5.521 -11.544 -24.140  1.00  0.00     0.097 C 
HETATM    2  C7  UNL     1       4.280 -12.267 -24.419  1.00  0.00     0.064 C 
HETATM    3  N1  UNL     1       3.303 -12.850 -24.630  1.00  0.00    -0.197 NA
ENDROOT
BRANCH   1   4
HETATM    4  C5  UNL     1       6.614 -12.538 -23.688  1.00  0.00     0.020 C 
BRANCH   4   5
HETATM    5  C4  UNL     1       7.337 -13.078 -24.850  1.00  0.00     0.004 C 
BRANCH   5   6
HETATM    6  C3  UNL     1       7.205 -14.489 -25.258  1.00  0.00     0.031 C 
BRANCH   6   7
HETATM    7  C2  UNL     1       6.235 -14.808 -26.324  1.00  0.00     0.114 C 
HETATM    8  C1  UNL     1       5.155 -15.739 -25.896  1.00  0.00     0.039 C 
BRANCH   7   9
HETATM    9  O1  UNL     1       6.971 -15.326 -27.409  1.00  0.00    -0.396 OA
ATOM     10  H1  UNL     1       7.722 -14.782 -27.616  1.00  0.00     0.210 HD
ENDBRANCH   7   9
ENDBRANCH   6   7
ENDBRANCH   5   6
ENDBRANCH   4   5
ENDBRANCH   1   4
BRANCH   1  11
HETATM   11  C8  UNL     1       5.235 -10.551 -23.038  1.00  0.00     0.011 C 
HETATM   12  C9  UNL     1       3.748 -10.252 -22.945  1.00  0.00     0.007 C 
HETATM   13  C10 UNL     1       3.620  -8.725 -22.885  1.00  0.00     0.006 C 
HETATM   14  C11 UNL     1       4.994  -8.284 -22.610  1.00  0.00     0.000 C 
HETATM   15  C12 UNL     1       5.381  -6.914 -22.883  1.00  0.00     0.027 C 
HETATM   16  C22 UNL     1       5.828  -9.243 -23.421  1.00  0.00     0.032 C 
HETATM   17  C13 UNL     1       4.388  -5.838 -22.531  1.00  0.00     0.042 C 
HETATM   18  C16 UNL     1       5.743  -6.550 -24.295  1.00  0.00     0.062 C 
HETATM   19  C14 UNL     1       4.872  -4.691 -23.405  1.00  0.00     0.146 C 
HETATM   20  O3  UNL     1       6.001  -5.166 -24.088  1.00  0.00    -0.373 OA
HETATM   21  C17 UNL     1       4.570  -6.552 -25.238  1.00  0.00     0.046 C 
HETATM   22  C18 UNL     1       6.960  -7.215 -24.822  1.00  0.00     0.041 C 
HETATM   23  C19 UNL     1       7.832  -7.862 -23.786  1.00  0.00     0.043 C 
HETATM   24  C20 UNL     1       7.285  -9.082 -23.150  1.00  0.00     0.087 A 
HETATM   25  C21 UNL     1       8.068 -10.015 -22.415  1.00  0.00     0.207 A 
HETATM   26  O4  UNL     1       7.467  -8.988 -21.655  1.00  0.00    -0.374 OA
BRANCH  19  27
HETATM   27  C15 UNL     1       5.398  -3.593 -22.470  1.00  0.00     0.196 C 
BRANCH  27  28
HETATM   28  O2  UNL     1       6.779  -3.721 -22.406  1.00  0.00    -0.398 OA
ATOM     29  H2  UNL     1       7.028  -3.690 -21.490  1.00  0.00     0.209 HD
ENDBRANCH  27  28
ENDBRANCH  19  27
ENDBRANCH   1  11
TORSDOF 8
ENDMDL
MODEL 4
REMARK VINA RESULT: -7.068056070      2.624      3.533
REMARK  8 active torsions:
REMARK  status: ('A' for Active; 'I' for Inactive)
REMARK    1  A    between atoms: C2_2  and  O1_3 
REMARK    2  A    between atoms: C2_2  and  C3_5 
REMARK    3  A    between atoms: C3_5  and  C4_6 
REMARK    4  A    between atoms: C4_6  and  C5_7 
REMARK    5  A    between atoms: C5_7  and  C6_8 
REMARK    6  A    between atoms: C6_8  and  C8_11 
REMARK    7  A    between atoms: C14_17  and  C15_18 
REMARK    8  A    between atoms: C15_18  and  O2_19 
ROOT
HETATM    1  C6  UNL     1       5.007  -9.905 -23.456  1.00  0.00     0.097 C 
HETATM    2  C7  UNL     1       4.944 -11.329 -23.787  1.00  0.00     0.064 C 
HETATM    3  N1  UNL     1       4.895 -12.458 -24.033  1.00  0.00    -0.197 NA
ENDROOT
BRANCH   1   4
HETATM    4  C5  UNL     1       5.809  -9.707 -22.151  1.00  0.00     0.020 C 
BRANCH   4   5
HETATM    5  C4  UNL     1       7.251  -9.622 -22.436  1.00  0.00     0.004 C 
BRANCH   5   6
HETATM    6  C3  UNL     1       7.765  -8.930 -23.632  1.00  0.00     0.031 C 
BRANCH   6   7
HETATM    7  C2  UNL     1       7.622  -7.463 -23.692  1.00  0.00     0.114 C 
HETATM    8  C1  UNL     1       7.421  -6.933 -25.070  1.00  0.00     0.039 C 
BRANCH   7   9
HETATM    9  O1  UNL     1       8.769  -6.912 -23.084  1.00  0.00    -0.396 OA
ATOM     10  H1  UNL     1       9.567  -7.214 -23.501  1.00  0.00     0.210 HD
ENDBRANCH   7   9
ENDBRANCH   6   7
ENDBRANCH   5   6
ENDBRANCH   4   5
ENDBRANCH   1   4
BRANCH   1  11
HETATM   11  C8  UNL     1       3.590  -9.413 -23.273  1.00  0.00     0.011 C 
HETATM   12  C9  UNL     1       2.586 -10.463 -23.721  1.00  0.00     0.007 C 
HETATM   13  C10 UNL     1       1.579  -9.738 -24.622  1.00  0.00     0.006 C 
HETATM   14  C11 UNL     1       1.858  -8.319 -24.363  1.00  0.00     0.000 C 
HETATM   15  C12 UNL     1       1.417  -7.313 -25.307  1.00  0.00     0.027 C 
HETATM   16  C22 UNL     1       3.359  -8.289 -24.217  1.00  0.00     0.032 C 
HETATM   17  C13 UNL     1       0.048  -7.492 -25.909  1.00  0.00     0.042 C 
HETATM   18  C16 UNL     1       2.261  -7.067 -26.525  1.00  0.00     0.062 C 
HETATM   19  C14 UNL     1       0.160  -6.630 -27.158  1.00  0.00     0.146 C 
HETATM   20  O3  UNL     1       1.447  -6.074 -27.139  1.00  0.00    -0.373 OA
HETATM   21  C17 UNL     1       2.237  -8.202 -27.513  1.00  0.00     0.046 C 
HETATM   22  C18 UNL     1       3.610  -6.513 -26.253  1.00  0.00     0.041 C 
HETATM   23  C19 UNL     1       3.804  -5.958 -24.871  1.00  0.00     0.043 C 
HETATM   24  C20 UNL     1       3.850  -6.953 -23.775  1.00  0.00     0.087 A 
HETATM   25  C21 UNL     1       4.353  -6.679 -22.473  1.00  0.00     0.207 A 
HETATM   26  O4  UNL     1       2.965  -6.489 -22.645  1.00  0.00    -0.374 OA
BRANCH  19  27
HETATM   27  C15 UNL     1      -0.796  -5.442 -26.982  1.00  0.00     0.196 C 
BRANCH  27  28
HETATM   28  O2  UNL     1      -0.129  -4.471 -26.249  1.00  0.00    -0.398 OA
ATOM     29  H2  UNL     1       0.706  -4.835 -25.980  1.00  0.00     0.209 HD
ENDBRANCH  27  28
ENDBRANCH  19  27
ENDBRANCH   1  11
TORSDOF 8
ENDMDL
MODEL 5
REMARK VINA RESULT: -6.965448705      3.144      4.809
REMARK  8 active torsions:
REMARK  status: ('A' for Active; 'I' for Inactive)
REMARK    1  A    between atoms: C2_2  and  O1_3 
REMARK    2  A    between atoms: C2_2  and  C3_5 
REMARK    3  A    between atoms: C3_5  and  C4_6 
REMARK    4  A    between atoms: C4_6  and  C5_7 
REMARK    5  A    between atoms: C5_7  and  C6_8 
REMARK    6  A    between atoms: C6_8  and  C8_11 
REMARK    7  A    between atoms: C14_17  and  C15_18 
REMARK    8  A    between atoms: C15_18  and  O2_19 
ROOT
HETATM    1  C6  UNL     1       4.028 -11.057 -24.235  1.00  0.00     0.097 C 
HETATM    2  C7  UNL     1       3.538 -12.432 -24.327  1.00  0.00     0.064 C 
HETATM    3  N1  UNL     1       3.155 -13.523 -24.383  1.00  0.00    -0.197 NA
ENDROOT
BRANCH   1   4
HETATM    4  C5  UNL     1       5.194 -10.983 -23.225  1.00  0.00     0.020 C 
BRANCH   4   5
HETATM    5  C4  UNL     1       6.475 -11.275 -23.888  1.00  0.00     0.004 C 
BRANCH   5   6
HETATM    6  C3  UNL     1       7.216 -12.523 -23.627  1.00  0.00     0.031 C 
BRANCH   6   7
HETATM    7  C2  UNL     1       7.568 -13.368 -24.784  1.00  0.00     0.114 C 
HETATM    8  C1  UNL     1       6.639 -14.513 -24.998  1.00  0.00     0.039 C 
BRANCH   7   9
HETATM    9  O1  UNL     1       8.895 -13.803 -24.590  1.00  0.00    -0.396 OA
ATOM     10  H1  UNL     1       9.517 -13.092 -24.699  1.00  0.00     0.210 HD
ENDBRANCH   7   9
ENDBRANCH   6   7
ENDBRANCH   5   6
ENDBRANCH   4   5
ENDBRANCH   1   4
BRANCH   1  11
HETATM   11  C8  UNL     1       2.881 -10.191 -23.768  1.00  0.00     0.011 C 
HETATM   12  C9  UNL     1       1.544 -10.804 -24.150  1.00  0.00     0.007 C 
HETATM   13  C10 UNL     1       0.722  -9.678 -24.789  1.00  0.00     0.006 C 
HETATM   14  C11 UNL     1       1.476  -8.469 -24.431  1.00  0.00     0.000 C 
HETATM   15  C12 UNL     1       1.270  -7.243 -25.176  1.00  0.00     0.027 C 
HETATM   16  C22 UNL     1       2.911  -8.920 -24.536  1.00  0.00     0.032 C 
HETATM   17  C13 UNL     1      -0.146  -6.903 -25.558  1.00  0.00     0.042 C 
HETATM   18  C16 UNL     1       1.990  -7.083 -26.486  1.00  0.00     0.062 C 
HETATM   19  C14 UNL     1       0.082  -5.935 -26.709  1.00  0.00     0.146 C 
HETATM   20  O3  UNL     1       1.472  -5.808 -26.847  1.00  0.00    -0.373 OA
HETATM   21  C17 UNL     1       1.477  -7.991 -27.570  1.00  0.00     0.046 C 
HETATM   22  C18 UNL     1       3.469  -7.014 -26.385  1.00  0.00     0.041 C 
HETATM   23  C19 UNL     1       4.002  -6.764 -25.004  1.00  0.00     0.043 C 
HETATM   24  C20 UNL     1       3.859  -7.881 -24.043  1.00  0.00     0.087 A 
HETATM   25  C21 UNL     1       4.583  -7.976 -22.821  1.00  0.00     0.207 A 
HETATM   26  O4  UNL     1       3.320  -7.349 -22.738  1.00  0.00    -0.374 OA
BRANCH  19  27
HETATM   27  C15 UNL     1      -0.407  -4.555 -26.252  1.00  0.00     0.196 C 
BRANCH  27  28
HETATM   28  O2  UNL     1       0.594  -3.637 -26.541  1.00  0.00    -0.398 OA
ATOM     29  H2  UNL     1       0.183  -2.878 -26.936  1.00  0.00     0.209 HD
ENDBRANCH  27  28
ENDBRANCH  19  27
ENDBRANCH   1  11
TORSDOF 8
ENDMDL
