MODEL 1
REMARK VINA RESULT: -5.564922795      0.000      0.000
REMARK  12 active torsions:
REMARK  status: ('A' for Active; 'I' for Inactive)
REMARK    1  A    between atoms: C2_2  and  C3_3 
REMARK    2  A    between atoms: C3_3  and  N1_4 
REMARK    3  A    between atoms: C4_5  and  C5_6 
REMARK    4  A    between atoms: C5_6  and  C6_7 
REMARK    5  A    between atoms: C8_9  and  O1_10 
REMARK    6  A    between atoms: C12_18  and  O2_19 
REMARK    7  A    between atoms: C13_21  and  C14_22 
REMARK    8  A    between atoms: C14_22  and  C15_23 
REMARK    9  A    between atoms: C19_30  and  C20_31 
REMARK   10  A    between atoms: C20_31  and  C21_32 
REMARK   11  A    between atoms: C31_51  and  C32_52 
REMARK   12  A    between atoms: C32_52  and  C33_53 
ROOT
HETATM    1  N1  UNL     1      27.676  27.201  16.089  1.00  0.00    -0.337 N 
HETATM    2  C4  UNL     1      26.307  27.143  16.528  1.00  0.00     0.195 C 
HETATM    3  N3  UNL     1      26.083  25.839  17.172  1.00  0.00    -0.351 N 
ATOM      4  H3  UNL     1      25.860  25.094  16.512  1.00  0.00     0.163 HD
HETATM    5  C12 UNL     1      26.113  25.419  18.475  1.00  0.00     0.136 C 
HETATM    6  C13 UNL     1      27.125  25.469  19.551  1.00  0.00     0.159 C 
HETATM    7  N4  UNL     1      26.782  26.479  20.546  1.00  0.00    -0.347 N 
ATOM      8  H4  UNL     1      26.192  27.240  20.206  1.00  0.00     0.163 HD
HETATM    9  C18 UNL     1      27.135  26.561  21.876  1.00  0.00     0.241 C 
HETATM   10  O3  UNL     1      26.231  26.794  22.733  1.00  0.00    -0.271 OA
HETATM   11  C19 UNL     1      28.520  26.400  22.470  1.00  0.00     0.177 C 
HETATM   12  N5  UNL     1      29.019  27.738  22.804  1.00  0.00    -0.346 N 
ATOM     13  H5  UNL     1      28.543  28.266  23.536  1.00  0.00     0.163 HD
HETATM   14  C24 UNL     1      30.122  28.325  22.160  1.00  0.00     0.240 C 
HETATM   15  O4  UNL     1      30.813  29.168  22.780  1.00  0.00    -0.271 OA
HETATM   16  C25 UNL     1      30.534  28.008  20.768  1.00  0.00     0.172 C 
HETATM   17  C26 UNL     1      31.898  27.338  20.856  1.00  0.00     0.042 C 
HETATM   18  N6  UNL     1      30.725  29.270  20.102  1.00  0.00    -0.346 N 
ATOM     19  H6  UNL     1      31.556  29.799  20.369  1.00  0.00     0.163 HD
HETATM   20  C27 UNL     1      29.904  29.853  19.133  1.00  0.00     0.240 C 
HETATM   21  O5  UNL     1      30.400  30.758  18.385  1.00  0.00    -0.271 OA
HETATM   22  C28 UNL     1      28.474  29.515  18.885  1.00  0.00     0.172 C 
HETATM   23  C29 UNL     1      27.689  30.157  20.038  1.00  0.00     0.042 C 
HETATM   24  N7  UNL     1      28.028  30.127  17.661  1.00  0.00    -0.343 N 
ATOM     25  H7  UNL     1      28.133  31.141  17.630  1.00  0.00     0.163 HD
HETATM   26  C30 UNL     1      27.476  29.563  16.509  1.00  0.00     0.265 C 
HETATM   27  O6  UNL     1      26.337  30.061  16.152  1.00  0.00    -0.266 OA
HETATM   28  C31 UNL     1      28.062  28.466  15.666  1.00  0.00     0.081 C 
ENDROOT
BRANCH   2  29
HETATM   29  C5  UNL     1      25.329  27.218  15.394  1.00  0.00     0.104 C 
BRANCH  29  30
HETATM   30  C6  UNL     1      23.922  27.224  15.867  1.00  0.00     0.015 A 
HETATM   31  C7  UNL     1      23.340  27.597  17.031  1.00  0.00     0.064 A 
HETATM   32  C8  UNL     1      22.001  27.385  16.961  1.00  0.00     0.092 A 
HETATM   33  C10 UNL     1      21.729  26.870  15.736  1.00  0.00     0.039 A 
HETATM   34  C11 UNL     1      20.381  26.480  15.214  1.00  0.00     0.071 C 
HETATM   35  N2  UNL     1      22.886  26.775  15.082  1.00  0.00    -0.361 N 
ATOM     36  H2  UNL     1      22.989  26.420  14.131  1.00  0.00     0.165 HD
BRANCH  32  37
HETATM   37  O1  UNL     1      21.047  27.641  17.957  1.00  0.00    -0.354 OA
HETATM   38  C9  UNL     1      21.233  27.276  19.292  1.00  0.00     0.210 C 
ENDBRANCH  32  37
ENDBRANCH  29  30
ENDBRANCH   2  29
BRANCH   1  39
HETATM   39  C3  UNL     1      28.330  26.027  15.772  1.00  0.00     0.066 C 
BRANCH  39  40
HETATM   40  C2  UNL     1      29.542  25.572  16.498  1.00  0.00     0.040 C 
HETATM   41  C1  UNL     1      30.620  25.317  15.404  1.00  0.00     0.010 C 
ENDBRANCH  39  40
ENDBRANCH   1  39
BRANCH  28  42
HETATM   42  C32 UNL     1      29.434  28.833  15.284  1.00  0.00     0.067 C 
BRANCH  42  43
HETATM   43  C33 UNL     1      29.742  29.367  13.932  1.00  0.00    -0.017 C 
HETATM   44  C34 UNL     1      30.447  28.288  13.080  1.00  0.00     0.010 C 
HETATM   45  C35 UNL     1      30.762  30.515  13.995  1.00  0.00     0.010 C 
ENDBRANCH  42  43
ENDBRANCH  28  42
BRANCH   5  46
HETATM   46  O2  UNL     1      25.014  24.837  18.906  1.00  0.00    -0.348 OA
ATOM     47  H2  UNL     1      25.134  23.981  19.300  1.00  0.00     0.219 HD
ENDBRANCH   5  46
BRANCH   6  48
HETATM   48  C14 UNL     1      27.327  24.131  20.164  1.00  0.00     0.037 C 
BRANCH  48  49
HETATM   49  C15 UNL     1      28.516  23.338  19.782  1.00  0.00    -0.020 C 
HETATM   50  C16 UNL     1      28.508  21.936  20.321  1.00  0.00     0.009 C 
HETATM   51  C17 UNL     1      29.854  23.990  19.917  1.00  0.00     0.009 C 
ENDBRANCH  48  49
ENDBRANCH   6  48
BRANCH  11  52
HETATM   52  C20 UNL     1      28.307  25.648  23.749  1.00  0.00     0.038 C 
BRANCH  52  53
HETATM   53  C21 UNL     1      28.222  24.180  23.708  1.00  0.00    -0.020 C 
HETATM   54  C22 UNL     1      29.522  23.451  23.639  1.00  0.00     0.009 C 
HETATM   55  C23 UNL     1      27.533  23.731  25.016  1.00  0.00     0.009 C 
ENDBRANCH  52  53
ENDBRANCH  11  52
TORSDOF 12
ENDMDL
MODEL 2
REMARK VINA RESULT: -5.188382122      8.963     14.941
REMARK  12 active torsions:
REMARK  status: ('A' for Active; 'I' for Inactive)
REMARK    1  A    between atoms: C2_2  and  C3_3 
REMARK    2  A    between atoms: C3_3  and  N1_4 
REMARK    3  A    between atoms: C4_5  and  C5_6 
REMARK    4  A    between atoms: C5_6  and  C6_7 
REMARK    5  A    between atoms: C8_9  and  O1_10 
REMARK    6  A    between atoms: C12_18  and  O2_19 
REMARK    7  A    between atoms: C13_21  and  C14_22 
REMARK    8  A    between atoms: C14_22  and  C15_23 
REMARK    9  A    between atoms: C19_30  and  C20_31 
REMARK   10  A    between atoms: C20_31  and  C21_32 
REMARK   11  A    between atoms: C31_51  and  C32_52 
REMARK   12  A    between atoms: C32_52  and  C33_53 
ROOT
HETATM    1  N1  UNL     1      16.957  22.881  18.140  1.00  0.00    -0.337 N 
HETATM    2  C4  UNL     1      15.859  23.805  18.042  1.00  0.00     0.195 C 
HETATM    3  N3  UNL     1      15.166  23.566  16.767  1.00  0.00    -0.351 N 
ATOM      4  H3  UNL     1      15.591  24.051  15.977  1.00  0.00     0.163 HD
HETATM    5  C12 UNL     1      14.066  22.825  16.421  1.00  0.00     0.136 C 
HETATM    6  C13 UNL     1      13.691  21.403  16.577  1.00  0.00     0.159 C 
HETATM    7  N4  UNL     1      12.688  21.239  17.623  1.00  0.00    -0.347 N 
ATOM      8  H4  UNL     1      12.681  21.970  18.335  1.00  0.00     0.163 HD
HETATM    9  C18 UNL     1      11.749  20.245  17.794  1.00  0.00     0.241 C 
HETATM   10  O3  UNL     1      10.549  20.575  18.030  1.00  0.00    -0.271 OA
HETATM   11  C19 UNL     1      11.975  18.747  17.730  1.00  0.00     0.177 C 
HETATM   12  N5  UNL     1      11.985  18.241  19.107  1.00  0.00    -0.346 N 
ATOM     13  H5  UNL     1      11.125  18.294  19.652  1.00  0.00     0.163 HD
HETATM   14  C24 UNL     1      13.128  17.686  19.708  1.00  0.00     0.240 C 
HETATM   15  O4  UNL     1      12.987  16.832  20.616  1.00  0.00    -0.271 OA
HETATM   16  C25 UNL     1      14.520  18.050  19.336  1.00  0.00     0.172 C 
HETATM   17  C26 UNL     1      15.153  16.802  18.736  1.00  0.00     0.042 C 
HETATM   18  N6  UNL     1      15.214  18.325  20.566  1.00  0.00    -0.346 N 
ATOM     19  H6  UNL     1      15.439  17.518  21.147  1.00  0.00     0.163 HD
HETATM   20  C27 UNL     1      15.614  19.572  21.057  1.00  0.00     0.240 C 
HETATM   21  O5  UNL     1      16.530  19.608  21.941  1.00  0.00    -0.271 OA
HETATM   22  C28 UNL     1      15.059  20.890  20.638  1.00  0.00     0.172 C 
HETATM   23  C29 UNL     1      13.679  20.992  21.306  1.00  0.00     0.042 C 
HETATM   24  N7  UNL     1      15.874  21.956  21.161  1.00  0.00    -0.343 N 
ATOM     25  H7  UNL     1      15.978  21.953  22.176  1.00  0.00     0.163 HD
HETATM   26  C30 UNL     1      16.546  22.992  20.509  1.00  0.00     0.265 C 
HETATM   27  O6  UNL     1      16.257  24.178  20.933  1.00  0.00    -0.266 OA
HETATM   28  C31 UNL     1      17.548  22.864  19.397  1.00  0.00     0.081 C 
ENDROOT
BRANCH   2  29
HETATM   29  C5  UNL     1      16.303  25.237  18.009  1.00  0.00     0.104 C 
BRANCH  29  30
HETATM   30  C6  UNL     1      17.635  25.396  17.374  1.00  0.00     0.015 A 
HETATM   31  C7  UNL     1      18.061  25.329  16.091  1.00  0.00     0.064 A 
HETATM   32  C8  UNL     1      19.402  25.536  16.043  1.00  0.00     0.092 A 
HETATM   33  C10 UNL     1      19.833  25.737  17.313  1.00  0.00     0.039 A 
HETATM   34  C11 UNL     1      21.243  26.005  17.742  1.00  0.00     0.071 C 
HETATM   35  N2  UNL     1      18.768  25.653  18.109  1.00  0.00    -0.361 N 
ATOM     36  H2  UNL     1      18.791  25.763  19.123  1.00  0.00     0.165 HD
BRANCH  32  37
HETATM   37  O1  UNL     1      20.220  25.545  14.903  1.00  0.00    -0.354 OA
HETATM   38  C9  UNL     1      20.465  26.702  14.159  1.00  0.00     0.210 C 
ENDBRANCH  32  37
ENDBRANCH  29  30
ENDBRANCH   2  29
BRANCH   1  39
HETATM   39  C3  UNL     1      17.547  22.413  16.982  1.00  0.00     0.066 C 
BRANCH  39  40
HETATM   40  C2  UNL     1      17.775  20.968  16.735  1.00  0.00     0.040 C 
HETATM   41  C1  UNL     1      16.643  20.224  17.503  1.00  0.00     0.010 C 
ENDBRANCH  39  40
ENDBRANCH   1  39
BRANCH  28  42
HETATM   42  C32 UNL     1      18.606  21.929  19.806  1.00  0.00     0.067 C 
BRANCH  42  43
HETATM   43  C33 UNL     1      19.959  22.412  20.185  1.00  0.00    -0.017 C 
HETATM   44  C34 UNL     1      20.612  21.436  21.189  1.00  0.00     0.010 C 
HETATM   45  C35 UNL     1      19.891  23.742  20.952  1.00  0.00     0.010 C 
ENDBRANCH  42  43
ENDBRANCH  28  42
BRANCH   5  46
HETATM   46  O2  UNL     1      13.107  23.488  15.812  1.00  0.00    -0.348 OA
ATOM     47  H2  UNL     1      12.237  23.370  16.173  1.00  0.00     0.219 HD
ENDBRANCH   5  46
BRANCH   6  48
HETATM   48  C14 UNL     1      13.250  20.818  15.285  1.00  0.00     0.037 C 
BRANCH  48  49
HETATM   49  C15 UNL     1      14.269  20.317  14.337  1.00  0.00    -0.020 C 
HETATM   50  C16 UNL     1      15.053  21.404  13.660  1.00  0.00     0.009 C 
HETATM   51  C17 UNL     1      13.858  19.238  13.388  1.00  0.00     0.009 C 
ENDBRANCH  48  49
ENDBRANCH   6  48
BRANCH  11  52
HETATM   52  C20 UNL     1      10.761  18.202  17.040  1.00  0.00     0.038 C 
BRANCH  52  53
HETATM   53  C21 UNL     1      10.828  17.915  15.599  1.00  0.00    -0.020 C 
HETATM   54  C22 UNL     1      10.329  16.574  15.177  1.00  0.00     0.009 C 
HETATM   55  C23 UNL     1       9.939  18.960  14.889  1.00  0.00     0.009 C 
ENDBRANCH  52  53
ENDBRANCH  11  52
TORSDOF 12
ENDMDL
MODEL 3
REMARK VINA RESULT: -5.041162363      1.857      2.544
REMARK  12 active torsions:
REMARK  status: ('A' for Active; 'I' for Inactive)
REMARK    1  A    between atoms: C2_2  and  C3_3 
REMARK    2  A    between atoms: C3_3  and  N1_4 
REMARK    3  A    between atoms: C4_5  and  C5_6 
REMARK    4  A    between atoms: C5_6  and  C6_7 
REMARK    5  A    between atoms: C8_9  and  O1_10 
REMARK    6  A    between atoms: C12_18  and  O2_19 
REMARK    7  A    between atoms: C13_21  and  C14_22 
REMARK    8  A    between atoms: C14_22  and  C15_23 
REMARK    9  A    between atoms: C19_30  and  C20_31 
REMARK   10  A    between atoms: C20_31  and  C21_32 
REMARK   11  A    between atoms: C31_51  and  C32_52 
REMARK   12  A    between atoms: C32_52  and  C33_53 
ROOT
HETATM    1  N1  UNL     1      27.790  26.805  17.811  1.00  0.00    -0.337 N 
HETATM    2  C4  UNL     1      26.434  26.665  18.270  1.00  0.00     0.195 C 
HETATM    3  N3  UNL     1      26.155  25.232  18.457  1.00  0.00    -0.351 N 
ATOM      4  H3  UNL     1      25.869  24.760  17.600  1.00  0.00     0.163 HD
HETATM    5  C12 UNL     1      26.199  24.402  19.546  1.00  0.00     0.136 C 
HETATM    6  C13 UNL     1      27.245  24.047  20.529  1.00  0.00     0.159 C 
HETATM    7  N4  UNL     1      26.990  24.684  21.816  1.00  0.00    -0.347 N 
ATOM      8  H4  UNL     1      26.436  25.539  21.775  1.00  0.00     0.163 HD
HETATM    9  C18 UNL     1      27.387  24.303  23.080  1.00  0.00     0.241 C 
HETATM   10  O3  UNL     1      26.525  24.278  24.007  1.00  0.00    -0.271 OA
HETATM   11  C19 UNL     1      28.779  23.892  23.521  1.00  0.00     0.177 C 
HETATM   12  N5  UNL     1      29.363  25.020  24.254  1.00  0.00    -0.346 N 
ATOM     13  H5  UNL     1      28.941  25.296  25.141  1.00  0.00     0.163 HD
HETATM   14  C24 UNL     1      30.478  25.738  23.788  1.00  0.00     0.240 C 
HETATM   15  O4  UNL     1      31.235  26.296  24.618  1.00  0.00    -0.271 OA
HETATM   16  C25 UNL     1      30.829  25.884  22.352  1.00  0.00     0.172 C 
HETATM   17  C26 UNL     1      32.154  25.163  22.149  1.00  0.00     0.042 C 
HETATM   18  N6  UNL     1      31.073  27.285  22.132  1.00  0.00    -0.346 N 
ATOM     19  H6  UNL     1      31.940  27.658  22.518  1.00  0.00     0.163 HD
HETATM   20  C27 UNL     1      30.258  28.194  21.449  1.00  0.00     0.240 C 
HETATM   21  O5  UNL     1      30.782  29.272  21.020  1.00  0.00    -0.271 OA
HETATM   22  C28 UNL     1      28.803  28.020  21.172  1.00  0.00     0.172 C 
HETATM   23  C29 UNL     1      28.092  28.277  22.509  1.00  0.00     0.042 C 
HETATM   24  N7  UNL     1      28.357  29.024  20.241  1.00  0.00    -0.343 N 
ATOM     25  H7  UNL     1      28.518  29.985  20.542  1.00  0.00     0.163 HD
HETATM   26  C30 UNL     1      27.738  28.899  18.996  1.00  0.00     0.265 C 
HETATM   27  O6  UNL     1      26.620  29.537  18.878  1.00  0.00    -0.266 OA
HETATM   28  C31 UNL     1      28.235  28.120  17.811  1.00  0.00     0.081 C 
ENDROOT
BRANCH   2  29
HETATM   29  C5  UNL     1      25.427  27.155  17.272  1.00  0.00     0.104 C 
BRANCH  29  30
HETATM   30  C6  UNL     1      24.046  27.139  17.815  1.00  0.00     0.015 A 
HETATM   31  C7  UNL     1      22.824  27.136  17.231  1.00  0.00     0.064 A 
HETATM   32  C8  UNL     1      21.861  27.136  18.188  1.00  0.00     0.092 A 
HETATM   33  C10 UNL     1      22.480  27.140  19.395  1.00  0.00     0.039 A 
HETATM   34  C11 UNL     1      21.814  27.141  20.736  1.00  0.00     0.071 C 
HETATM   35  N2  UNL     1      23.792  27.141  19.166  1.00  0.00    -0.361 N 
ATOM     36  H2  UNL     1      24.509  27.143  19.892  1.00  0.00     0.165 HD
BRANCH  32  37
HETATM   37  O1  UNL     1      20.472  27.134  17.995  1.00  0.00    -0.354 OA
HETATM   38  C9  UNL     1      19.791  26.059  17.418  1.00  0.00     0.210 C 
ENDBRANCH  32  37
ENDBRANCH  29  30
ENDBRANCH   2  29
BRANCH   1  39
HETATM   39  C3  UNL     1      28.366  25.775  17.092  1.00  0.00     0.066 C 
BRANCH  39  40
HETATM   40  C2  UNL     1      29.604  25.091  17.540  1.00  0.00     0.040 C 
HETATM   41  C1  UNL     1      30.591  25.175  16.339  1.00  0.00     0.010 C 
ENDBRANCH  39  40
ENDBRANCH   1  39
BRANCH  28  42
HETATM   42  C32 UNL     1      29.613  28.532  17.507  1.00  0.00     0.067 C 
BRANCH  42  43
HETATM   43  C33 UNL     1      29.938  29.284  16.267  1.00  0.00    -0.017 C 
HETATM   44  C34 UNL     1      28.903  28.969  15.165  1.00  0.00     0.010 C 
HETATM   45  C35 UNL     1      31.275  28.829  15.662  1.00  0.00     0.010 C 
ENDBRANCH  42  43
ENDBRANCH  28  42
BRANCH   5  46
HETATM   46  O2  UNL     1      25.082  23.759  19.811  1.00  0.00    -0.348 OA
ATOM     47  H2  UNL     1      24.396  23.847  19.160  1.00  0.00     0.219 HD
ENDBRANCH   5  46
BRANCH   6  48
HETATM   48  C14 UNL     1      27.388  22.574  20.654  1.00  0.00     0.037 C 
BRANCH  48  49
HETATM   49  C15 UNL     1      28.602  21.921  20.119  1.00  0.00    -0.020 C 
HETATM   50  C16 UNL     1      28.706  20.462  20.458  1.00  0.00     0.009 C 
HETATM   51  C17 UNL     1      29.903  22.638  20.290  1.00  0.00     0.009 C 
ENDBRANCH  48  49
ENDBRANCH   6  48
BRANCH  11  52
HETATM   52  C20 UNL     1      28.561  22.768  24.488  1.00  0.00     0.038 C 
BRANCH  52  53
HETATM   53  C21 UNL     1      28.954  21.405  24.099  1.00  0.00    -0.020 C 
HETATM   54  C22 UNL     1      30.393  21.214  23.752  1.00  0.00     0.009 C 
HETATM   55  C23 UNL     1      28.667  20.490  25.310  1.00  0.00     0.009 C 
ENDBRANCH  52  53
ENDBRANCH  11  52
TORSDOF 12
ENDMDL
MODEL 4
REMARK VINA RESULT: -4.934471913      1.398      1.841
REMARK  12 active torsions:
REMARK  status: ('A' for Active; 'I' for Inactive)
REMARK    1  A    between atoms: C2_2  and  C3_3 
REMARK    2  A    between atoms: C3_3  and  N1_4 
REMARK    3  A    between atoms: C4_5  and  C5_6 
REMARK    4  A    between atoms: C5_6  and  C6_7 
REMARK    5  A    between atoms: C8_9  and  O1_10 
REMARK    6  A    between atoms: C12_18  and  O2_19 
REMARK    7  A    between atoms: C13_21  and  C14_22 
REMARK    8  A    between atoms: C14_22  and  C15_23 
REMARK    9  A    between atoms: C19_30  and  C20_31 
REMARK   10  A    between atoms: C20_31  and  C21_32 
REMARK   11  A    between atoms: C31_51  and  C32_52 
REMARK   12  A    between atoms: C32_52  and  C33_53 
ROOT
HETATM    1  N1  UNL     1      27.849  27.224  17.145  1.00  0.00    -0.337 N 
HETATM    2  C4  UNL     1      26.454  27.394  17.456  1.00  0.00     0.195 C 
HETATM    3  N3  UNL     1      25.912  26.092  17.875  1.00  0.00    -0.351 N 
ATOM      4  H3  UNL     1      25.624  25.503  17.093  1.00  0.00     0.163 HD
HETATM    5  C12 UNL     1      25.714  25.507  19.097  1.00  0.00     0.136 C 
HETATM    6  C13 UNL     1      26.592  25.202  20.248  1.00  0.00     0.159 C 
HETATM    7  N4  UNL     1      26.343  26.122  21.352  1.00  0.00    -0.347 N 
ATOM      8  H4  UNL     1      25.953  27.026  21.085  1.00  0.00     0.163 HD
HETATM    9  C18 UNL     1      26.555  25.951  22.704  1.00  0.00     0.241 C 
HETATM   10  O3  UNL     1      25.624  26.252  23.509  1.00  0.00    -0.271 OA
HETATM   11  C19 UNL     1      27.808  25.429  23.378  1.00  0.00     0.177 C 
HETATM   12  N5  UNL     1      28.516  26.578  23.951  1.00  0.00    -0.346 N 
ATOM     13  H5  UNL     1      28.074  27.093  24.713  1.00  0.00     0.163 HD
HETATM   14  C24 UNL     1      29.777  27.003  23.496  1.00  0.00     0.240 C 
HETATM   15  O4  UNL     1      30.545  27.595  24.291  1.00  0.00    -0.271 OA
HETATM   16  C25 UNL     1      30.272  26.794  22.110  1.00  0.00     0.172 C 
HETATM   17  C26 UNL     1      31.461  25.850  22.207  1.00  0.00     0.042 C 
HETATM   18  N6  UNL     1      30.777  28.065  21.662  1.00  0.00    -0.346 N 
ATOM     19  H6  UNL     1      31.659  28.370  22.073  1.00  0.00     0.163 HD
HETATM   20  C27 UNL     1      30.197  28.929  20.728  1.00  0.00     0.240 C 
HETATM   21  O5  UNL     1      30.939  29.801  20.170  1.00  0.00    -0.271 OA
HETATM   22  C28 UNL     1      28.765  28.931  20.315  1.00  0.00     0.172 C 
HETATM   23  C29 UNL     1      27.996  29.565  21.485  1.00  0.00     0.042 C 
HETATM   24  N7  UNL     1      28.585  29.779  19.166  1.00  0.00    -0.343 N 
ATOM     25  H7  UNL     1      28.887  30.744  19.298  1.00  0.00     0.163 HD
HETATM   26  C30 UNL     1      28.065  29.499  17.901  1.00  0.00     0.265 C 
HETATM   27  O6  UNL     1      27.091  30.265  17.532  1.00  0.00    -0.266 OA
HETATM   28  C31 UNL     1      28.518  28.426  16.952  1.00  0.00     0.081 C 
ENDROOT
BRANCH   2  29
HETATM   29  C5  UNL     1      25.641  27.820  16.271  1.00  0.00     0.104 C 
BRANCH  29  30
HETATM   30  C6  UNL     1      24.200  27.506  16.437  1.00  0.00     0.015 A 
HETATM   31  C7  UNL     1      23.242  27.083  15.580  1.00  0.00     0.064 A 
HETATM   32  C8  UNL     1      22.061  26.961  16.239  1.00  0.00     0.092 A 
HETATM   33  C10 UNL     1      22.273  27.311  17.532  1.00  0.00     0.039 A 
HETATM   34  C11 UNL     1      21.253  27.327  18.629  1.00  0.00     0.071 C 
HETATM   35  N2  UNL     1      23.560  27.637  17.647  1.00  0.00    -0.361 N 
ATOM     36  H2  UNL     1      24.007  27.942  18.512  1.00  0.00     0.165 HD
BRANCH  32  37
HETATM   37  O1  UNL     1      20.829  26.550  15.708  1.00  0.00    -0.354 OA
HETATM   38  C9  UNL     1      20.068  27.355  14.856  1.00  0.00     0.210 C 
ENDBRANCH  32  37
ENDBRANCH  29  30
ENDBRANCH   2  29
BRANCH   1  39
HETATM   39  C3  UNL     1      28.294  25.992  16.708  1.00  0.00     0.066 C 
BRANCH  39  40
HETATM   40  C2  UNL     1      29.184  25.133  17.528  1.00  0.00     0.040 C 
HETATM   41  C1  UNL     1      30.507  24.998  16.717  1.00  0.00     0.010 C 
ENDBRANCH  39  40
ENDBRANCH   1  39
BRANCH  28  42
HETATM   42  C32 UNL     1      29.968  28.546  16.744  1.00  0.00     0.067 C 
BRANCH  42  43
HETATM   43  C33 UNL     1      30.545  28.661  15.379  1.00  0.00    -0.017 C 
HETATM   44  C34 UNL     1      31.349  29.974  15.249  1.00  0.00     0.010 C 
HETATM   45  C35 UNL     1      29.449  28.791  14.310  1.00  0.00     0.010 C 
ENDBRANCH  42  43
ENDBRANCH  28  42
BRANCH   5  46
HETATM   46  O2  UNL     1      24.483  25.113  19.342  1.00  0.00    -0.348 OA
ATOM     47  H2  UNL     1      24.382  24.189  19.537  1.00  0.00     0.219 HD
ENDBRANCH   5  46
BRANCH   6  48
HETATM   48  C14 UNL     1      26.461  23.782  20.664  1.00  0.00     0.037 C 
BRANCH  48  49
HETATM   49  C15 UNL     1      26.969  22.721  19.768  1.00  0.00    -0.020 C 
HETATM   50  C16 UNL     1      25.900  21.804  19.247  1.00  0.00     0.009 C 
HETATM   51  C17 UNL     1      28.192  21.978  20.201  1.00  0.00     0.009 C 
ENDBRANCH  48  49
ENDBRANCH   6  48
BRANCH  11  52
HETATM   52  C20 UNL     1      27.312  24.575  24.506  1.00  0.00     0.038 C 
BRANCH  52  53
HETATM   53  C21 UNL     1      28.018  23.323  24.817  1.00  0.00    -0.020 C 
HETATM   54  C22 UNL     1      28.893  22.780  23.736  1.00  0.00     0.009 C 
HETATM   55  C23 UNL     1      28.936  23.610  26.025  1.00  0.00     0.009 C 
ENDBRANCH  52  53
ENDBRANCH  11  52
TORSDOF 12
ENDMDL
MODEL 5
REMARK VINA RESULT: -4.931848878      3.515      7.914
REMARK  12 active torsions:
REMARK  status: ('A' for Active; 'I' for Inactive)
REMARK    1  A    between atoms: C2_2  and  C3_3 
REMARK    2  A    between atoms: C3_3  and  N1_4 
REMARK    3  A    between atoms: C4_5  and  C5_6 
REMARK    4  A    between atoms: C5_6  and  C6_7 
REMARK    5  A    between atoms: C8_9  and  O1_10 
REMARK    6  A    between atoms: C12_18  and  O2_19 
REMARK    7  A    between atoms: C13_21  and  C14_22 
REMARK    8  A    between atoms: C14_22  and  C15_23 
REMARK    9  A    between atoms: C19_30  and  C20_31 
REMARK   10  A    between atoms: C20_31  and  C21_32 
REMARK   11  A    between atoms: C31_51  and  C32_52 
REMARK   12  A    between atoms: C32_52  and  C33_53 
ROOT
HETATM    1  N1  UNL     1      29.184  22.062  21.144  1.00  0.00    -0.337 N 
HETATM    2  C4  UNL     1      28.701  21.375  19.976  1.00  0.00     0.195 C 
HETATM    3  N3  UNL     1      27.230  21.421  19.989  1.00  0.00    -0.351 N 
ATOM      4  H3  UNL     1      26.807  20.680  20.548  1.00  0.00     0.163 HD
HETATM    5  C12 UNL     1      26.312  22.252  19.404  1.00  0.00     0.136 C 
HETATM    6  C13 UNL     1      26.084  23.713  19.426  1.00  0.00     0.159 C 
HETATM    7  N4  UNL     1      26.500  24.325  18.169  1.00  0.00    -0.347 N 
ATOM      8  H4  UNL     1      27.212  23.811  17.651  1.00  0.00     0.163 HD
HETATM    9  C18 UNL     1      26.074  25.495  17.577  1.00  0.00     0.241 C 
HETATM   10  O3  UNL     1      25.756  25.476  16.351  1.00  0.00    -0.271 OA
HETATM   11  C19 UNL     1      25.929  26.856  18.230  1.00  0.00     0.177 C 
HETATM   12  N5  UNL     1      27.067  27.677  17.803  1.00  0.00    -0.346 N 
ATOM     13  H5  UNL     1      27.141  27.930  16.818  1.00  0.00     0.163 HD
HETATM   14  C24 UNL     1      28.059  28.129  18.690  1.00  0.00     0.240 C 
HETATM   15  O4  UNL     1      28.670  29.192  18.431  1.00  0.00    -0.271 OA
HETATM   16  C25 UNL     1      28.440  27.419  19.939  1.00  0.00     0.172 C 
HETATM   17  C26 UNL     1      28.053  28.329  21.096  1.00  0.00     0.042 C 
HETATM   18  N6  UNL     1      29.876  27.328  19.935  1.00  0.00    -0.346 N 
ATOM     19  H6  UNL     1      30.383  28.195  20.115  1.00  0.00     0.163 HD
HETATM   20  C27 UNL     1      30.656  26.190  19.712  1.00  0.00     0.240 C 
HETATM   21  O5  UNL     1      31.864  26.196  20.115  1.00  0.00    -0.271 OA
HETATM   22  C28 UNL     1      30.202  24.943  19.032  1.00  0.00     0.172 C 
HETATM   23  C29 UNL     1      30.145  25.283  17.535  1.00  0.00     0.042 C 
HETATM   24  N7  UNL     1      31.183  23.904  19.204  1.00  0.00    -0.343 N 
ATOM     25  H7  UNL     1      32.116  24.139  18.865  1.00  0.00     0.163 HD
HETATM   26  C30 UNL     1      31.068  22.627  19.758  1.00  0.00     0.265 C 
HETATM   27  O6  UNL     1      31.457  21.664  18.988  1.00  0.00    -0.266 OA
HETATM   28  C31 UNL     1      30.556  22.275  21.126  1.00  0.00     0.081 C 
ENDROOT
BRANCH   2  29
HETATM   29  C5  UNL     1      29.070  19.922  19.959  1.00  0.00     0.104 C 
BRANCH  29  30
HETATM   30  C6  UNL     1      27.924  19.048  20.315  1.00  0.00     0.015 A 
HETATM   31  C7  UNL     1      27.455  18.575  21.494  1.00  0.00     0.064 A 
HETATM   32  C8  UNL     1      26.371  17.788  21.271  1.00  0.00     0.092 A 
HETATM   33  C10 UNL     1      26.150  17.761  19.933  1.00  0.00     0.039 A 
HETATM   34  C11 UNL     1      25.059  17.019  19.226  1.00  0.00     0.071 C 
HETATM   35  N2  UNL     1      27.085  18.520  19.363  1.00  0.00    -0.361 N 
ATOM     36  H2  UNL     1      27.168  18.686  18.359  1.00  0.00     0.165 HD
BRANCH  32  37
HETATM   37  O1  UNL     1      25.600  17.112  22.228  1.00  0.00    -0.354 OA
HETATM   38  C9  UNL     1      26.028  15.936  22.848  1.00  0.00     0.210 C 
ENDBRANCH  32  37
ENDBRANCH  29  30
ENDBRANCH   2  29
BRANCH   1  39
HETATM   39  C3  UNL     1      28.393  22.101  22.276  1.00  0.00     0.066 C 
BRANCH  39  40
HETATM   40  C2  UNL     1      27.841  23.369  22.815  1.00  0.00     0.040 C 
HETATM   41  C1  UNL     1      28.191  23.372  24.332  1.00  0.00     0.010 C 
ENDBRANCH  39  40
ENDBRANCH   1  39
BRANCH  28  42
HETATM   42  C32 UNL     1      31.290  23.057  22.132  1.00  0.00     0.067 C 
BRANCH  42  43
HETATM   43  C33 UNL     1      32.161  22.395  23.138  1.00  0.00    -0.017 C 
HETATM   44  C34 UNL     1      31.855  20.882  23.195  1.00  0.00     0.010 C 
HETATM   45  C35 UNL     1      31.856  22.889  24.562  1.00  0.00     0.010 C 
ENDBRANCH  42  43
ENDBRANCH  28  42
BRANCH   5  46
HETATM   46  O2  UNL     1      25.415  21.659  18.647  1.00  0.00    -0.348 OA
ATOM     47  H2  UNL     1      25.354  21.984  17.756  1.00  0.00     0.219 HD
ENDBRANCH   5  46
BRANCH   6  48
HETATM   48  C14 UNL     1      24.673  24.033  19.762  1.00  0.00     0.037 C 
BRANCH  48  49
HETATM   49  C15 UNL     1      24.331  24.401  21.153  1.00  0.00    -0.020 C 
HETATM   50  C16 UNL     1      22.859  24.352  21.449  1.00  0.00     0.009 C 
HETATM   51  C17 UNL     1      24.985  25.618  21.726  1.00  0.00     0.009 C 
ENDBRANCH  48  49
ENDBRANCH   6  48
BRANCH  11  52
HETATM   52  C20 UNL     1      24.682  27.438  17.636  1.00  0.00     0.038 C 
BRANCH  52  53
HETATM   53  C21 UNL     1      23.392  26.782  17.899  1.00  0.00    -0.020 C 
HETATM   54  C22 UNL     1      22.730  27.136  19.189  1.00  0.00     0.009 C 
HETATM   55  C23 UNL     1      22.427  27.218  16.774  1.00  0.00     0.009 C 
ENDBRANCH  52  53
ENDBRANCH  11  52
TORSDOF 12
ENDMDL
