MODEL 1
REMARK VINA RESULT: -6.562422087      0.000      0.000
REMARK  10 active torsions:
REMARK  status: ('A' for Active; 'I' for Inactive)
REMARK    1  A    between atoms: C2_2  and  C3_4 
REMARK    2  A    between atoms: C3_4  and  N1_5 
REMARK    3  A    between atoms: C3_4  and  C10_22 
REMARK       I    between atoms: N1_5  and  C4_7 
REMARK    4  A    between atoms: C4_7  and  C5_9 
REMARK    5  A    between atoms: C5_9  and  C6_10 
REMARK    6  A    between atoms: C5_9  and  N3_14 
REMARK    7  A    between atoms: C6_10  and  C7_11 
REMARK    8  A    between atoms: N3_14  and  C8_16 
REMARK    9  A    between atoms: C8_16  and  C9_17 
REMARK   10  A    between atoms: C9_17  and  N4_18 
ROOT
HETATM    1  N1  UNL     1      27.696  64.870  10.802  1.00  0.00    -0.348 N 
ATOM      2  H1  UNL     1      27.265  65.786  10.928  1.00  0.00     0.163 HD
HETATM    3  C4  UNL     1      28.976  64.762  10.218  1.00  0.00     0.241 C 
HETATM    4  O2  UNL     1      29.492  63.601  10.067  1.00  0.00    -0.271 OA
ENDROOT
BRANCH   3   5
HETATM    5  C5  UNL     1      29.769  65.917   9.765  1.00  0.00     0.177 C 
BRANCH   5   6
HETATM    6  C6  UNL     1      28.891  66.975   9.122  1.00  0.00     0.134 C 
BRANCH   6   7
HETATM    7  C7  UNL     1      28.343  66.497   7.852  1.00  0.00     0.233 C 
HETATM    8  N2  UNL     1      29.138  66.484   6.678  1.00  0.00    -0.062 NA
HETATM    9  O3  UNL     1      27.162  66.089   7.773  1.00  0.00    -0.277 OA
ENDBRANCH   6   7
ENDBRANCH   5   6
BRANCH   5  10
HETATM   10  N3  UNL     1      30.916  65.561   9.005  1.00  0.00    -0.407 N 
ATOM     11  H3  UNL     1      30.906  64.765   8.368  1.00  0.00     0.154 HD
BRANCH  10  12
HETATM   12  C8  UNL     1      32.082  66.367   9.171  1.00  0.00     0.142 C 
BRANCH  12  13
HETATM   13  C9  UNL     1      32.407  67.146   7.901  1.00  0.00     0.248 C 
BRANCH  13  14
HETATM   14  N4  UNL     1      32.408  66.219   6.801  1.00  0.00    -0.078 N 
ATOM     15  H43 UNL     1      33.152  65.524   6.871  1.00  0.00     0.274 HD
ATOM     16  H42 UNL     1      31.617  65.575   6.827  1.00  0.00     0.274 HD
ATOM     17  H41 UNL     1      32.450  66.758   5.937  1.00  0.00     0.274 HD
ENDBRANCH  13  14
ENDBRANCH  12  13
ENDBRANCH  10  12
ENDBRANCH   5  10
ENDBRANCH   3   5
BRANCH   1  18
HETATM   18  C3  UNL     1      26.998  63.671  11.220  1.00  0.00     0.158 C 
BRANCH  18  19
HETATM   19  C2  UNL     1      25.919  63.380  10.276  1.00  0.00     0.145 C 
HETATM   20  C1  UNL     1      24.506  63.403  10.616  1.00  0.00     0.093 C 
HETATM   21  O1  UNL     1      26.216  63.090   9.113  1.00  0.00    -0.296 OA
ENDBRANCH  18  19
BRANCH  18  22
HETATM   22  C10 UNL     1      26.442  63.837  12.613  1.00  0.00     0.016 C 
HETATM   23  C11 UNL     1      26.449  65.319  13.010  1.00  0.00     0.007 C 
HETATM   24  C12 UNL     1      26.117  65.157  14.501  1.00  0.00     0.000 C 
HETATM   25  C13 UNL     1      27.159  64.148  14.898  1.00  0.00     0.000 C 
HETATM   26  C14 UNL     1      27.409  63.298  13.643  1.00  0.00     0.007 C 
ENDBRANCH  18  22
ENDBRANCH   1  18
TORSDOF 10
ENDMDL
MODEL 2
REMARK VINA RESULT: -6.418907089      2.510      5.974
REMARK  10 active torsions:
REMARK  status: ('A' for Active; 'I' for Inactive)
REMARK    1  A    between atoms: C2_2  and  C3_4 
REMARK    2  A    between atoms: C3_4  and  N1_5 
REMARK    3  A    between atoms: C3_4  and  C10_22 
REMARK       I    between atoms: N1_5  and  C4_7 
REMARK    4  A    between atoms: C4_7  and  C5_9 
REMARK    5  A    between atoms: C5_9  and  C6_10 
REMARK    6  A    between atoms: C5_9  and  N3_14 
REMARK    7  A    between atoms: C6_10  and  C7_11 
REMARK    8  A    between atoms: N3_14  and  C8_16 
REMARK    9  A    between atoms: C8_16  and  C9_17 
REMARK   10  A    between atoms: C9_17  and  N4_18 
ROOT
HETATM    1  N1  UNL     1      28.597  65.515   9.945  1.00  0.00    -0.348 N 
ATOM      2  H1  UNL     1      28.061  65.774   9.115  1.00  0.00     0.163 HD
HETATM    3  C4  UNL     1      28.287  64.333  10.651  1.00  0.00     0.241 C 
HETATM    4  O2  UNL     1      28.971  64.035  11.690  1.00  0.00    -0.271 OA
ENDROOT
BRANCH   3   5
HETATM    5  C5  UNL     1      27.210  63.407  10.263  1.00  0.00     0.177 C 
BRANCH   5   6
HETATM    6  C6  UNL     1      25.841  64.030  10.467  1.00  0.00     0.134 C 
BRANCH   6   7
HETATM    7  C7  UNL     1      25.237  64.395   9.186  1.00  0.00     0.233 C 
HETATM    8  N2  UNL     1      23.831  64.537   9.060  1.00  0.00    -0.062 NA
HETATM    9  O3  UNL     1      25.946  64.590   8.172  1.00  0.00    -0.277 OA
ENDBRANCH   6   7
ENDBRANCH   5   6
BRANCH   5  10
HETATM   10  N3  UNL     1      27.351  62.104  10.811  1.00  0.00    -0.407 N 
ATOM     11  H3  UNL     1      27.349  61.947  11.819  1.00  0.00     0.154 HD
BRANCH  10  12
HETATM   12  C8  UNL     1      27.496  61.022   9.891  1.00  0.00     0.142 C 
BRANCH  12  13
HETATM   13  C9  UNL     1      26.209  60.780   9.109  1.00  0.00     0.248 C 
BRANCH  13  14
HETATM   14  N4  UNL     1      26.431  59.667   8.226  1.00  0.00    -0.078 N 
ATOM     15  H43 UNL     1      27.314  59.736   7.718  1.00  0.00     0.274 HD
ATOM     16  H42 UNL     1      26.629  58.800   8.725  1.00  0.00     0.274 HD
ATOM     17  H41 UNL     1      25.624  59.592   7.607  1.00  0.00     0.274 HD
ENDBRANCH  13  14
ENDBRANCH  12  13
ENDBRANCH  10  12
ENDBRANCH   5  10
ENDBRANCH   3   5
BRANCH   1  18
HETATM   18  C3  UNL     1      29.681  66.359  10.405  1.00  0.00     0.158 C 
BRANCH  18  19
HETATM   19  C2  UNL     1      29.166  67.334  11.367  1.00  0.00     0.145 C 
HETATM   20  C1  UNL     1      27.881  68.002  11.247  1.00  0.00     0.093 C 
HETATM   21  O1  UNL     1      29.862  67.618  12.346  1.00  0.00    -0.296 OA
ENDBRANCH  18  19
BRANCH  18  22
HETATM   22  C10 UNL     1      30.335  67.067   9.244  1.00  0.00     0.016 C 
HETATM   23  C11 UNL     1      29.909  66.416   7.922  1.00  0.00     0.007 C 
HETATM   24  C12 UNL     1      30.903  67.123   6.989  1.00  0.00     0.000 C 
HETATM   25  C13 UNL     1      32.191  66.849   7.715  1.00  0.00     0.000 C 
HETATM   26  C14 UNL     1      31.817  66.769   9.203  1.00  0.00     0.007 C 
ENDBRANCH  18  22
ENDBRANCH   1  18
TORSDOF 10
ENDMDL
MODEL 3
REMARK VINA RESULT: -6.384745405      1.263      1.628
REMARK  10 active torsions:
REMARK  status: ('A' for Active; 'I' for Inactive)
REMARK    1  A    between atoms: C2_2  and  C3_4 
REMARK    2  A    between atoms: C3_4  and  N1_5 
REMARK    3  A    between atoms: C3_4  and  C10_22 
REMARK       I    between atoms: N1_5  and  C4_7 
REMARK    4  A    between atoms: C4_7  and  C5_9 
REMARK    5  A    between atoms: C5_9  and  C6_10 
REMARK    6  A    between atoms: C5_9  and  N3_14 
REMARK    7  A    between atoms: C6_10  and  C7_11 
REMARK    8  A    between atoms: N3_14  and  C8_16 
REMARK    9  A    between atoms: C8_16  and  C9_17 
REMARK   10  A    between atoms: C9_17  and  N4_18 
ROOT
HETATM    1  N1  UNL     1      27.665  64.386  10.180  1.00  0.00    -0.348 N 
ATOM      2  H1  UNL     1      27.259  64.794   9.338  1.00  0.00     0.163 HD
HETATM    3  C4  UNL     1      28.915  64.836  10.656  1.00  0.00     0.241 C 
HETATM    4  O2  UNL     1      29.404  64.304  11.712  1.00  0.00    -0.271 OA
ENDROOT
BRANCH   3   5
HETATM    5  C5  UNL     1      29.705  65.894  10.006  1.00  0.00     0.177 C 
BRANCH   5   6
HETATM    6  C6  UNL     1      28.813  66.983   9.438  1.00  0.00     0.134 C 
BRANCH   6   7
HETATM    7  C7  UNL     1      28.667  66.836   7.990  1.00  0.00     0.233 C 
HETATM    8  N2  UNL     1      29.482  67.581   7.099  1.00  0.00    -0.062 NA
HETATM    9  O3  UNL     1      27.822  66.050   7.504  1.00  0.00    -0.277 OA
ENDBRANCH   6   7
ENDBRANCH   5   6
BRANCH   5  10
HETATM   10  N3  UNL     1      30.684  65.403   9.100  1.00  0.00    -0.407 N 
ATOM     11  H3  UNL     1      30.434  64.783   8.331  1.00  0.00     0.154 HD
BRANCH  10  12
HETATM   12  C8  UNL     1      32.034  65.817   9.314  1.00  0.00     0.142 C 
BRANCH  12  13
HETATM   13  C9  UNL     1      32.444  66.909   8.331  1.00  0.00     0.248 C 
BRANCH  13  14
HETATM   14  N4  UNL     1      32.512  66.321   7.021  1.00  0.00    -0.078 N 
ATOM     15  H43 UNL     1      33.335  66.619   6.496  1.00  0.00     0.274 HD
ATOM     16  H42 UNL     1      32.722  65.322   7.046  1.00  0.00     0.274 HD
ATOM     17  H41 UNL     1      31.639  66.528   6.538  1.00  0.00     0.274 HD
ENDBRANCH  13  14
ENDBRANCH  12  13
ENDBRANCH  10  12
ENDBRANCH   5  10
ENDBRANCH   3   5
BRANCH   1  18
HETATM   18  C3  UNL     1      26.962  63.340  10.895  1.00  0.00     0.158 C 
BRANCH  18  19
HETATM   19  C2  UNL     1      26.775  62.187  10.015  1.00  0.00     0.145 C 
HETATM   20  C1  UNL     1      25.480  61.694   9.576  1.00  0.00     0.093 C 
HETATM   21  O1  UNL     1      27.775  61.582   9.616  1.00  0.00    -0.296 OA
ENDBRANCH  18  19
BRANCH  18  22
HETATM   22  C10 UNL     1      25.628  63.839  11.392  1.00  0.00     0.016 C 
HETATM   23  C11 UNL     1      25.322  65.217  10.791  1.00  0.00     0.007 C 
HETATM   24  C12 UNL     1      24.106  65.578  11.655  1.00  0.00     0.000 C 
HETATM   25  C13 UNL     1      24.671  65.338  13.027  1.00  0.00     0.000 C 
HETATM   26  C14 UNL     1      25.709  64.217  12.854  1.00  0.00     0.007 C 
ENDBRANCH  18  22
ENDBRANCH   1  18
TORSDOF 10
ENDMDL
MODEL 4
REMARK VINA RESULT: -6.344766081      2.687      6.146
REMARK  10 active torsions:
REMARK  status: ('A' for Active; 'I' for Inactive)
REMARK    1  A    between atoms: C2_2  and  C3_4 
REMARK    2  A    between atoms: C3_4  and  N1_5 
REMARK    3  A    between atoms: C3_4  and  C10_22 
REMARK       I    between atoms: N1_5  and  C4_7 
REMARK    4  A    between atoms: C4_7  and  C5_9 
REMARK    5  A    between atoms: C5_9  and  C6_10 
REMARK    6  A    between atoms: C5_9  and  N3_14 
REMARK    7  A    between atoms: C6_10  and  C7_11 
REMARK    8  A    between atoms: N3_14  and  C8_16 
REMARK    9  A    between atoms: C8_16  and  C9_17 
REMARK   10  A    between atoms: C9_17  and  N4_18 
ROOT
HETATM    1  N1  UNL     1      28.612  65.578  10.172  1.00  0.00    -0.348 N 
ATOM      2  H1  UNL     1      28.047  65.818   9.357  1.00  0.00     0.163 HD
HETATM    3  C4  UNL     1      28.333  64.406  10.909  1.00  0.00     0.241 C 
HETATM    4  O2  UNL     1      29.054  64.130  11.930  1.00  0.00    -0.271 OA
ENDROOT
BRANCH   3   5
HETATM    5  C5  UNL     1      27.250  63.467  10.573  1.00  0.00     0.177 C 
BRANCH   5   6
HETATM    6  C6  UNL     1      27.775  62.054  10.396  1.00  0.00     0.134 C 
BRANCH   6   7
HETATM    7  C7  UNL     1      26.850  61.250   9.599  1.00  0.00     0.233 C 
HETATM    8  N2  UNL     1      27.326  60.426   8.546  1.00  0.00    -0.062 NA
HETATM    9  O3  UNL     1      25.619  61.268   9.827  1.00  0.00    -0.277 OA
ENDBRANCH   6   7
ENDBRANCH   5   6
BRANCH   5  10
HETATM   10  N3  UNL     1      26.407  63.918   9.521  1.00  0.00    -0.407 N 
ATOM     11  H3  UNL     1      26.620  63.715   8.545  1.00  0.00     0.154 HD
BRANCH  10  12
HETATM   12  C8  UNL     1      25.250  64.668   9.891  1.00  0.00     0.142 C 
BRANCH  12  13
HETATM   13  C9  UNL     1      24.262  64.774   8.733  1.00  0.00     0.248 C 
BRANCH  13  14
HETATM   14  N4  UNL     1      23.901  63.440   8.337  1.00  0.00    -0.078 N 
ATOM     15  H43 UNL     1      24.702  62.810   8.289  1.00  0.00     0.274 HD
ATOM     16  H42 UNL     1      23.379  62.941   9.058  1.00  0.00     0.274 HD
ATOM     17  H41 UNL     1      23.394  63.502   7.454  1.00  0.00     0.274 HD
ENDBRANCH  13  14
ENDBRANCH  12  13
ENDBRANCH  10  12
ENDBRANCH   5  10
ENDBRANCH   3   5
BRANCH   1  18
HETATM   18  C3  UNL     1      29.705  66.436  10.582  1.00  0.00     0.158 C 
BRANCH  18  19
HETATM   19  C2  UNL     1      29.210  67.442  11.521  1.00  0.00     0.145 C 
HETATM   20  C1  UNL     1      27.954  68.157  11.367  1.00  0.00     0.093 C 
HETATM   21  O1  UNL     1      29.898  67.713  12.510  1.00  0.00    -0.296 OA
ENDBRANCH  18  19
BRANCH  18  22
HETATM   22  C10 UNL     1      30.335  67.104   9.385  1.00  0.00     0.016 C 
HETATM   23  C11 UNL     1      29.837  66.446   8.092  1.00  0.00     0.007 C 
HETATM   24  C12 UNL     1      30.815  67.106   7.109  1.00  0.00     0.000 C 
HETATM   25  C13 UNL     1      32.122  66.802   7.788  1.00  0.00     0.000 C 
HETATM   26  C14 UNL     1      31.804  66.758   9.291  1.00  0.00     0.007 C 
ENDBRANCH  18  22
ENDBRANCH   1  18
TORSDOF 10
ENDMDL
MODEL 5
REMARK VINA RESULT: -6.326881419      2.297      6.218
REMARK  10 active torsions:
REMARK  status: ('A' for Active; 'I' for Inactive)
REMARK    1  A    between atoms: C2_2  and  C3_4 
REMARK    2  A    between atoms: C3_4  and  N1_5 
REMARK    3  A    between atoms: C3_4  and  C10_22 
REMARK       I    between atoms: N1_5  and  C4_7 
REMARK    4  A    between atoms: C4_7  and  C5_9 
REMARK    5  A    between atoms: C5_9  and  C6_10 
REMARK    6  A    between atoms: C5_9  and  N3_14 
REMARK    7  A    between atoms: C6_10  and  C7_11 
REMARK    8  A    between atoms: N3_14  and  C8_16 
REMARK    9  A    between atoms: C8_16  and  C9_17 
REMARK   10  A    between atoms: C9_17  and  N4_18 
ROOT
HETATM    1  N1  UNL     1      28.632  65.338  10.542  1.00  0.00    -0.348 N 
ATOM      2  H1  UNL     1      28.018  65.279   9.730  1.00  0.00     0.163 HD
HETATM    3  C4  UNL     1      28.607  64.327  11.528  1.00  0.00     0.241 C 
HETATM    4  O2  UNL     1      29.385  64.429  12.539  1.00  0.00    -0.271 OA
ENDROOT
BRANCH   3   5
HETATM    5  C5  UNL     1      27.732  63.146  11.465  1.00  0.00     0.177 C 
BRANCH   5   6
HETATM    6  C6  UNL     1      26.815  63.198  10.257  1.00  0.00     0.134 C 
BRANCH   6   7
HETATM    7  C7  UNL     1      26.522  61.852   9.765  1.00  0.00     0.233 C 
HETATM    8  N2  UNL     1      27.299  60.741  10.184  1.00  0.00    -0.062 NA
HETATM    9  O3  UNL     1      25.581  61.649   8.965  1.00  0.00    -0.277 OA
ENDBRANCH   6   7
ENDBRANCH   5   6
BRANCH   5  10
HETATM   10  N3  UNL     1      27.074  62.856  12.691  1.00  0.00    -0.407 N 
ATOM     11  H3  UNL     1      27.359  62.069  13.274  1.00  0.00     0.154 HD
BRANCH  10  12
HETATM   12  C8  UNL     1      25.997  63.712  13.071  1.00  0.00     0.142 C 
BRANCH  12  13
HETATM   13  C9  UNL     1      26.223  64.310  14.456  1.00  0.00     0.248 C 
BRANCH  13  14
HETATM   14  N4  UNL     1      27.352  63.643  15.046  1.00  0.00    -0.078 N 
ATOM     15  H43 UNL     1      27.094  62.785  15.534  1.00  0.00     0.274 HD
ATOM     16  H42 UNL     1      27.971  63.224  14.352  1.00  0.00     0.274 HD
ATOM     17  H41 UNL     1      27.831  64.312  15.649  1.00  0.00     0.274 HD
ENDBRANCH  13  14
ENDBRANCH  12  13
ENDBRANCH  10  12
ENDBRANCH   5  10
ENDBRANCH   3   5
BRANCH   1  18
HETATM   18  C3  UNL     1      29.536  66.461  10.693  1.00  0.00     0.158 C 
BRANCH  18  19
HETATM   19  C2  UNL     1      28.957  67.433  11.621  1.00  0.00     0.145 C 
HETATM   20  C1  UNL     1      27.634  68.016  11.473  1.00  0.00     0.093 C 
HETATM   21  O1  UNL     1      29.628  67.791  12.593  1.00  0.00    -0.296 OA
ENDBRANCH  18  19
BRANCH  18  22
HETATM   22  C10 UNL     1      29.807  67.110   9.359  1.00  0.00     0.016 C 
HETATM   23  C11 UNL     1      28.938  66.464   8.272  1.00  0.00     0.007 C 
HETATM   24  C12 UNL     1      29.604  67.096   7.042  1.00  0.00     0.000 C 
HETATM   25  C13 UNL     1      31.044  66.759   7.314  1.00  0.00     0.000 C 
HETATM   26  C14 UNL     1      31.176  66.726   8.845  1.00  0.00     0.007 C 
ENDBRANCH  18  22
ENDBRANCH   1  18
TORSDOF 10
ENDMDL
