MODEL 1
REMARK VINA RESULT: -7.216234209      0.000      0.000
REMARK  4 active torsions:
REMARK  status: ('A' for Active; 'I' for Inactive)
REMARK       I    between atoms: C1_4  and  N3_6 
REMARK    1  A    between atoms: N3_6  and  O1_8 
REMARK    2  A    between atoms: O1_8  and  C2_9 
REMARK    3  A    between atoms: C2_9  and  C3_11 
REMARK    4  A    between atoms: C5_18  and  N6_19 
ROOT
HETATM    1  C3  UNL     1      29.253  65.709   9.235  1.00  0.00     0.202 A 
HETATM    2  N4  UNL     1      29.541  66.304   8.067  1.00  0.00    -0.288 N 
ATOM      3  H4  UNL     1      28.788  66.683   7.493  1.00  0.00     0.172 HD
HETATM    4  C4  UNL     1      30.817  66.404   7.647  1.00  0.00     0.340 A 
HETATM    5  O3  UNL     1      31.092  66.969   6.537  1.00  0.00    -0.246 OA
HETATM    6  N5  UNL     1      31.819  65.912   8.387  1.00  0.00    -0.141 N 
ATOM      7  H5  UNL     1      32.780  65.995   8.057  1.00  0.00     0.189 HD
HETATM    8  C5  UNL     1      31.565  65.302   9.575  1.00  0.00     0.681 A 
HETATM    9  N7  UNL     1      30.294  65.230   9.943  1.00  0.00    -0.170 N 
ATOM     10  H7  UNL     1      30.087  64.776  10.833  1.00  0.00     0.186 HD
ENDROOT
BRANCH   1  11
HETATM   11  C2  UNL     1      27.892  65.575   9.735  1.00  0.00     0.350 C 
HETATM   12  O2  UNL     1      27.386  66.533  10.369  1.00  0.00    -0.254 OA
BRANCH  11  13
HETATM   13  O1  UNL     1      27.124  64.441   9.544  1.00  0.00    -0.190 OA
BRANCH  13  14
HETATM   14  N3  UNL     1      26.542  63.730  10.556  1.00  0.00    -0.229 N 
HETATM   15  C1  UNL     1      27.080  62.521  11.021  1.00  0.00     0.206 C 
HETATM   16  N1  UNL     1      27.598  62.397  12.217  1.00  0.00    -0.372 N 
HETATM   17  N2  UNL     1      27.107  61.340  10.235  1.00  0.00    -0.062 NA
ATOM     18  H12 UNL     1      27.990  61.518  12.555  1.00  0.00     0.158 HD
ATOM     19  H11 UNL     1      27.579  63.246  12.781  1.00  0.00     0.158 HD
ATOM     20  H3  UNL     1      25.690  64.089  10.987  1.00  0.00     0.197 HD
ENDBRANCH  13  14
ENDBRANCH  11  13
ENDBRANCH   1  11
BRANCH   8  21
HETATM   21  N6  UNL     1      32.512  64.823  10.301  1.00  0.00    -0.234 N 
ATOM     22  H62 UNL     1      32.967  65.376  11.028  1.00  0.00     0.174 HD
ATOM     23  H61 UNL     1      32.847  63.867  10.178  1.00  0.00     0.174 HD
ENDBRANCH   8  21
TORSDOF 4
ENDMDL
MODEL 2
REMARK VINA RESULT: -7.155121685      1.868      2.186
REMARK  4 active torsions:
REMARK  status: ('A' for Active; 'I' for Inactive)
REMARK       I    between atoms: C1_4  and  N3_6 
REMARK    1  A    between atoms: N3_6  and  O1_8 
REMARK    2  A    between atoms: O1_8  and  C2_9 
REMARK    3  A    between atoms: C2_9  and  C3_11 
REMARK    4  A    between atoms: C5_18  and  N6_19 
ROOT
HETATM    1  C3  UNL     1      29.036  65.720   9.090  1.00  0.00     0.202 A 
HETATM    2  N4  UNL     1      29.384  66.341   7.952  1.00  0.00    -0.288 N 
ATOM      3  H4  UNL     1      28.662  66.742   7.353  1.00  0.00     0.172 HD
HETATM    4  C4  UNL     1      30.680  66.440   7.596  1.00  0.00     0.340 A 
HETATM    5  O3  UNL     1      31.011  67.031   6.515  1.00  0.00    -0.246 OA
HETATM    6  N5  UNL     1      31.641  65.919   8.370  1.00  0.00    -0.141 N 
ATOM      7  H5  UNL     1      32.617  66.002   8.087  1.00  0.00     0.189 HD
HETATM    8  C5  UNL     1      31.326  65.282   9.527  1.00  0.00     0.681 A 
HETATM    9  N7  UNL     1      30.038  65.213   9.833  1.00  0.00    -0.170 N 
ATOM     10  H7  UNL     1      29.786  64.739  10.701  1.00  0.00     0.186 HD
ENDROOT
BRANCH   1  11
HETATM   11  C2  UNL     1      27.652  65.586   9.521  1.00  0.00     0.350 C 
HETATM   12  O2  UNL     1      27.183  66.437  10.315  1.00  0.00    -0.254 OA
BRANCH  11  13
HETATM   13  O1  UNL     1      26.822  64.564   9.097  1.00  0.00    -0.190 OA
BRANCH  13  14
HETATM   14  N3  UNL     1      25.795  64.728   8.210  1.00  0.00    -0.229 N 
HETATM   15  C1  UNL     1      24.575  64.051   8.352  1.00  0.00     0.206 C 
HETATM   16  N1  UNL     1      23.457  64.669   8.637  1.00  0.00    -0.372 N 
HETATM   17  N2  UNL     1      24.455  62.645   8.198  1.00  0.00    -0.062 NA
ATOM     18  H12 UNL     1      22.570  64.177   8.740  1.00  0.00     0.158 HD
ATOM     19  H11 UNL     1      23.544  65.679   8.747  1.00  0.00     0.158 HD
ATOM     20  H3  UNL     1      25.919  65.362   7.421  1.00  0.00     0.197 HD
ENDBRANCH  13  14
ENDBRANCH  11  13
ENDBRANCH   1  11
BRANCH   8  21
HETATM   21  N6  UNL     1      32.233  64.775  10.285  1.00  0.00    -0.234 N 
ATOM     22  H62 UNL     1      33.075  65.293  10.539  1.00  0.00     0.174 HD
ATOM     23  H61 UNL     1      32.147  63.832  10.663  1.00  0.00     0.174 HD
ENDBRANCH   8  21
TORSDOF 4
ENDMDL
MODEL 3
REMARK VINA RESULT: -7.028244635      1.161      1.311
REMARK  4 active torsions:
REMARK  status: ('A' for Active; 'I' for Inactive)
REMARK       I    between atoms: C1_4  and  N3_6 
REMARK    1  A    between atoms: N3_6  and  O1_8 
REMARK    2  A    between atoms: O1_8  and  C2_9 
REMARK    3  A    between atoms: C2_9  and  C3_11 
REMARK    4  A    between atoms: C5_18  and  N6_19 
ROOT
HETATM    1  C3  UNL     1      29.287  65.487   9.118  1.00  0.00     0.202 A 
HETATM    2  N4  UNL     1      29.573  66.151   7.987  1.00  0.00    -0.288 N 
ATOM      3  H4  UNL     1      28.816  66.480   7.388  1.00  0.00     0.172 HD
HETATM    4  C4  UNL     1      30.853  66.385   7.637  1.00  0.00     0.340 A 
HETATM    5  O3  UNL     1      31.125  67.016   6.562  1.00  0.00    -0.246 OA
HETATM    6  N5  UNL     1      31.860  65.960   8.410  1.00  0.00    -0.141 N 
ATOM      7  H5  UNL     1      32.823  66.145   8.133  1.00  0.00     0.189 HD
HETATM    8  C5  UNL     1      31.608  65.284   9.561  1.00  0.00     0.681 A 
HETATM    9  N7  UNL     1      30.333  65.080   9.862  1.00  0.00    -0.170 N 
ATOM     10  H7  UNL     1      30.128  64.575  10.724  1.00  0.00     0.186 HD
ENDROOT
BRANCH   1  11
HETATM   11  C2  UNL     1      27.923  65.209   9.542  1.00  0.00     0.350 C 
HETATM   12  O2  UNL     1      26.990  65.898   9.063  1.00  0.00    -0.254 OA
BRANCH  11  13
HETATM   13  O1  UNL     1      27.600  64.218  10.452  1.00  0.00    -0.190 OA
BRANCH  13  14
HETATM   14  N3  UNL     1      27.582  64.397  11.807  1.00  0.00    -0.229 N 
HETATM   15  C1  UNL     1      28.189  63.488  12.685  1.00  0.00     0.206 C 
HETATM   16  N1  UNL     1      29.245  63.796  13.395  1.00  0.00    -0.372 N 
HETATM   17  N2  UNL     1      27.711  62.166  12.875  1.00  0.00    -0.062 NA
ATOM     18  H12 UNL     1      29.688  63.135  14.033  1.00  0.00     0.158 HD
ATOM     19  H11 UNL     1      29.589  64.746  13.259  1.00  0.00     0.158 HD
ATOM     20  H3  UNL     1      27.111  65.216  12.192  1.00  0.00     0.197 HD
ENDBRANCH  13  14
ENDBRANCH  11  13
ENDBRANCH   1  11
BRANCH   8  21
HETATM   21  N6  UNL     1      32.561  64.867  10.319  1.00  0.00    -0.234 N 
ATOM     22  H62 UNL     1      33.533  65.134  10.160  1.00  0.00     0.174 HD
ATOM     23  H61 UNL     1      32.381  64.249  11.111  1.00  0.00     0.174 HD
ENDBRANCH   8  21
TORSDOF 4
ENDMDL
MODEL 4
REMARK VINA RESULT: -6.994692752      1.683      2.029
REMARK  4 active torsions:
REMARK  status: ('A' for Active; 'I' for Inactive)
REMARK       I    between atoms: C1_4  and  N3_6 
REMARK    1  A    between atoms: N3_6  and  O1_8 
REMARK    2  A    between atoms: O1_8  and  C2_9 
REMARK    3  A    between atoms: C2_9  and  C3_11 
REMARK    4  A    between atoms: C5_18  and  N6_19 
ROOT
HETATM    1  C3  UNL     1      29.888  65.955   9.536  1.00  0.00     0.202 A 
HETATM    2  N4  UNL     1      28.966  66.103   8.572  1.00  0.00    -0.288 N 
ATOM      3  H4  UNL     1      27.975  66.042   8.805  1.00  0.00     0.172 HD
HETATM    4  C4  UNL     1      29.340  66.332   7.298  1.00  0.00     0.340 A 
HETATM    5  O3  UNL     1      28.463  66.473   6.381  1.00  0.00    -0.246 OA
HETATM    6  N5  UNL     1      30.636  66.415   6.973  1.00  0.00    -0.141 N 
ATOM      7  H5  UNL     1      30.904  66.589   6.004  1.00  0.00     0.189 HD
HETATM    8  C5  UNL     1      31.596  66.269   7.922  1.00  0.00     0.681 A 
HETATM    9  N7  UNL     1      31.177  66.046   9.159  1.00  0.00    -0.170 N 
ATOM     10  H7  UNL     1      31.887  65.936   9.884  1.00  0.00     0.186 HD
ENDROOT
BRANCH   1  11
HETATM   11  C2  UNL     1      29.537  65.707  10.927  1.00  0.00     0.350 C 
HETATM   12  O2  UNL     1      29.281  66.686  11.668  1.00  0.00    -0.254 OA
BRANCH  11  13
HETATM   13  O1  UNL     1      29.471  64.439  11.477  1.00  0.00    -0.190 OA
BRANCH  13  14
HETATM   14  N3  UNL     1      28.309  63.826  11.854  1.00  0.00    -0.229 N 
HETATM   15  C1  UNL     1      27.503  63.134  10.938  1.00  0.00     0.206 C 
HETATM   16  N1  UNL     1      27.345  61.835  10.982  1.00  0.00    -0.372 N 
HETATM   17  N2  UNL     1      26.796  63.784   9.894  1.00  0.00    -0.062 NA
ATOM     18  H12 UNL     1      26.759  61.332  10.316  1.00  0.00     0.158 HD
ATOM     19  H11 UNL     1      27.853  61.368  11.732  1.00  0.00     0.158 HD
ATOM     20  H3  UNL     1      28.020  63.872  12.830  1.00  0.00     0.197 HD
ENDBRANCH  13  14
ENDBRANCH  11  13
ENDBRANCH   1  11
BRANCH   8  21
HETATM   21  N6  UNL     1      32.847  66.345   7.631  1.00  0.00    -0.234 N 
ATOM     22  H62 UNL     1      33.380  67.206   7.758  1.00  0.00     0.174 HD
ATOM     23  H61 UNL     1      33.358  65.544   7.259  1.00  0.00     0.174 HD
ENDBRANCH   8  21
TORSDOF 4
ENDMDL
MODEL 5
REMARK VINA RESULT: -6.969935571      1.385      2.083
REMARK  4 active torsions:
REMARK  status: ('A' for Active; 'I' for Inactive)
REMARK       I    between atoms: C1_4  and  N3_6 
REMARK    1  A    between atoms: N3_6  and  O1_8 
REMARK    2  A    between atoms: O1_8  and  C2_9 
REMARK    3  A    between atoms: C2_9  and  C3_11 
REMARK    4  A    between atoms: C5_18  and  N6_19 
ROOT
HETATM    1  C3  UNL     1      29.680  65.663   9.347  1.00  0.00     0.202 A 
HETATM    2  N4  UNL     1      30.680  65.109  10.049  1.00  0.00    -0.288 N 
ATOM      3  H4  UNL     1      30.478  64.634  10.929  1.00  0.00     0.172 HD
HETATM    4  C4  UNL     1      31.949  65.175   9.600  1.00  0.00     0.340 A 
HETATM    5  O3  UNL     1      32.900  64.647  10.268  1.00  0.00    -0.246 OA
HETATM    6  N5  UNL     1      32.233  65.795   8.448  1.00  0.00    -0.141 N 
ATOM      7  H5  UNL     1      33.198  65.836   8.121  1.00  0.00     0.189 HD
HETATM    8  C5  UNL     1      31.246  66.368   7.712  1.00  0.00     0.681 A 
HETATM    9  N7  UNL     1      30.016  66.275   8.195  1.00  0.00    -0.170 N 
ATOM     10  H7  UNL     1      29.264  66.700   7.652  1.00  0.00     0.186 HD
ENDROOT
BRANCH   1  11
HETATM   11  C2  UNL     1      28.293  65.620   9.786  1.00  0.00     0.350 C 
HETATM   12  O2  UNL     1      27.812  66.623  10.367  1.00  0.00    -0.254 OA
BRANCH  11  13
HETATM   13  O1  UNL     1      27.472  64.523   9.594  1.00  0.00    -0.190 OA
BRANCH  13  14
HETATM   14  N3  UNL     1      26.795  63.886  10.596  1.00  0.00    -0.229 N 
HETATM   15  C1  UNL     1      27.180  62.623  11.067  1.00  0.00     0.206 C 
HETATM   16  N1  UNL     1      27.662  62.439  12.270  1.00  0.00    -0.372 N 
HETATM   17  N2  UNL     1      27.078  61.447  10.281  1.00  0.00    -0.062 NA
ATOM     18  H12 UNL     1      27.943  61.520  12.613  1.00  0.00     0.158 HD
ATOM     19  H11 UNL     1      27.735  63.284  12.835  1.00  0.00     0.158 HD
ATOM     20  H3  UNL     1      25.985  64.344  11.014  1.00  0.00     0.197 HD
ENDBRANCH  13  14
ENDBRANCH  11  13
ENDBRANCH   1  11
BRANCH   8  21
HETATM   21  N6  UNL     1      31.498  66.969   6.602  1.00  0.00    -0.234 N 
ATOM     22  H62 UNL     1      30.970  66.772   5.750  1.00  0.00     0.174 HD
ATOM     23  H61 UNL     1      32.237  67.667   6.529  1.00  0.00     0.174 HD
ENDBRANCH   8  21
TORSDOF 4
ENDMDL
