MODEL 1
REMARK VINA RESULT: -5.946380445      0.000      0.000
REMARK  6 active torsions:
REMARK  status: ('A' for Active; 'I' for Inactive)
REMARK    1  A    between atoms: N1_2  and  C3_4 
REMARK    2  A    between atoms: C3_4  and  C4_5 
REMARK       I    between atoms: C4_5  and  N2_7 
REMARK    3  A    between atoms: N2_7  and  N3_9 
REMARK    4  A    between atoms: N3_9  and  C5_11 
REMARK    5  A    between atoms: C5_11  and  N4_13 
REMARK    6  A    between atoms: N4_13  and  N5_15 
ROOT
HETATM    1  C5  UNL     1      37.118  -2.739  14.201  1.00  0.00     0.205 C 
HETATM    2  S1  UNL     1      38.222  -3.928  14.279  1.00  0.00    -0.038 SA
ENDROOT
BRANCH   1   3
HETATM    3  N3  UNL     1      35.803  -3.001  13.804  1.00  0.00    -0.272 N 
ATOM      4  H3  UNL     1      35.220  -2.209  13.531  1.00  0.00     0.189 HD
BRANCH   3   5
HETATM    5  N2  UNL     1      35.246  -4.259  13.759  1.00  0.00    -0.266 N 
HETATM    6  C4  UNL     1      34.767  -4.828  12.550  1.00  0.00     0.264 C 
HETATM    7  O1  UNL     1      34.852  -4.170  11.500  1.00  0.00    -0.270 OA
ATOM      8  H2  UNL     1      35.176  -4.800  14.621  1.00  0.00     0.190 HD
BRANCH   6   9
HETATM    9  C3  UNL     1      34.177  -6.176  12.534  1.00  0.00     0.375 C 
BRANCH   9  10
HETATM   10  N1  UNL     1      34.821  -7.069  11.593  1.00  0.00     0.088 N 
HETATM   11  C1  UNL     1      36.145  -7.470  12.054  1.00  0.00     0.310 C 
HETATM   12  C2  UNL     1      33.997  -8.241  11.339  1.00  0.00     0.310 C 
ENDBRANCH   9  10
ENDBRANCH   6   9
ENDBRANCH   3   5
ENDBRANCH   1   3
BRANCH   1  13
HETATM   13  N4  UNL     1      37.513  -1.419  14.540  1.00  0.00    -0.274 N 
ATOM     14  H4  UNL     1      37.808  -1.194  15.490  1.00  0.00     0.189 HD
BRANCH  13  15
HETATM   15  N5  UNL     1      37.490  -0.438  13.555  1.00  0.00    -0.286 N 
HETATM   16  C6  UNL     1      37.360   0.796  13.890  1.00  0.00     0.106 C 
HETATM   17  C7  UNL     1      37.339   1.825  12.812  1.00  0.00     0.219 C 
HETATM   18  N6  UNL     1      37.233   1.294  15.175  1.00  0.00    -0.365 N 
HETATM   19  S2  UNL     1      36.834   3.281  13.728  1.00  0.00     0.167 S 
HETATM   20  O2  UNL     1      37.571   4.499  13.284  1.00  0.00    -0.226 OA
HETATM   21  O3  UNL     1      35.348   3.451  13.724  1.00  0.00    -0.226 OA
HETATM   22  C8  UNL     1      37.400   2.715  15.325  1.00  0.00     0.262 C 
ATOM     23  H6  UNL     1      37.033   0.688  15.971  1.00  0.00     0.161 HD
ATOM     24  H5  UNL     1      37.576  -0.696  12.572  1.00  0.00     0.188 HD
ENDBRANCH  13  15
ENDBRANCH   1  13
TORSDOF 6
ENDMDL
MODEL 2
REMARK VINA RESULT: -5.801119787      1.554      1.559
REMARK  6 active torsions:
REMARK  status: ('A' for Active; 'I' for Inactive)
REMARK    1  A    between atoms: N1_2  and  C3_4 
REMARK    2  A    between atoms: C3_4  and  C4_5 
REMARK       I    between atoms: C4_5  and  N2_7 
REMARK    3  A    between atoms: N2_7  and  N3_9 
REMARK    4  A    between atoms: N3_9  and  C5_11 
REMARK    5  A    between atoms: C5_11  and  N4_13 
REMARK    6  A    between atoms: N4_13  and  N5_15 
ROOT
HETATM    1  C5  UNL     1      36.493  -2.070  12.856  1.00  0.00     0.205 C 
HETATM    2  S1  UNL     1      35.897  -2.018  11.347  1.00  0.00    -0.038 SA
ENDROOT
BRANCH   1   3
HETATM    3  N3  UNL     1      35.919  -2.892  13.830  1.00  0.00    -0.272 N 
ATOM      4  H3  UNL     1      35.978  -2.592  14.804  1.00  0.00     0.189 HD
BRANCH   3   5
HETATM    5  N2  UNL     1      35.279  -4.080  13.558  1.00  0.00    -0.266 N 
HETATM    6  C4  UNL     1      35.905  -5.337  13.761  1.00  0.00     0.264 C 
HETATM    7  O1  UNL     1      37.068  -5.367  14.197  1.00  0.00    -0.270 OA
ATOM      8  H2  UNL     1      34.324  -4.056  13.199  1.00  0.00     0.190 HD
BRANCH   6   9
HETATM    9  C3  UNL     1      35.194  -6.590  13.460  1.00  0.00     0.375 C 
BRANCH   9  10
HETATM   10  N1  UNL     1      35.135  -6.886  12.043  1.00  0.00     0.088 N 
HETATM   11  C1  UNL     1      36.132  -7.879  11.661  1.00  0.00     0.310 C 
HETATM   12  C2  UNL     1      33.805  -7.330  11.658  1.00  0.00     0.310 C 
ENDBRANCH   9  10
ENDBRANCH   6   9
ENDBRANCH   3   5
ENDBRANCH   1   3
BRANCH   1  13
HETATM   13  N4  UNL     1      37.613  -1.258  13.176  1.00  0.00    -0.274 N 
ATOM     14  H4  UNL     1      38.345  -1.605  13.795  1.00  0.00     0.189 HD
BRANCH  13  15
HETATM   15  N5  UNL     1      37.694   0.018  12.630  1.00  0.00    -0.286 N 
HETATM   16  C6  UNL     1      37.399   1.039  13.353  1.00  0.00     0.106 C 
HETATM   17  C7  UNL     1      37.496   2.394  12.740  1.00  0.00     0.219 C 
HETATM   18  N6  UNL     1      36.989   1.024  14.674  1.00  0.00    -0.365 N 
HETATM   19  S2  UNL     1      36.704   3.402  13.993  1.00  0.00     0.167 S 
HETATM   20  O2  UNL     1      37.406   4.705  14.183  1.00  0.00    -0.226 OA
HETATM   21  O3  UNL     1      35.237   3.549  13.742  1.00  0.00    -0.226 OA
HETATM   22  C8  UNL     1      37.003   2.289  15.358  1.00  0.00     0.262 C 
ATOM     23  H6  UNL     1      36.694   0.164  15.138  1.00  0.00     0.161 HD
ATOM     24  H5  UNL     1      37.987   0.144  11.660  1.00  0.00     0.188 HD
ENDBRANCH  13  15
ENDBRANCH   1  13
TORSDOF 6
ENDMDL
MODEL 3
REMARK VINA RESULT: -5.665727962      2.319      8.385
REMARK  6 active torsions:
REMARK  status: ('A' for Active; 'I' for Inactive)
REMARK    1  A    between atoms: N1_2  and  C3_4 
REMARK    2  A    between atoms: C3_4  and  C4_5 
REMARK       I    between atoms: C4_5  and  N2_7 
REMARK    3  A    between atoms: N2_7  and  N3_9 
REMARK    4  A    between atoms: N3_9  and  C5_11 
REMARK    5  A    between atoms: C5_11  and  N4_13 
REMARK    6  A    between atoms: N4_13  and  N5_15 
ROOT
HETATM    1  C5  UNL     1      36.660  -1.604  12.600  1.00  0.00     0.205 C 
HETATM    2  S1  UNL     1      38.028  -2.415  12.267  1.00  0.00    -0.038 SA
ENDROOT
BRANCH   1   3
HETATM    3  N3  UNL     1      36.617  -0.208  12.543  1.00  0.00    -0.272 N 
ATOM      4  H3  UNL     1      36.473   0.229  11.632  1.00  0.00     0.189 HD
BRANCH   3   5
HETATM    5  N2  UNL     1      36.757   0.614  13.638  1.00  0.00    -0.266 N 
HETATM    6  C4  UNL     1      36.838   2.026  13.515  1.00  0.00     0.264 C 
HETATM    7  O1  UNL     1      36.782   2.536  12.385  1.00  0.00    -0.270 OA
ATOM      8  H2  UNL     1      36.804   0.196  14.568  1.00  0.00     0.190 HD
BRANCH   6   9
HETATM    9  C3  UNL     1      36.988   2.878  14.706  1.00  0.00     0.375 C 
BRANCH   9  10
HETATM   10  N1  UNL     1      38.142   2.536  15.511  1.00  0.00     0.088 N 
HETATM   11  C1  UNL     1      39.104   3.630  15.561  1.00  0.00     0.310 C 
HETATM   12  C2  UNL     1      37.744   2.150  16.856  1.00  0.00     0.310 C 
ENDBRANCH   9  10
ENDBRANCH   6   9
ENDBRANCH   3   5
ENDBRANCH   1   3
BRANCH   1  13
HETATM   13  N4  UNL     1      35.502  -2.341  12.959  1.00  0.00    -0.274 N 
ATOM     14  H4  UNL     1      34.573  -1.998  12.713  1.00  0.00     0.189 HD
BRANCH  13  15
HETATM   15  N5  UNL     1      35.654  -3.537  13.652  1.00  0.00    -0.286 N 
HETATM   16  C6  UNL     1      35.333  -4.645  13.085  1.00  0.00     0.106 C 
HETATM   17  C7  UNL     1      35.507  -5.911  13.852  1.00  0.00     0.219 C 
HETATM   18  N6  UNL     1      34.830  -4.802  11.805  1.00  0.00    -0.365 N 
HETATM   19  S2  UNL     1      34.654  -7.081  12.795  1.00  0.00     0.167 S 
HETATM   20  O2  UNL     1      35.373  -8.385  12.718  1.00  0.00    -0.226 OA
HETATM   21  O3  UNL     1      33.212  -7.218  13.170  1.00  0.00    -0.226 OA
HETATM   22  C8  UNL     1      34.826  -6.143  11.285  1.00  0.00     0.262 C 
ATOM     23  H6  UNL     1      34.481  -4.012  11.262  1.00  0.00     0.161 HD
ATOM     24  H5  UNL     1      36.018  -3.535  14.605  1.00  0.00     0.188 HD
ENDBRANCH  13  15
ENDBRANCH   1  13
TORSDOF 6
ENDMDL
MODEL 4
REMARK VINA RESULT: -5.659934155      4.064      9.436
REMARK  6 active torsions:
REMARK  status: ('A' for Active; 'I' for Inactive)
REMARK    1  A    between atoms: N1_2  and  C3_4 
REMARK    2  A    between atoms: C3_4  and  C4_5 
REMARK       I    between atoms: C4_5  and  N2_7 
REMARK    3  A    between atoms: N2_7  and  N3_9 
REMARK    4  A    between atoms: N3_9  and  C5_11 
REMARK    5  A    between atoms: C5_11  and  N4_13 
REMARK    6  A    between atoms: N4_13  and  N5_15 
ROOT
HETATM    1  C5  UNL     1      34.039  -6.427  12.404  1.00  0.00     0.205 C 
HETATM    2  S1  UNL     1      34.766  -7.064  13.709  1.00  0.00    -0.038 SA
ENDROOT
BRANCH   1   3
HETATM    3  N3  UNL     1      34.271  -5.102  12.023  1.00  0.00    -0.272 N 
ATOM      4  H3  UNL     1      33.519  -4.601  11.550  1.00  0.00     0.189 HD
BRANCH   3   5
HETATM    5  N2  UNL     1      35.453  -4.431  12.247  1.00  0.00    -0.266 N 
HETATM    6  C4  UNL     1      35.746  -3.193  11.618  1.00  0.00     0.264 C 
HETATM    7  O1  UNL     1      34.913  -2.699  10.842  1.00  0.00    -0.270 OA
ATOM      8  H2  UNL     1      36.139  -4.836  12.884  1.00  0.00     0.190 HD
BRANCH   6   9
HETATM    9  C3  UNL     1      37.019  -2.500  11.877  1.00  0.00     0.375 C 
BRANCH   9  10
HETATM   10  N1  UNL     1      36.890  -1.403  12.814  1.00  0.00     0.088 N 
HETATM   11  C1  UNL     1      37.838  -1.525  13.916  1.00  0.00     0.310 C 
HETATM   12  C2  UNL     1      37.055  -0.122  12.145  1.00  0.00     0.310 C 
ENDBRANCH   9  10
ENDBRANCH   6   9
ENDBRANCH   3   5
ENDBRANCH   1   3
BRANCH   1  13
HETATM   13  N4  UNL     1      33.151  -7.240  11.653  1.00  0.00    -0.274 N 
ATOM     14  H4  UNL     1      32.306  -6.844  11.243  1.00  0.00     0.189 HD
BRANCH  13  15
HETATM   15  N5  UNL     1      33.454  -8.587  11.486  1.00  0.00    -0.286 N 
HETATM   16  C6  UNL     1      34.257  -8.947  10.550  1.00  0.00     0.106 C 
HETATM   17  C7  UNL     1      34.562 -10.398  10.395  1.00  0.00     0.219 C 
HETATM   18  N6  UNL     1      34.891  -8.117   9.641  1.00  0.00    -0.365 N 
HETATM   19  S2  UNL     1      35.427 -10.408   8.825  1.00  0.00     0.167 S 
HETATM   20  O2  UNL     1      36.584 -11.350   8.835  1.00  0.00    -0.226 OA
HETATM   21  O3  UNL     1      34.492 -10.628   7.678  1.00  0.00    -0.226 OA
HETATM   22  C8  UNL     1      35.964  -8.706   8.885  1.00  0.00     0.262 C 
ATOM     23  H6  UNL     1      34.613  -7.144   9.515  1.00  0.00     0.161 HD
ATOM     24  H5  UNL     1      33.039  -9.286  12.103  1.00  0.00     0.188 HD
ENDBRANCH  13  15
ENDBRANCH   1  13
TORSDOF 6
ENDMDL
MODEL 5
REMARK VINA RESULT: -5.584766225      1.391      1.536
REMARK  6 active torsions:
REMARK  status: ('A' for Active; 'I' for Inactive)
REMARK    1  A    between atoms: N1_2  and  C3_4 
REMARK    2  A    between atoms: C3_4  and  C4_5 
REMARK       I    between atoms: C4_5  and  N2_7 
REMARK    3  A    between atoms: N2_7  and  N3_9 
REMARK    4  A    between atoms: N3_9  and  C5_11 
REMARK    5  A    between atoms: C5_11  and  N4_13 
REMARK    6  A    between atoms: N4_13  and  N5_15 
ROOT
HETATM    1  C5  UNL     1      37.567  -3.856  14.075  1.00  0.00     0.205 C 
HETATM    2  S1  UNL     1      38.816  -4.083  15.087  1.00  0.00    -0.038 SA
ENDROOT
BRANCH   1   3
HETATM    3  N3  UNL     1      37.329  -4.736  13.015  1.00  0.00    -0.272 N 
ATOM      4  H3  UNL     1      37.951  -4.691  12.208  1.00  0.00     0.189 HD
BRANCH   3   5
HETATM    5  N2  UNL     1      36.306  -5.658  12.992  1.00  0.00    -0.266 N 
HETATM    6  C4  UNL     1      35.009  -5.332  12.518  1.00  0.00     0.264 C 
HETATM    7  O1  UNL     1      34.788  -4.180  12.112  1.00  0.00    -0.270 OA
ATOM      8  H2  UNL     1      36.487  -6.605  13.326  1.00  0.00     0.190 HD
BRANCH   6   9
HETATM    9  C3  UNL     1      33.936  -6.340  12.506  1.00  0.00     0.375 C 
BRANCH   9  10
HETATM   10  N1  UNL     1      34.432  -7.700  12.512  1.00  0.00     0.088 N 
HETATM   11  C1  UNL     1      34.064  -8.400  13.737  1.00  0.00     0.310 C 
HETATM   12  C2  UNL     1      33.958  -8.434  11.348  1.00  0.00     0.310 C 
ENDBRANCH   9  10
ENDBRANCH   6   9
ENDBRANCH   3   5
ENDBRANCH   1   3
BRANCH   1  13
HETATM   13  N4  UNL     1      36.716  -2.740  14.282  1.00  0.00    -0.274 N 
ATOM     14  H4  UNL     1      36.224  -2.620  15.167  1.00  0.00     0.189 HD
BRANCH  13  15
HETATM   15  N5  UNL     1      36.564  -1.812  13.257  1.00  0.00    -0.286 N 
HETATM   16  C6  UNL     1      36.911  -0.589  13.450  1.00  0.00     0.106 C 
HETATM   17  C7  UNL     1      36.736   0.382  12.333  1.00  0.00     0.219 C 
HETATM   18  N6  UNL     1      37.443  -0.055  14.611  1.00  0.00    -0.365 N 
HETATM   19  S2  UNL     1      37.043   1.937  13.171  1.00  0.00     0.167 S 
HETATM   20  O2  UNL     1      37.837   2.875  12.326  1.00  0.00    -0.226 OA
HETATM   21  O3  UNL     1      35.781   2.539  13.703  1.00  0.00    -0.226 OA
HETATM   22  C8  UNL     1      38.025   1.255  14.498  1.00  0.00     0.262 C 
ATOM     23  H6  UNL     1      37.423  -0.562  15.496  1.00  0.00     0.161 HD
ATOM     24  H5  UNL     1      36.180  -2.100  12.357  1.00  0.00     0.188 HD
ENDBRANCH  13  15
ENDBRANCH   1  13
TORSDOF 6
ENDMDL
