MODEL 1
REMARK VINA RESULT: -9.512583245      0.000      0.000
REMARK  18 active torsions:
REMARK  status: ('A' for Active; 'I' for Inactive)
REMARK    1  A    between atoms: C2_2  and  C4_4 
REMARK    2  A    between atoms: C4_4  and  C5_5 
REMARK    3  A    between atoms: C5_5  and  N1_6 
REMARK    4  A    between atoms: N1_6  and  C7_8 
REMARK    5  A    between atoms: N1_6  and  C30_47 
REMARK    6  A    between atoms: C7_8  and  C8_9 
REMARK    7  A    between atoms: C8_9  and  C9_10 
REMARK    8  A    between atoms: C9_10  and  C10_11 
REMARK    9  A    between atoms: C10_11  and  N2_12 
REMARK   10  A    between atoms: N2_12  and  C11_14 
REMARK   11  A    between atoms: C12_17  and  N4_18 
REMARK   12  A    between atoms: N4_18  and  C13_20 
REMARK   13  A    between atoms: C13_20  and  C14_21 
REMARK   14  A    between atoms: C19_30  and  N6_31 
REMARK       I    between atoms: N6_31  and  C20_33 
REMARK   15  A    between atoms: C20_33  and  C21_35 
REMARK   16  A    between atoms: C30_47  and  C31_48 
REMARK   17  A    between atoms: C31_48  and  C32_49 
REMARK   18  A    between atoms: C32_49  and  N9_50 
ROOT
HETATM    1  C11 UNL     1      -8.294   5.270  -4.756  1.00  0.00     0.680 A 
HETATM    2  N3  UNL     1      -7.460   4.313  -5.178  1.00  0.00    -0.176 N 
ATOM      3  H3  UNL     1      -7.882   3.509  -5.645  1.00  0.00     0.186 HD
HETATM    4  C12 UNL     1      -6.137   4.305  -5.049  1.00  0.00     0.129 A 
HETATM    5  C17 UNL     1      -5.541   5.405  -4.406  1.00  0.00     0.038 A 
HETATM    6  C18 UNL     1      -4.192   5.476  -4.235  1.00  0.00     0.047 A 
HETATM    7  C19 UNL     1      -3.605   6.575  -3.595  1.00  0.00     0.036 A 
HETATM    8  C27 UNL     1      -4.422   7.575  -3.148  1.00  0.00     0.032 A 
HETATM    9  C28 UNL     1      -5.797   7.472  -3.338  1.00  0.00     0.033 A 
HETATM   10  C29 UNL     1      -6.377   6.397  -3.964  1.00  0.00     0.063 A 
HETATM   11  N8  UNL     1      -7.727   6.335  -4.134  1.00  0.00    -0.191 N 
ATOM     12  H8  UNL     1      -8.316   7.094  -3.791  1.00  0.00     0.184 HD
ENDROOT
BRANCH   1  13
HETATM   13  N2  UNL     1      -9.570   5.260  -4.903  1.00  0.00    -0.226 N 
ATOM     14  H2  UNL     1      -9.993   6.126  -5.235  1.00  0.00     0.177 HD
BRANCH  13  15
HETATM   15  C10 UNL     1     -10.464   4.175  -4.653  1.00  0.00     0.138 C 
BRANCH  15  16
HETATM   16  C9  UNL     1     -11.473   3.940  -5.736  1.00  0.00     0.022 C 
BRANCH  16  17
HETATM   17  C8  UNL     1     -12.621   3.061  -5.291  1.00  0.00     0.029 C 
BRANCH  17  18
HETATM   18  C7  UNL     1     -12.208   2.118  -4.214  1.00  0.00     0.237 C 
BRANCH  18  19
HETATM   19  N1  UNL     1     -13.045   2.132  -3.036  1.00  0.00    -0.071 N 
HETATM   20  C6  UNL     1     -14.189   1.247  -3.286  1.00  0.00     0.272 C 
BRANCH  19  21
HETATM   21  C5  UNL     1     -12.273   1.512  -1.980  1.00  0.00     0.237 C 
BRANCH  21  22
HETATM   22  C4  UNL     1     -10.883   1.105  -2.415  1.00  0.00     0.032 C 
BRANCH  22  23
HETATM   23  C2  UNL     1     -10.528  -0.251  -1.830  1.00  0.00    -0.021 C 
HETATM   24  C1  UNL     1     -10.239  -1.211  -2.962  1.00  0.00     0.009 C 
HETATM   25  C3  UNL     1     -11.601  -0.786  -0.942  1.00  0.00     0.009 C 
ENDBRANCH  22  23
ENDBRANCH  21  22
ENDBRANCH  19  21
BRANCH  19  26
HETATM   26  C30 UNL     1     -13.588   3.401  -2.693  1.00  0.00     0.238 C 
BRANCH  26  27
HETATM   27  C31 UNL     1     -12.841   4.180  -1.653  1.00  0.00     0.058 C 
BRANCH  27  28
HETATM   28  C32 UNL     1     -13.812   4.957  -0.785  1.00  0.00     0.273 C 
BRANCH  28  29
HETATM   29  N9  UNL     1     -13.511   4.915   0.607  1.00  0.00     0.080 N 
HETATM   30  C33 UNL     1     -12.638   5.993   1.035  1.00  0.00     0.309 C 
HETATM   31  C34 UNL     1     -13.012   3.623   1.042  1.00  0.00     0.309 C 
ENDBRANCH  28  29
ENDBRANCH  27  28
ENDBRANCH  26  27
ENDBRANCH  19  26
ENDBRANCH  18  19
ENDBRANCH  17  18
ENDBRANCH  16  17
ENDBRANCH  15  16
ENDBRANCH  13  15
ENDBRANCH   1  13
BRANCH   4  32
HETATM   32  N4  UNL     1      -5.340   3.400  -5.450  1.00  0.00    -0.373 N 
ATOM     33  H4  UNL     1      -5.311   2.548  -4.889  1.00  0.00     0.161 HD
BRANCH  32  34
HETATM   34  C13 UNL     1      -4.480   3.429  -6.587  1.00  0.00     0.155 C 
BRANCH  34  35
HETATM   35  C14 UNL     1      -5.323   3.501  -7.842  1.00  0.00     0.169 C 
HETATM   36  C15 UNL     1      -4.643   2.870  -9.040  1.00  0.00     0.159 C 
HETATM   37  N5  UNL     1      -5.785   2.607  -9.891  1.00  0.00    -0.334 N 
HETATM   38  C16 UNL     1      -6.928   2.472  -9.060  1.00  0.00     0.361 C 
ATOM     39  H5  UNL     1      -5.770   2.531 -10.907  1.00  0.00     0.164 HD
HETATM   40  O1  UNL     1      -8.082   2.171  -9.454  1.00  0.00    -0.239 OA
HETATM   41  O2  UNL     1      -6.508   2.740  -7.742  1.00  0.00    -0.295 OA
ENDBRANCH  34  35
ENDBRANCH  32  34
ENDBRANCH   4  32
BRANCH   7  42
HETATM   42  N6  UNL     1      -2.208   6.640  -3.452  1.00  0.00    -0.323 N 
HETATM   43  C20 UNL     1      -1.196   6.065  -4.216  1.00  0.00     0.258 C 
HETATM   44  O3  UNL     1      -1.468   5.361  -5.219  1.00  0.00    -0.267 OA
ATOM     45  H6  UNL     1      -1.883   7.198  -2.662  1.00  0.00     0.169 HD
BRANCH  43  46
HETATM   46  C21 UNL     1       0.229   6.230  -3.919  1.00  0.00     0.056 A 
HETATM   47  C22 UNL     1       1.140   6.663  -4.833  1.00  0.00     0.019 A 
HETATM   48  C23 UNL     1       2.461   6.801  -4.509  1.00  0.00     0.001 A 
HETATM   49  C24 UNL     1       2.953   6.514  -3.245  1.00  0.00     0.002 A 
HETATM   50  C25 UNL     1       2.022   6.077  -2.331  1.00  0.00     0.027 A 
HETATM   51  C26 UNL     1       0.684   5.936  -2.656  1.00  0.00     0.062 A 
HETATM   52  N7  UNL     1      -0.174   5.478  -1.621  1.00  0.00    -0.101 NA
ENDBRANCH  43  46
ENDBRANCH   7  42
TORSDOF 18
ENDMDL
MODEL 2
REMARK VINA RESULT: -9.508629988      1.925      3.630
REMARK  18 active torsions:
REMARK  status: ('A' for Active; 'I' for Inactive)
REMARK    1  A    between atoms: C2_2  and  C4_4 
REMARK    2  A    between atoms: C4_4  and  C5_5 
REMARK    3  A    between atoms: C5_5  and  N1_6 
REMARK    4  A    between atoms: N1_6  and  C7_8 
REMARK    5  A    between atoms: N1_6  and  C30_47 
REMARK    6  A    between atoms: C7_8  and  C8_9 
REMARK    7  A    between atoms: C8_9  and  C9_10 
REMARK    8  A    between atoms: C9_10  and  C10_11 
REMARK    9  A    between atoms: C10_11  and  N2_12 
REMARK   10  A    between atoms: N2_12  and  C11_14 
REMARK   11  A    between atoms: C12_17  and  N4_18 
REMARK   12  A    between atoms: N4_18  and  C13_20 
REMARK   13  A    between atoms: C13_20  and  C14_21 
REMARK   14  A    between atoms: C19_30  and  N6_31 
REMARK       I    between atoms: N6_31  and  C20_33 
REMARK   15  A    between atoms: C20_33  and  C21_35 
REMARK   16  A    between atoms: C30_47  and  C31_48 
REMARK   17  A    between atoms: C31_48  and  C32_49 
REMARK   18  A    between atoms: C32_49  and  N9_50 
ROOT
HETATM    1  C11 UNL     1      -8.057   5.274  -4.252  1.00  0.00     0.680 A 
HETATM    2  N3  UNL     1      -7.261   4.365  -4.826  1.00  0.00    -0.176 N 
ATOM      3  H3  UNL     1      -7.718   3.565  -5.264  1.00  0.00     0.186 HD
HETATM    4  C12 UNL     1      -5.933   4.401  -4.882  1.00  0.00     0.129 A 
HETATM    5  C17 UNL     1      -5.288   5.498  -4.281  1.00  0.00     0.038 A 
HETATM    6  C18 UNL     1      -3.931   5.611  -4.296  1.00  0.00     0.047 A 
HETATM    7  C19 UNL     1      -3.296   6.707  -3.697  1.00  0.00     0.036 A 
HETATM    8  C27 UNL     1      -4.073   7.658  -3.099  1.00  0.00     0.032 A 
HETATM    9  C28 UNL     1      -5.457   7.512  -3.101  1.00  0.00     0.033 A 
HETATM   10  C29 UNL     1      -6.085   6.440  -3.686  1.00  0.00     0.063 A 
HETATM   11  N8  UNL     1      -7.443   6.335  -3.670  1.00  0.00    -0.191 N 
ATOM     12  H8  UNL     1      -8.001   7.058  -3.217  1.00  0.00     0.184 HD
ENDROOT
BRANCH   1  13
HETATM   13  N2  UNL     1      -9.340   5.222  -4.222  1.00  0.00    -0.226 N 
ATOM     14  H2  UNL     1      -9.820   5.396  -5.105  1.00  0.00     0.177 HD
BRANCH  13  15
HETATM   15  C10 UNL     1     -10.172   4.951  -3.093  1.00  0.00     0.138 C 
BRANCH  15  16
HETATM   16  C9  UNL     1     -10.189   3.516  -2.665  1.00  0.00     0.022 C 
BRANCH  16  17
HETATM   17  C8  UNL     1     -11.527   3.082  -2.110  1.00  0.00     0.029 C 
BRANCH  17  18
HETATM   18  C7  UNL     1     -12.047   4.050  -1.105  1.00  0.00     0.237 C 
BRANCH  18  19
HETATM   19  N1  UNL     1     -13.181   3.585  -0.338  1.00  0.00    -0.071 N 
HETATM   20  C6  UNL     1     -12.939   2.182   0.018  1.00  0.00     0.272 C 
BRANCH  19  21
HETATM   21  C5  UNL     1     -13.167   4.329   0.903  1.00  0.00     0.237 C 
BRANCH  21  22
HETATM   22  C4  UNL     1     -12.454   5.659   0.796  1.00  0.00     0.032 C 
BRANCH  22  23
HETATM   23  C2  UNL     1     -11.610   5.901   2.035  1.00  0.00    -0.021 C 
HETATM   24  C1  UNL     1     -11.243   7.366   2.097  1.00  0.00     0.009 C 
HETATM   25  C3  UNL     1     -10.388   5.046   2.066  1.00  0.00     0.009 C 
ENDBRANCH  22  23
ENDBRANCH  21  22
ENDBRANCH  19  21
BRANCH  19  26
HETATM   26  C30 UNL     1     -14.428   3.615  -1.021  1.00  0.00     0.238 C 
BRANCH  26  27
HETATM   27  C31 UNL     1     -15.096   2.290  -1.235  1.00  0.00     0.058 C 
BRANCH  27  28
HETATM   28  C32 UNL     1     -15.201   1.992  -2.718  1.00  0.00     0.273 C 
BRANCH  28  29
HETATM   29  N9  UNL     1     -15.089   0.609  -3.044  1.00  0.00     0.080 N 
HETATM   30  C33 UNL     1     -15.956  -0.238  -2.246  1.00  0.00     0.309 C 
HETATM   31  C34 UNL     1     -13.718   0.132  -3.026  1.00  0.00     0.309 C 
ENDBRANCH  28  29
ENDBRANCH  27  28
ENDBRANCH  26  27
ENDBRANCH  19  26
ENDBRANCH  18  19
ENDBRANCH  17  18
ENDBRANCH  16  17
ENDBRANCH  15  16
ENDBRANCH  13  15
ENDBRANCH   1  13
BRANCH   4  32
HETATM   32  N4  UNL     1      -5.172   3.541  -5.427  1.00  0.00    -0.373 N 
ATOM     33  H4  UNL     1      -4.447   3.143  -4.831  1.00  0.00     0.161 HD
BRANCH  32  34
HETATM   34  C13 UNL     1      -5.206   3.067  -6.772  1.00  0.00     0.155 C 
BRANCH  34  35
HETATM   35  C14 UNL     1      -4.227   3.867  -7.604  1.00  0.00     0.169 C 
HETATM   36  C15 UNL     1      -2.821   3.838  -7.041  1.00  0.00     0.159 C 
HETATM   37  N5  UNL     1      -2.052   4.188  -8.217  1.00  0.00    -0.334 N 
HETATM   38  C16 UNL     1      -2.803   3.806  -9.360  1.00  0.00     0.361 C 
ATOM     39  H5  UNL     1      -1.134   4.630  -8.222  1.00  0.00     0.164 HD
HETATM   40  O1  UNL     1      -2.412   3.898 -10.550  1.00  0.00    -0.239 OA
HETATM   41  O2  UNL     1      -4.040   3.320  -8.892  1.00  0.00    -0.295 OA
ENDBRANCH  34  35
ENDBRANCH  32  34
ENDBRANCH   4  32
BRANCH   7  42
HETATM   42  N6  UNL     1      -1.894   6.818  -3.746  1.00  0.00    -0.323 N 
HETATM   43  C20 UNL     1      -0.906   5.935  -3.320  1.00  0.00     0.258 C 
HETATM   44  O3  UNL     1      -1.207   4.832  -2.801  1.00  0.00    -0.267 OA
ATOM     45  H6  UNL     1      -1.547   7.684  -4.159  1.00  0.00     0.169 HD
BRANCH  43  46
HETATM   46  C21 UNL     1       0.527   6.214  -3.440  1.00  0.00     0.056 A 
HETATM   47  C22 UNL     1       1.415   6.025  -2.426  1.00  0.00     0.019 A 
HETATM   48  C23 UNL     1       2.746   6.299  -2.585  1.00  0.00     0.001 A 
HETATM   49  C24 UNL     1       3.270   6.781  -3.774  1.00  0.00     0.002 A 
HETATM   50  C25 UNL     1       2.362   6.968  -4.791  1.00  0.00     0.027 A 
HETATM   51  C26 UNL     1       1.015   6.691  -4.633  1.00  0.00     0.062 A 
HETATM   52  N7  UNL     1       0.184   6.925  -5.761  1.00  0.00    -0.101 NA
ENDBRANCH  43  46
ENDBRANCH   7  42
TORSDOF 18
ENDMDL
MODEL 3
REMARK VINA RESULT: -9.507545100      1.514      1.973
REMARK  18 active torsions:
REMARK  status: ('A' for Active; 'I' for Inactive)
REMARK    1  A    between atoms: C2_2  and  C4_4 
REMARK    2  A    between atoms: C4_4  and  C5_5 
REMARK    3  A    between atoms: C5_5  and  N1_6 
REMARK    4  A    between atoms: N1_6  and  C7_8 
REMARK    5  A    between atoms: N1_6  and  C30_47 
REMARK    6  A    between atoms: C7_8  and  C8_9 
REMARK    7  A    between atoms: C8_9  and  C9_10 
REMARK    8  A    between atoms: C9_10  and  C10_11 
REMARK    9  A    between atoms: C10_11  and  N2_12 
REMARK   10  A    between atoms: N2_12  and  C11_14 
REMARK   11  A    between atoms: C12_17  and  N4_18 
REMARK   12  A    between atoms: N4_18  and  C13_20 
REMARK   13  A    between atoms: C13_20  and  C14_21 
REMARK   14  A    between atoms: C19_30  and  N6_31 
REMARK       I    between atoms: N6_31  and  C20_33 
REMARK   15  A    between atoms: C20_33  and  C21_35 
REMARK   16  A    between atoms: C30_47  and  C31_48 
REMARK   17  A    between atoms: C31_48  and  C32_49 
REMARK   18  A    between atoms: C32_49  and  N9_50 
ROOT
HETATM    1  C11 UNL     1      -8.063   5.445  -4.445  1.00  0.00     0.680 A 
HETATM    2  N3  UNL     1      -7.266   4.504  -4.965  1.00  0.00    -0.176 N 
ATOM      3  H3  UNL     1      -7.724   3.707  -5.408  1.00  0.00     0.186 HD
HETATM    4  C12 UNL     1      -5.937   4.505  -4.960  1.00  0.00     0.129 A 
HETATM    5  C17 UNL     1      -5.291   5.596  -4.352  1.00  0.00     0.038 A 
HETATM    6  C18 UNL     1      -3.932   5.674  -4.306  1.00  0.00     0.047 A 
HETATM    7  C19 UNL     1      -3.295   6.765  -3.700  1.00  0.00     0.036 A 
HETATM    8  C27 UNL     1      -4.073   7.748  -3.155  1.00  0.00     0.032 A 
HETATM    9  C28 UNL     1      -5.459   7.637  -3.219  1.00  0.00     0.033 A 
HETATM   10  C29 UNL     1      -6.088   6.571  -3.811  1.00  0.00     0.063 A 
HETATM   11  N8  UNL     1      -7.448   6.501  -3.855  1.00  0.00    -0.191 N 
ATOM     12  H8  UNL     1      -8.007   7.248  -3.442  1.00  0.00     0.184 HD
ENDROOT
BRANCH   1  13
HETATM   13  N2  UNL     1      -9.347   5.427  -4.472  1.00  0.00    -0.226 N 
ATOM     14  H2  UNL     1      -9.808   6.325  -4.621  1.00  0.00     0.177 HD
BRANCH  13  15
HETATM   15  C10 UNL     1     -10.203   4.295  -4.318  1.00  0.00     0.138 C 
BRANCH  15  16
HETATM   16  C9  UNL     1     -11.002   3.949  -5.538  1.00  0.00     0.022 C 
BRANCH  16  17
HETATM   17  C8  UNL     1     -12.041   2.881  -5.279  1.00  0.00     0.029 C 
BRANCH  17  18
HETATM   18  C7  UNL     1     -12.932   3.243  -4.141  1.00  0.00     0.237 C 
BRANCH  18  19
HETATM   19  N1  UNL     1     -13.042   2.239  -3.107  1.00  0.00    -0.071 N 
HETATM   20  C6  UNL     1     -14.381   1.644  -3.198  1.00  0.00     0.272 C 
BRANCH  19  21
HETATM   21  C5  UNL     1     -12.107   1.191  -3.456  1.00  0.00     0.237 C 
BRANCH  21  22
HETATM   22  C4  UNL     1     -11.139   0.858  -2.342  1.00  0.00     0.032 C 
BRANCH  22  23
HETATM   23  C2  UNL     1     -11.150  -0.636  -2.068  1.00  0.00    -0.021 C 
HETATM   24  C1  UNL     1     -12.482  -1.010  -1.457  1.00  0.00     0.009 C 
HETATM   25  C3  UNL     1     -10.024  -1.062  -1.187  1.00  0.00     0.009 C 
ENDBRANCH  22  23
ENDBRANCH  21  22
ENDBRANCH  19  21
BRANCH  19  26
HETATM   26  C30 UNL     1     -12.907   2.721  -1.776  1.00  0.00     0.238 C 
BRANCH  26  27
HETATM   27  C31 UNL     1     -12.787   4.207  -1.621  1.00  0.00     0.058 C 
BRANCH  27  28
HETATM   28  C32 UNL     1     -11.529   4.551  -0.846  1.00  0.00     0.273 C 
BRANCH  28  29
HETATM   29  N9  UNL     1     -11.747   5.420   0.262  1.00  0.00     0.080 N 
HETATM   30  C33 UNL     1     -10.954   5.071   1.426  1.00  0.00     0.309 C 
HETATM   31  C34 UNL     1     -13.151   5.567   0.600  1.00  0.00     0.309 C 
ENDBRANCH  28  29
ENDBRANCH  27  28
ENDBRANCH  26  27
ENDBRANCH  19  26
ENDBRANCH  18  19
ENDBRANCH  17  18
ENDBRANCH  16  17
ENDBRANCH  15  16
ENDBRANCH  13  15
ENDBRANCH   1  13
BRANCH   4  32
HETATM   32  N4  UNL     1      -5.175   3.615  -5.454  1.00  0.00    -0.373 N 
ATOM     33  H4  UNL     1      -4.484   3.216  -4.819  1.00  0.00     0.161 HD
BRANCH  32  34
HETATM   34  C13 UNL     1      -5.167   3.108  -6.787  1.00  0.00     0.155 C 
BRANCH  34  35
HETATM   35  C14 UNL     1      -4.199   3.920  -7.619  1.00  0.00     0.169 C 
HETATM   36  C15 UNL     1      -2.793   3.909  -7.057  1.00  0.00     0.159 C 
HETATM   37  N5  UNL     1      -2.028   4.268  -8.233  1.00  0.00    -0.334 N 
HETATM   38  C16 UNL     1      -2.774   3.876  -9.376  1.00  0.00     0.361 C 
ATOM     39  H5  UNL     1      -1.116   4.723  -8.239  1.00  0.00     0.164 HD
HETATM   40  O1  UNL     1      -2.384   3.971 -10.566  1.00  0.00    -0.239 OA
HETATM   41  O2  UNL     1      -4.005   3.375  -8.907  1.00  0.00    -0.295 OA
ENDBRANCH  34  35
ENDBRANCH  32  34
ENDBRANCH   4  32
BRANCH   7  42
HETATM   42  N6  UNL     1      -1.891   6.839  -3.686  1.00  0.00    -0.323 N 
HETATM   43  C20 UNL     1      -0.945   5.921  -3.237  1.00  0.00     0.258 C 
HETATM   44  O3  UNL     1      -1.297   4.817  -2.754  1.00  0.00    -0.267 OA
ATOM     45  H6  UNL     1      -1.503   7.703  -4.066  1.00  0.00     0.169 HD
BRANCH  43  46
HETATM   46  C21 UNL     1       0.499   6.163  -3.290  1.00  0.00     0.056 A 
HETATM   47  C22 UNL     1       1.328   5.984  -2.226  1.00  0.00     0.019 A 
HETATM   48  C23 UNL     1       2.672   6.223  -2.323  1.00  0.00     0.001 A 
HETATM   49  C24 UNL     1       3.269   6.657  -3.497  1.00  0.00     0.002 A 
HETATM   50  C25 UNL     1       2.419   6.835  -4.564  1.00  0.00     0.027 A 
HETATM   51  C26 UNL     1       1.059   6.594  -4.469  1.00  0.00     0.062 A 
HETATM   52  N7  UNL     1       0.293   6.814  -5.644  1.00  0.00    -0.101 NA
ENDBRANCH  43  46
ENDBRANCH   7  42
TORSDOF 18
ENDMDL
MODEL 4
REMARK VINA RESULT: -9.477829697      1.119      1.432
REMARK  18 active torsions:
REMARK  status: ('A' for Active; 'I' for Inactive)
REMARK    1  A    between atoms: C2_2  and  C4_4 
REMARK    2  A    between atoms: C4_4  and  C5_5 
REMARK    3  A    between atoms: C5_5  and  N1_6 
REMARK    4  A    between atoms: N1_6  and  C7_8 
REMARK    5  A    between atoms: N1_6  and  C30_47 
REMARK    6  A    between atoms: C7_8  and  C8_9 
REMARK    7  A    between atoms: C8_9  and  C9_10 
REMARK    8  A    between atoms: C9_10  and  C10_11 
REMARK    9  A    between atoms: C10_11  and  N2_12 
REMARK   10  A    between atoms: N2_12  and  C11_14 
REMARK   11  A    between atoms: C12_17  and  N4_18 
REMARK   12  A    between atoms: N4_18  and  C13_20 
REMARK   13  A    between atoms: C13_20  and  C14_21 
REMARK   14  A    between atoms: C19_30  and  N6_31 
REMARK       I    between atoms: N6_31  and  C20_33 
REMARK   15  A    between atoms: C20_33  and  C21_35 
REMARK   16  A    between atoms: C30_47  and  C31_48 
REMARK   17  A    between atoms: C31_48  and  C32_49 
REMARK   18  A    between atoms: C32_49  and  N9_50 
ROOT
HETATM    1  C11 UNL     1      -8.245   5.314  -4.701  1.00  0.00     0.680 A 
HETATM    2  N3  UNL     1      -7.405   4.391  -5.183  1.00  0.00    -0.176 N 
ATOM      3  H3  UNL     1      -7.823   3.609  -5.689  1.00  0.00     0.186 HD
HETATM    4  C12 UNL     1      -6.081   4.391  -5.067  1.00  0.00     0.129 A 
HETATM    5  C17 UNL     1      -5.490   5.461  -4.372  1.00  0.00     0.038 A 
HETATM    6  C18 UNL     1      -4.140   5.538  -4.211  1.00  0.00     0.047 A 
HETATM    7  C19 UNL     1      -3.559   6.608  -3.517  1.00  0.00     0.036 A 
HETATM    8  C27 UNL     1      -4.382   7.572  -3.008  1.00  0.00     0.032 A 
HETATM    9  C28 UNL     1      -5.757   7.464  -3.190  1.00  0.00     0.033 A 
HETATM   10  C29 UNL     1      -6.333   6.418  -3.868  1.00  0.00     0.063 A 
HETATM   11  N8  UNL     1      -7.683   6.350  -4.028  1.00  0.00    -0.191 N 
ATOM     12  H8  UNL     1      -8.277   7.083  -3.638  1.00  0.00     0.184 HD
ENDROOT
BRANCH   1  13
HETATM   13  N2  UNL     1      -9.522   5.297  -4.836  1.00  0.00    -0.226 N 
ATOM     14  H2  UNL     1      -9.959   6.177  -5.111  1.00  0.00     0.177 HD
BRANCH  13  15
HETATM   15  C10 UNL     1     -10.401   4.189  -4.644  1.00  0.00     0.138 C 
BRANCH  15  16
HETATM   16  C9  UNL     1     -11.410   3.999  -5.735  1.00  0.00     0.022 C 
BRANCH  16  17
HETATM   17  C8  UNL     1     -12.550   3.091  -5.332  1.00  0.00     0.029 C 
BRANCH  17  18
HETATM   18  C7  UNL     1     -12.159   2.169  -4.230  1.00  0.00     0.237 C 
BRANCH  18  19
HETATM   19  N1  UNL     1     -13.046   2.169  -3.089  1.00  0.00    -0.071 N 
HETATM   20  C6  UNL     1     -14.194   1.313  -3.412  1.00  0.00     0.272 C 
BRANCH  19  21
HETATM   21  C5  UNL     1     -12.334   1.507  -2.018  1.00  0.00     0.237 C 
BRANCH  21  22
HETATM   22  C4  UNL     1     -10.965   1.010  -2.427  1.00  0.00     0.032 C 
BRANCH  22  23
HETATM   23  C2  UNL     1     -10.716  -0.372  -1.849  1.00  0.00    -0.021 C 
HETATM   24  C1  UNL     1     -10.200  -1.275  -2.945  1.00  0.00     0.009 C 
HETATM   25  C3  UNL     1     -11.935  -0.951  -1.213  1.00  0.00     0.009 C 
ENDBRANCH  22  23
ENDBRANCH  21  22
ENDBRANCH  19  21
BRANCH  19  26
HETATM   26  C30 UNL     1     -13.581   3.439  -2.736  1.00  0.00     0.238 C 
BRANCH  26  27
HETATM   27  C31 UNL     1     -12.826   4.207  -1.693  1.00  0.00     0.058 C 
BRANCH  27  28
HETATM   28  C32 UNL     1     -13.790   4.990  -0.823  1.00  0.00     0.273 C 
BRANCH  28  29
HETATM   29  N9  UNL     1     -13.520   4.898   0.573  1.00  0.00     0.080 N 
HETATM   30  C33 UNL     1     -12.513   5.841   1.024  1.00  0.00     0.309 C 
HETATM   31  C34 UNL     1     -13.213   3.546   1.004  1.00  0.00     0.309 C 
ENDBRANCH  28  29
ENDBRANCH  27  28
ENDBRANCH  26  27
ENDBRANCH  19  26
ENDBRANCH  18  19
ENDBRANCH  17  18
ENDBRANCH  16  17
ENDBRANCH  15  16
ENDBRANCH  13  15
ENDBRANCH   1  13
BRANCH   4  32
HETATM   32  N4  UNL     1      -5.278   3.518  -5.525  1.00  0.00    -0.373 N 
ATOM     33  H4  UNL     1      -4.401   3.406  -5.016  1.00  0.00     0.161 HD
BRANCH  32  34
HETATM   34  C13 UNL     1      -5.452   2.676  -6.663  1.00  0.00     0.155 C 
BRANCH  34  35
HETATM   35  C14 UNL     1      -4.227   2.778  -7.545  1.00  0.00     0.169 C 
HETATM   36  C15 UNL     1      -4.572   3.029  -8.998  1.00  0.00     0.159 C 
HETATM   37  N5  UNL     1      -3.324   3.583  -9.481  1.00  0.00    -0.334 N 
HETATM   38  C16 UNL     1      -2.651   4.172  -8.378  1.00  0.00     0.361 C 
ATOM     39  H5  UNL     1      -2.988   3.555 -10.443  1.00  0.00     0.164 HD
HETATM   40  O1  UNL     1      -1.569   4.807  -8.440  1.00  0.00    -0.239 OA
HETATM   41  O2  UNL     1      -3.429   3.900  -7.234  1.00  0.00    -0.295 OA
ENDBRANCH  34  35
ENDBRANCH  32  34
ENDBRANCH   4  32
BRANCH   7  42
HETATM   42  N6  UNL     1      -2.161   6.680  -3.384  1.00  0.00    -0.323 N 
HETATM   43  C20 UNL     1      -1.152   6.093  -4.143  1.00  0.00     0.258 C 
HETATM   44  O3  UNL     1      -1.427   5.368  -5.130  1.00  0.00    -0.267 OA
ATOM     45  H6  UNL     1      -1.833   7.256  -2.608  1.00  0.00     0.169 HD
BRANCH  43  46
HETATM   46  C21 UNL     1       0.274   6.269  -3.859  1.00  0.00     0.056 A 
HETATM   47  C22 UNL     1       1.171   6.725  -4.776  1.00  0.00     0.019 A 
HETATM   48  C23 UNL     1       2.494   6.873  -4.464  1.00  0.00     0.001 A 
HETATM   49  C24 UNL     1       3.003   6.573  -3.210  1.00  0.00     0.002 A 
HETATM   50  C25 UNL     1       2.086   6.114  -2.292  1.00  0.00     0.027 A 
HETATM   51  C26 UNL     1       0.746   5.963  -2.605  1.00  0.00     0.062 A 
HETATM   52  N7  UNL     1      -0.096   5.482  -1.568  1.00  0.00    -0.101 NA
ENDBRANCH  43  46
ENDBRANCH   7  42
TORSDOF 18
ENDMDL
MODEL 5
REMARK VINA RESULT: -9.467630937      2.877      5.362
REMARK  18 active torsions:
REMARK  status: ('A' for Active; 'I' for Inactive)
REMARK    1  A    between atoms: C2_2  and  C4_4 
REMARK    2  A    between atoms: C4_4  and  C5_5 
REMARK    3  A    between atoms: C5_5  and  N1_6 
REMARK    4  A    between atoms: N1_6  and  C7_8 
REMARK    5  A    between atoms: N1_6  and  C30_47 
REMARK    6  A    between atoms: C7_8  and  C8_9 
REMARK    7  A    between atoms: C8_9  and  C9_10 
REMARK    8  A    between atoms: C9_10  and  C10_11 
REMARK    9  A    between atoms: C10_11  and  N2_12 
REMARK   10  A    between atoms: N2_12  and  C11_14 
REMARK   11  A    between atoms: C12_17  and  N4_18 
REMARK   12  A    between atoms: N4_18  and  C13_20 
REMARK   13  A    between atoms: C13_20  and  C14_21 
REMARK   14  A    between atoms: C19_30  and  N6_31 
REMARK       I    between atoms: N6_31  and  C20_33 
REMARK   15  A    between atoms: C20_33  and  C21_35 
REMARK   16  A    between atoms: C30_47  and  C31_48 
REMARK   17  A    between atoms: C31_48  and  C32_49 
REMARK   18  A    between atoms: C32_49  and  N9_50 
ROOT
HETATM    1  C11 UNL     1      -9.395   3.679  -6.954  1.00  0.00     0.680 A 
HETATM    2  N3  UNL     1      -8.595   4.249  -6.046  1.00  0.00    -0.176 N 
ATOM      3  H3  UNL     1      -9.050   4.700  -5.252  1.00  0.00     0.186 HD
HETATM    4  C12 UNL     1      -7.267   4.286  -6.076  1.00  0.00     0.129 A 
HETATM    5  C17 UNL     1      -6.625   3.669  -7.165  1.00  0.00     0.038 A 
HETATM    6  C18 UNL     1      -5.267   3.661  -7.271  1.00  0.00     0.047 A 
HETATM    7  C19 UNL     1      -4.635   3.044  -8.358  1.00  0.00     0.036 A 
HETATM    8  C27 UNL     1      -5.415   2.450  -9.309  1.00  0.00     0.032 A 
HETATM    9  C28 UNL     1      -6.800   2.477  -9.171  1.00  0.00     0.033 A 
HETATM   10  C29 UNL     1      -7.426   3.081  -8.109  1.00  0.00     0.063 A 
HETATM   11  N8  UNL     1      -8.784   3.083  -8.009  1.00  0.00    -0.191 N 
ATOM     12  H8  UNL     1      -9.345   2.632  -8.732  1.00  0.00     0.184 HD
ENDROOT
BRANCH   1  13
HETATM   13  N2  UNL     1     -10.678   3.646  -6.897  1.00  0.00    -0.226 N 
ATOM     14  H2  UNL     1     -11.158   3.298  -7.726  1.00  0.00     0.177 HD
BRANCH  13  15
HETATM   15  C10 UNL     1     -11.508   4.042  -5.805  1.00  0.00     0.138 C 
BRANCH  15  16
HETATM   16  C9  UNL     1     -12.708   3.172  -5.589  1.00  0.00     0.022 C 
BRANCH  16  17
HETATM   17  C8  UNL     1     -12.729   2.526  -4.221  1.00  0.00     0.029 C 
BRANCH  17  18
HETATM   18  C7  UNL     1     -12.993   3.522  -3.145  1.00  0.00     0.237 C 
BRANCH  18  19
HETATM   19  N1  UNL     1     -12.215   3.340  -1.941  1.00  0.00    -0.071 N 
HETATM   20  C6  UNL     1     -10.818   3.121  -2.335  1.00  0.00     0.272 C 
BRANCH  19  21
HETATM   21  C5  UNL     1     -12.247   4.606  -1.240  1.00  0.00     0.237 C 
BRANCH  21  22
HETATM   22  C4  UNL     1     -11.122   4.764  -0.240  1.00  0.00     0.032 C 
BRANCH  22  23
HETATM   23  C2  UNL     1     -11.687   5.035   1.144  1.00  0.00    -0.021 C 
HETATM   24  C1  UNL     1     -12.722   6.132   1.043  1.00  0.00     0.009 C 
HETATM   25  C3  UNL     1     -10.628   5.394   2.131  1.00  0.00     0.009 C 
ENDBRANCH  22  23
ENDBRANCH  21  22
ENDBRANCH  19  21
BRANCH  19  26
HETATM   26  C30 UNL     1     -12.585   2.223  -1.142  1.00  0.00     0.238 C 
BRANCH  26  27
HETATM   27  C31 UNL     1     -14.023   2.157  -0.724  1.00  0.00     0.058 C 
BRANCH  27  28
HETATM   28  C32 UNL     1     -14.129   2.211   0.788  1.00  0.00     0.273 C 
BRANCH  28  29
HETATM   29  N9  UNL     1     -15.022   3.209   1.274  1.00  0.00     0.080 N 
HETATM   30  C33 UNL     1     -15.975   2.700   2.243  1.00  0.00     0.309 C 
HETATM   31  C34 UNL     1     -15.685   3.943   0.212  1.00  0.00     0.309 C 
ENDBRANCH  28  29
ENDBRANCH  27  28
ENDBRANCH  26  27
ENDBRANCH  19  26
ENDBRANCH  18  19
ENDBRANCH  17  18
ENDBRANCH  16  17
ENDBRANCH  15  16
ENDBRANCH  13  15
ENDBRANCH   1  13
BRANCH   4  32
HETATM   32  N4  UNL     1      -6.502   4.824  -5.215  1.00  0.00    -0.373 N 
ATOM     33  H4  UNL     1      -5.588   4.387  -5.093  1.00  0.00     0.161 HD
BRANCH  32  34
HETATM   34  C13 UNL     1      -6.764   5.964  -4.398  1.00  0.00     0.155 C 
BRANCH  34  35
HETATM   35  C14 UNL     1      -5.462   6.460  -3.809  1.00  0.00     0.169 C 
HETATM   36  C15 UNL     1      -5.654   7.630  -2.868  1.00  0.00     0.159 C 
HETATM   37  N5  UNL     1      -4.433   7.558  -2.092  1.00  0.00    -0.334 N 
HETATM   38  C16 UNL     1      -3.977   6.213  -2.119  1.00  0.00     0.361 C 
ATOM     39  H5  UNL     1      -3.982   8.335  -1.612  1.00  0.00     0.164 HD
HETATM   40  O1  UNL     1      -2.981   5.771  -1.495  1.00  0.00    -0.239 OA
HETATM   41  O2  UNL     1      -4.850   5.504  -2.968  1.00  0.00    -0.295 OA
ENDBRANCH  34  35
ENDBRANCH  32  34
ENDBRANCH   4  32
BRANCH   7  42
HETATM   42  N6  UNL     1      -3.231   3.024  -8.434  1.00  0.00    -0.323 N 
HETATM   43  C20 UNL     1      -2.369   3.640  -9.337  1.00  0.00     0.258 C 
HETATM   44  O3  UNL     1      -2.815   4.355 -10.268  1.00  0.00    -0.267 OA
ATOM     45  H6  UNL     1      -2.769   2.470  -7.712  1.00  0.00     0.169 HD
BRANCH  43  46
HETATM   46  C21 UNL     1      -0.911   3.508  -9.277  1.00  0.00     0.056 A 
HETATM   47  C22 UNL     1      -0.134   3.278 -10.370  1.00  0.00     0.019 A 
HETATM   48  C23 UNL     1       1.225   3.162 -10.265  1.00  0.00     0.001 A 
HETATM   49  C24 UNL     1       1.891   3.270  -9.054  1.00  0.00     0.002 A 
HETATM   50  C25 UNL     1       1.093   3.501  -7.957  1.00  0.00     0.027 A 
HETATM   51  C26 UNL     1      -0.282   3.619  -8.061  1.00  0.00     0.062 A 
HETATM   52  N7  UNL     1      -0.990   3.860  -6.853  1.00  0.00    -0.101 NA
ENDBRANCH  43  46
ENDBRANCH   7  42
TORSDOF 18
ENDMDL
