MODEL 1
REMARK VINA RESULT: -5.725516470      0.000      0.000
REMARK  4 active torsions:
REMARK  status: ('A' for Active; 'I' for Inactive)
REMARK    1  A    between atoms: C2_2  and  O1_4 
REMARK    2  A    between atoms: O1_4  and  C4_5 
REMARK    3  A    between atoms: C5_6  and  O2_7 
REMARK    4  A    between atoms: C10_15  and  O4_16 
ROOT
HETATM    1  C4  UNL     1      -4.547   1.952  13.237  1.00  0.00     0.185 C 
HETATM    2  C5  UNL     1      -3.868   0.755  12.681  1.00  0.00     0.178 C 
HETATM    3  C6  UNL     1      -3.714   0.805  11.185  1.00  0.00     0.150 C 
HETATM    4  C7  UNL     1      -3.284  -0.535  10.636  1.00  0.00     0.042 C 
HETATM    5  O3  UNL     1      -4.905   1.139  10.555  1.00  0.00    -0.361 OA
HETATM    6  C8  UNL     1      -5.140   2.493  10.849  1.00  0.00     0.259 C 
HETATM    7  C9  UNL     1      -4.057   3.348  10.394  1.00  0.00     0.094 C 
HETATM    8  N1  UNL     1      -3.197   4.031  10.037  1.00  0.00    -0.194 NA
HETATM    9  C10 UNL     1      -5.398   2.717  12.302  1.00  0.00     0.192 C 
ENDROOT
BRANCH   9  10
HETATM   10  O4  UNL     1      -5.284   4.096  12.552  1.00  0.00    -0.389 OA
ATOM     11  H4  UNL     1      -6.143   4.500  12.574  1.00  0.00     0.210 HD
ENDBRANCH   9  10
BRANCH   1  12
HETATM   12  O1  UNL     1      -5.284   1.535  14.367  1.00  0.00    -0.376 OA
BRANCH  12  13
HETATM   13  C2  UNL     1      -5.038   2.306  15.472  1.00  0.00     0.114 C 
HETATM   14  C1  UNL     1      -6.364   2.684  16.112  1.00  0.00     0.039 C 
HETATM   15  C3  UNL     1      -4.324   1.452  16.513  1.00  0.00     0.039 C 
ENDBRANCH  12  13
ENDBRANCH   1  12
BRANCH   2  16
HETATM   16  O2  UNL     1      -4.514  -0.410  13.102  1.00  0.00    -0.390 OA
ATOM     17  H2  UNL     1      -3.998  -0.854  13.764  1.00  0.00     0.210 HD
ENDBRANCH   2  16
TORSDOF 4
ENDMDL
MODEL 2
REMARK VINA RESULT: -5.724001199      2.093      3.883
REMARK  4 active torsions:
REMARK  status: ('A' for Active; 'I' for Inactive)
REMARK    1  A    between atoms: C2_2  and  O1_4 
REMARK    2  A    between atoms: O1_4  and  C4_5 
REMARK    3  A    between atoms: C5_6  and  O2_7 
REMARK    4  A    between atoms: C10_15  and  O4_16 
ROOT
HETATM    1  C4  UNL     1      -5.917   2.568  14.932  1.00  0.00     0.185 C 
HETATM    2  C5  UNL     1      -6.578   3.869  14.661  1.00  0.00     0.178 C 
HETATM    3  C6  UNL     1      -6.288   4.404  13.286  1.00  0.00     0.150 C 
HETATM    4  C7  UNL     1      -6.737   5.840  13.153  1.00  0.00     0.042 C 
HETATM    5  O3  UNL     1      -4.930   4.375  12.997  1.00  0.00    -0.361 OA
HETATM    6  C8  UNL     1      -4.590   3.021  12.839  1.00  0.00     0.259 C 
HETATM    7  C9  UNL     1      -5.356   2.383  11.782  1.00  0.00     0.094 C 
HETATM    8  N1  UNL     1      -5.965   1.872  10.945  1.00  0.00    -0.194 NA
HETATM    9  C10 UNL     1      -4.729   2.253  14.111  1.00  0.00     0.192 C 
ENDROOT
BRANCH   9  10
HETATM   10  O4  UNL     1      -4.702   0.883  13.793  1.00  0.00    -0.389 OA
ATOM     11  H4  UNL     1      -4.803   0.359  14.579  1.00  0.00     0.210 HD
ENDBRANCH   9  10
BRANCH   1  12
HETATM   12  O1  UNL     1      -5.606   2.529  16.309  1.00  0.00    -0.376 OA
BRANCH  12  13
HETATM   13  C2  UNL     1      -6.436   1.698  17.015  1.00  0.00     0.114 C 
HETATM   14  C1  UNL     1      -5.776   0.335  17.140  1.00  0.00     0.039 C 
HETATM   15  C3  UNL     1      -6.546   2.218  18.443  1.00  0.00     0.039 C 
ENDBRANCH  12  13
ENDBRANCH   1  12
BRANCH   2  16
HETATM   16  O2  UNL     1      -6.262   4.793  15.660  1.00  0.00    -0.390 OA
ATOM     17  H2  UNL     1      -6.795   5.574  15.570  1.00  0.00     0.210 HD
ENDBRANCH   2  16
TORSDOF 4
ENDMDL
MODEL 3
REMARK VINA RESULT: -5.682205083      2.924      3.366
REMARK  4 active torsions:
REMARK  status: ('A' for Active; 'I' for Inactive)
REMARK    1  A    between atoms: C2_2  and  O1_4 
REMARK    2  A    between atoms: O1_4  and  C4_5 
REMARK    3  A    between atoms: C5_6  and  O2_7 
REMARK    4  A    between atoms: C10_15  and  O4_16 
ROOT
HETATM    1  C4  UNL     1      -3.405   3.696  12.768  1.00  0.00     0.185 C 
HETATM    2  C5  UNL     1      -2.312   3.236  11.875  1.00  0.00     0.178 C 
HETATM    3  C6  UNL     1      -2.607   1.918  11.211  1.00  0.00     0.150 C 
HETATM    4  C7  UNL     1      -1.373   1.355  10.546  1.00  0.00     0.042 C 
HETATM    5  O3  UNL     1      -3.046   0.968  12.123  1.00  0.00    -0.361 OA
HETATM    6  C8  UNL     1      -4.334   1.368  12.519  1.00  0.00     0.259 C 
HETATM    7  C9  UNL     1      -5.247   1.463  11.392  1.00  0.00     0.094 C 
HETATM    8  N1  UNL     1      -5.976   1.543  10.500  1.00  0.00    -0.194 NA
HETATM    9  C10 UNL     1      -4.318   2.652  13.279  1.00  0.00     0.192 C 
ENDROOT
BRANCH   9  10
HETATM   10  O4  UNL     1      -5.637   3.137  13.333  1.00  0.00    -0.389 OA
ATOM     11  H4  UNL     1      -6.180   2.692  12.694  1.00  0.00     0.210 HD
ENDBRANCH   9  10
BRANCH   1  12
HETATM   12  O1  UNL     1      -2.812   4.413  13.830  1.00  0.00    -0.376 OA
BRANCH  12  13
HETATM   13  C2  UNL     1      -3.142   5.743  13.819  1.00  0.00     0.114 C 
HETATM   14  C1  UNL     1      -4.191   5.997  14.888  1.00  0.00     0.039 C 
HETATM   15  C3  UNL     1      -1.926   6.550  14.256  1.00  0.00     0.039 C 
ENDBRANCH  12  13
ENDBRANCH   1  12
BRANCH   2  16
HETATM   16  O2  UNL     1      -1.097   3.215  12.564  1.00  0.00    -0.390 OA
ATOM     17  H2  UNL     1      -0.898   2.334  12.859  1.00  0.00     0.210 HD
ENDBRANCH   2  16
TORSDOF 4
ENDMDL
MODEL 4
REMARK VINA RESULT: -5.550111032      1.984      4.495
REMARK  4 active torsions:
REMARK  status: ('A' for Active; 'I' for Inactive)
REMARK    1  A    between atoms: C2_2  and  O1_4 
REMARK    2  A    between atoms: O1_4  and  C4_5 
REMARK    3  A    between atoms: C5_6  and  O2_7 
REMARK    4  A    between atoms: C10_15  and  O4_16 
ROOT
HETATM    1  C4  UNL     1      -3.716   1.784  11.650  1.00  0.00     0.185 C 
HETATM    2  C5  UNL     1      -3.715   3.120  11.004  1.00  0.00     0.178 C 
HETATM    3  C6  UNL     1      -4.230   4.211  11.903  1.00  0.00     0.150 C 
HETATM    4  C7  UNL     1      -4.478   5.484  11.128  1.00  0.00     0.042 C 
HETATM    5  O3  UNL     1      -5.431   3.861  12.503  1.00  0.00    -0.361 OA
HETATM    6  C8  UNL     1      -5.126   2.858  13.440  1.00  0.00     0.259 C 
HETATM    7  C9  UNL     1      -4.166   3.311  14.432  1.00  0.00     0.094 C 
HETATM    8  N1  UNL     1      -3.400   3.665  15.221  1.00  0.00    -0.194 NA
HETATM    9  C10 UNL     1      -4.642   1.606  12.788  1.00  0.00     0.192 C 
ENDROOT
BRANCH   9  10
HETATM   10  O4  UNL     1      -4.052   0.804  13.780  1.00  0.00    -0.389 OA
ATOM     11  H4  UNL     1      -4.715   0.465  14.369  1.00  0.00     0.210 HD
ENDBRANCH   9  10
BRANCH   1  12
HETATM   12  O1  UNL     1      -3.961   0.826  10.642  1.00  0.00    -0.376 OA
BRANCH  12  13
HETATM   13  C2  UNL     1      -2.897  -0.012  10.439  1.00  0.00     0.114 C 
HETATM   14  C1  UNL     1      -1.663   0.595  11.087  1.00  0.00     0.039 C 
HETATM   15  C3  UNL     1      -3.146  -1.310  11.197  1.00  0.00     0.039 C 
ENDBRANCH  12  13
ENDBRANCH   1  12
BRANCH   2  16
HETATM   16  O2  UNL     1      -4.404   3.074   9.789  1.00  0.00    -0.390 OA
ATOM     17  H2  UNL     1      -4.742   2.200   9.634  1.00  0.00     0.210 HD
ENDBRANCH   2  16
TORSDOF 4
ENDMDL
MODEL 5
REMARK VINA RESULT: -5.444507312      1.905      2.795
REMARK  4 active torsions:
REMARK  status: ('A' for Active; 'I' for Inactive)
REMARK    1  A    between atoms: C2_2  and  O1_4 
REMARK    2  A    between atoms: O1_4  and  C4_5 
REMARK    3  A    between atoms: C5_6  and  O2_7 
REMARK    4  A    between atoms: C10_15  and  O4_16 
ROOT
HETATM    1  C4  UNL     1      -5.262   3.142  12.900  1.00  0.00     0.185 C 
HETATM    2  C5  UNL     1      -4.834   2.132  13.898  1.00  0.00     0.178 C 
HETATM    3  C6  UNL     1      -4.301   0.871  13.273  1.00  0.00     0.150 C 
HETATM    4  C7  UNL     1      -4.144  -0.224  14.302  1.00  0.00     0.042 C 
HETATM    5  O3  UNL     1      -5.150   0.385  12.289  1.00  0.00    -0.361 OA
HETATM    6  C8  UNL     1      -5.059   1.283  11.211  1.00  0.00     0.259 C 
HETATM    7  C9  UNL     1      -3.700   1.400  10.709  1.00  0.00     0.094 C 
HETATM    8  N1  UNL     1      -2.622   1.498  10.310  1.00  0.00    -0.194 NA
HETATM    9  C10 UNL     1      -5.599   2.631  11.554  1.00  0.00     0.192 C 
ENDROOT
BRANCH   9  10
HETATM   10  O4  UNL     1      -5.166   3.533  10.565  1.00  0.00    -0.389 OA
ATOM     11  H4  UNL     1      -4.465   3.150  10.052  1.00  0.00     0.210 HD
ENDBRANCH   9  10
BRANCH   1  12
HETATM   12  O1  UNL     1      -6.347   3.855  13.456  1.00  0.00    -0.376 OA
BRANCH  12  13
HETATM   13  C2  UNL     1      -6.023   5.149  13.770  1.00  0.00     0.114 C 
HETATM   14  C1  UNL     1      -7.009   6.081  13.086  1.00  0.00     0.039 C 
HETATM   15  C3  UNL     1      -6.247   5.359  15.262  1.00  0.00     0.039 C 
ENDBRANCH  12  13
ENDBRANCH   1  12
BRANCH   2  16
HETATM   16  O2  UNL     1      -5.867   1.871  14.802  1.00  0.00    -0.390 OA
ATOM     17  H2  UNL     1      -5.695   1.068  15.279  1.00  0.00     0.210 HD
ENDBRANCH   2  16
TORSDOF 4
ENDMDL
