MODEL 1
REMARK VINA RESULT: -6.891061575      0.000      0.000
REMARK  4 active torsions:
REMARK  status: ('A' for Active; 'I' for Inactive)
REMARK    1  A    between atoms: C2_3  and  N2_4 
REMARK    2  A    between atoms: N3_7  and  C5_8 
REMARK    3  A    between atoms: C7_10  and  O1_11 
REMARK    4  A    between atoms: C8_13  and  O2_14 
ROOT
HETATM    1  N1  UNL     1      -7.749   0.760  17.219  1.00  0.00    -0.196 NA
HETATM    2  C1  UNL     1      -6.612   0.930  17.154  1.00  0.00     0.079 C 
HETATM    3  C2  UNL     1      -5.179   1.158  17.053  1.00  0.00     0.256 C 
ENDROOT
BRANCH   3   4
HETATM    4  N2  UNL     1      -4.816   1.643  15.718  1.00  0.00    -0.295 N 
HETATM    5  C3  UNL     1      -4.604   2.922  15.374  1.00  0.00     0.114 A 
HETATM    6  C4  UNL     1      -4.287   2.963  14.045  1.00  0.00     0.113 A 
HETATM    7  N3  UNL     1      -4.305   1.701  13.572  1.00  0.00    -0.303 N 
HETATM    8  C10 UNL     1      -4.626   0.926  14.597  1.00  0.00     0.329 A 
HETATM    9  O3  UNL     1      -4.740  -0.325  14.543  1.00  0.00    -0.246 OA
BRANCH   7  10
HETATM   10  C5  UNL     1      -4.012   1.401  12.196  1.00  0.00     0.099 C 
HETATM   11  C6  UNL     1      -2.736   2.102  11.720  1.00  0.00     0.060 C 
HETATM   12  C7  UNL     1      -2.512   1.395  10.395  1.00  0.00     0.148 C 
HETATM   13  C8  UNL     1      -2.752  -0.046  10.773  1.00  0.00     0.148 C 
HETATM   14  C9  UNL     1      -3.741  -0.035  11.922  1.00  0.00     0.060 C 
BRANCH  12  15
HETATM   15  O1  UNL     1      -1.199   1.544   9.967  1.00  0.00    -0.393 OA
ATOM     16  H1  UNL     1      -0.843   2.379  10.248  1.00  0.00     0.210 HD
ENDBRANCH  12  15
BRANCH  13  17
HETATM   17  O2  UNL     1      -3.262  -0.721   9.660  1.00  0.00    -0.393 OA
ATOM     18  H2  UNL     1      -3.223  -0.141   8.909  1.00  0.00     0.210 HD
ENDBRANCH  13  17
ENDBRANCH   7  10
ENDBRANCH   3   4
TORSDOF 4
ENDMDL
MODEL 2
REMARK VINA RESULT: -6.855718300      1.055      1.055
REMARK  4 active torsions:
REMARK  status: ('A' for Active; 'I' for Inactive)
REMARK    1  A    between atoms: C2_3  and  N2_4 
REMARK    2  A    between atoms: N3_7  and  C5_8 
REMARK    3  A    between atoms: C7_10  and  O1_11 
REMARK    4  A    between atoms: C8_13  and  O2_14 
ROOT
HETATM    1  N1  UNL     1      -7.085   0.340  17.102  1.00  0.00    -0.196 NA
HETATM    2  C1  UNL     1      -6.461   1.278  16.867  1.00  0.00     0.079 C 
HETATM    3  C2  UNL     1      -5.680   2.463  16.548  1.00  0.00     0.256 C 
ENDROOT
BRANCH   3   4
HETATM    4  N2  UNL     1      -5.532   2.622  15.098  1.00  0.00    -0.295 N 
HETATM    5  C3  UNL     1      -6.138   3.549  14.340  1.00  0.00     0.114 A 
HETATM    6  C4  UNL     1      -5.745   3.368  13.044  1.00  0.00     0.113 A 
HETATM    7  N3  UNL     1      -4.893   2.325  13.007  1.00  0.00    -0.303 N 
HETATM    8  C10 UNL     1      -4.782   1.894  14.254  1.00  0.00     0.329 A 
HETATM    9  O3  UNL     1      -4.066   0.926  14.618  1.00  0.00    -0.246 OA
BRANCH   7  10
HETATM   10  C5  UNL     1      -4.294   1.875  11.778  1.00  0.00     0.099 C 
HETATM   11  C6  UNL     1      -2.814   2.261  11.692  1.00  0.00     0.060 C 
HETATM   12  C7  UNL     1      -2.383   1.432  10.494  1.00  0.00     0.148 C 
HETATM   13  C8  UNL     1      -3.031   0.103  10.794  1.00  0.00     0.148 C 
HETATM   14  C9  UNL     1      -4.278   0.399  11.604  1.00  0.00     0.060 C 
BRANCH  12  15
HETATM   15  O1  UNL     1      -1.004   1.275  10.469  1.00  0.00    -0.393 OA
ATOM     16  H1  UNL     1      -0.723   0.868   9.658  1.00  0.00     0.210 HD
ENDBRANCH  12  15
BRANCH  13  17
HETATM   17  O2  UNL     1      -3.339  -0.527   9.585  1.00  0.00    -0.393 OA
ATOM     18  H2  UNL     1      -4.253  -0.785   9.601  1.00  0.00     0.210 HD
ENDBRANCH  13  17
ENDBRANCH   7  10
ENDBRANCH   3   4
TORSDOF 4
ENDMDL
MODEL 3
REMARK VINA RESULT: -6.783356822      1.132      1.892
REMARK  4 active torsions:
REMARK  status: ('A' for Active; 'I' for Inactive)
REMARK    1  A    between atoms: C2_3  and  N2_4 
REMARK    2  A    between atoms: N3_7  and  C5_8 
REMARK    3  A    between atoms: C7_10  and  O1_11 
REMARK    4  A    between atoms: C8_13  and  O2_14 
ROOT
HETATM    1  N1  UNL     1      -7.455   0.755  17.200  1.00  0.00    -0.196 NA
HETATM    2  C1  UNL     1      -7.002   1.744  16.824  1.00  0.00     0.079 C 
HETATM    3  C2  UNL     1      -6.430   2.986  16.327  1.00  0.00     0.256 C 
ENDROOT
BRANCH   3   4
HETATM    4  N2  UNL     1      -5.816   2.793  15.011  1.00  0.00    -0.295 N 
HETATM    5  C3  UNL     1      -6.183   3.402  13.872  1.00  0.00     0.114 A 
HETATM    6  C4  UNL     1      -5.370   2.958  12.866  1.00  0.00     0.113 A 
HETATM    7  N3  UNL     1      -4.501   2.071  13.391  1.00  0.00    -0.303 N 
HETATM    8  C10 UNL     1      -4.790   1.990  14.681  1.00  0.00     0.329 A 
HETATM    9  O3  UNL     1      -4.187   1.257  15.506  1.00  0.00    -0.246 OA
BRANCH   7  10
HETATM   10  C5  UNL     1      -3.505   1.416  12.587  1.00  0.00     0.099 C 
HETATM   11  C6  UNL     1      -4.113   0.313  11.714  1.00  0.00     0.060 C 
HETATM   12  C7  UNL     1      -2.944   0.017  10.791  1.00  0.00     0.148 C 
HETATM   13  C8  UNL     1      -2.481   1.406  10.429  1.00  0.00     0.148 C 
HETATM   14  C9  UNL     1      -2.826   2.300  11.603  1.00  0.00     0.060 C 
BRANCH  12  15
HETATM   15  O1  UNL     1      -3.370  -0.639   9.644  1.00  0.00    -0.393 OA
ATOM     16  H1  UNL     1      -2.660  -1.131   9.250  1.00  0.00     0.210 HD
ENDBRANCH  12  15
BRANCH  13  17
HETATM   17  O2  UNL     1      -1.104   1.372  10.193  1.00  0.00    -0.393 OA
ATOM     18  H2  UNL     1      -0.900   0.586   9.701  1.00  0.00     0.210 HD
ENDBRANCH  13  17
ENDBRANCH   7  10
ENDBRANCH   3   4
TORSDOF 4
ENDMDL
MODEL 4
REMARK VINA RESULT: -6.552218998      1.657      2.162
REMARK  4 active torsions:
REMARK  status: ('A' for Active; 'I' for Inactive)
REMARK    1  A    between atoms: C2_3  and  N2_4 
REMARK    2  A    between atoms: N3_7  and  C5_8 
REMARK    3  A    between atoms: C7_10  and  O1_11 
REMARK    4  A    between atoms: C8_13  and  O2_14 
ROOT
HETATM    1  N1  UNL     1      -6.056  -0.670  17.651  1.00  0.00    -0.196 NA
HETATM    2  C1  UNL     1      -5.997   0.480  17.626  1.00  0.00     0.079 C 
HETATM    3  C2  UNL     1      -5.926   1.931  17.572  1.00  0.00     0.256 C 
ENDROOT
BRANCH   3   4
HETATM    4  N2  UNL     1      -5.729   2.398  16.197  1.00  0.00    -0.295 N 
HETATM    5  C3  UNL     1      -6.452   3.341  15.572  1.00  0.00     0.114 A 
HETATM    6  C4  UNL     1      -5.960   3.491  14.306  1.00  0.00     0.113 A 
HETATM    7  N3  UNL     1      -4.930   2.636  14.153  1.00  0.00    -0.303 N 
HETATM    8  C10 UNL     1      -4.811   1.991  15.304  1.00  0.00     0.329 A 
HETATM    9  O3  UNL     1      -3.951   1.106  15.545  1.00  0.00    -0.246 OA
BRANCH   7  10
HETATM   10  C5  UNL     1      -4.191   2.548  12.922  1.00  0.00     0.099 C 
HETATM   11  C6  UNL     1      -4.081   1.103  12.427  1.00  0.00     0.060 C 
HETATM   12  C7  UNL     1      -3.547   1.333  11.024  1.00  0.00     0.148 C 
HETATM   13  C8  UNL     1      -4.421   2.466  10.546  1.00  0.00     0.148 C 
HETATM   14  C9  UNL     1      -4.813   3.261  11.776  1.00  0.00     0.060 C 
BRANCH  12  15
HETATM   15  O1  UNL     1      -3.761   0.220  10.222  1.00  0.00    -0.393 OA
ATOM     16  H1  UNL     1      -3.045  -0.399  10.302  1.00  0.00     0.210 HD
ENDBRANCH  12  15
BRANCH  13  17
HETATM   17  O2  UNL     1      -3.691   3.243   9.642  1.00  0.00    -0.393 OA
ATOM     18  H2  UNL     1      -4.216   3.375   8.862  1.00  0.00     0.210 HD
ENDBRANCH  13  17
ENDBRANCH   7  10
ENDBRANCH   3   4
TORSDOF 4
ENDMDL
MODEL 5
REMARK VINA RESULT: -6.538042866      2.346      3.545
REMARK  4 active torsions:
REMARK  status: ('A' for Active; 'I' for Inactive)
REMARK    1  A    between atoms: C2_3  and  N2_4 
REMARK    2  A    between atoms: N3_7  and  C5_8 
REMARK    3  A    between atoms: C7_10  and  O1_11 
REMARK    4  A    between atoms: C8_13  and  O2_14 
ROOT
HETATM    1  N1  UNL     1      -3.776   0.760  16.480  1.00  0.00    -0.196 NA
HETATM    2  C1  UNL     1      -4.365   1.281  15.639  1.00  0.00     0.079 C 
HETATM    3  C2  UNL     1      -5.095   1.929  14.561  1.00  0.00     0.256 C 
ENDROOT
BRANCH   3   4
HETATM    4  N2  UNL     1      -4.364   1.829  13.295  1.00  0.00    -0.295 N 
HETATM    5  C3  UNL     1      -4.505   0.861  12.376  1.00  0.00     0.114 A 
HETATM    6  C4  UNL     1      -3.651   1.123  11.342  1.00  0.00     0.113 A 
HETATM    7  N3  UNL     1      -2.982   2.258  11.628  1.00  0.00    -0.303 N 
HETATM    8  C10 UNL     1      -3.429   2.662  12.807  1.00  0.00     0.329 A 
HETATM    9  O3  UNL     1      -3.037   3.696  13.406  1.00  0.00    -0.246 OA
BRANCH   7  10
HETATM   10  C5  UNL     1      -2.000   2.808  10.732  1.00  0.00     0.099 C 
HETATM   11  C6  UNL     1      -1.386   1.732   9.831  1.00  0.00     0.060 C 
HETATM   12  C7  UNL     1      -0.647   2.602   8.829  1.00  0.00     0.148 C 
HETATM   13  C8  UNL     1      -1.678   3.660   8.524  1.00  0.00     0.148 C 
HETATM   14  C9  UNL     1      -2.534   3.804   9.767  1.00  0.00     0.060 C 
BRANCH  12  15
HETATM   15  O1  UNL     1      -0.362   1.892   7.670  1.00  0.00    -0.393 OA
ATOM     16  H1  UNL     1       0.171   2.409   7.078  1.00  0.00     0.210 HD
ENDBRANCH  12  15
BRANCH  13  17
HETATM   17  O2  UNL     1      -1.018   4.852   8.212  1.00  0.00    -0.393 OA
ATOM     18  H2  UNL     1      -1.642   5.566   8.257  1.00  0.00     0.210 HD
ENDBRANCH  13  17
ENDBRANCH   7  10
ENDBRANCH   3   4
TORSDOF 4
ENDMDL
