MODEL 1
REMARK VINA RESULT: -6.763084844      0.000      0.000
REMARK  6 active torsions:
REMARK  status: ('A' for Active; 'I' for Inactive)
REMARK    1  A    between atoms: C1_2  and  C2_4 
REMARK    2  A    between atoms: C2_4  and  N2_5 
REMARK       I    between atoms: N2_5  and  C3_6 
REMARK    3  A    between atoms: C3_6  and  C4_8 
REMARK       I    between atoms: C4_8  and  N3_10 
REMARK    4  A    between atoms: N3_10  and  C5_12 
REMARK    5  A    between atoms: C5_12  and  C6_13 
REMARK    6  A    between atoms: C6_13  and  N4_14 
REMARK       I    between atoms: N4_14  and  C7_16 
REMARK       I    between atoms: C7_16  and  N5_18 
ROOT
HETATM    1  C4  UNL     1      27.478  63.801  11.565  1.00  0.00     0.324 C 
HETATM    2  O3  UNL     1      28.089  63.418  10.546  1.00  0.00    -0.261 OA
HETATM    3  N3  UNL     1      26.404  64.694  11.326  1.00  0.00    -0.350 N 
ATOM      4  H3  UNL     1      25.851  65.036  12.112  1.00  0.00     0.163 HD
ENDROOT
BRANCH   3   5
HETATM    5  C5  UNL     1      26.081  65.125   9.995  1.00  0.00     0.143 C 
BRANCH   5   6
HETATM    6  C6  UNL     1      26.816  66.342   9.567  1.00  0.00     0.144 C 
BRANCH   6   7
HETATM    7  N4  UNL     1      27.901  66.151   8.656  1.00  0.00    -0.341 N 
HETATM    8  C7  UNL     1      29.242  66.363   9.149  1.00  0.00     0.318 C 
HETATM    9  O4  UNL     1      29.329  66.697  10.384  1.00  0.00    -0.247 OA
HETATM   10  N5  UNL     1      30.377  66.209   8.374  1.00  0.00    -0.334 N 
HETATM   11  C8  UNL     1      31.751  66.298   8.910  1.00  0.00     0.127 C 
HETATM   12  C11 UNL     1      30.529  66.004   6.929  1.00  0.00     0.127 C 
HETATM   13  C9  UNL     1      32.606  66.749   7.751  1.00  0.00     0.022 C 
HETATM   14  C10 UNL     1      31.569  67.141   6.687  1.00  0.00     0.022 C 
ATOM     15  H4  UNL     1      27.734  65.874   7.688  1.00  0.00     0.164 HD
ENDBRANCH   6   7
ENDBRANCH   5   6
ENDBRANCH   3   5
BRANCH   1  16
HETATM   16  C3  UNL     1      27.779  63.380  12.940  1.00  0.00     0.383 C 
HETATM   17  N2  UNL     1      27.633  64.338  14.080  1.00  0.00    -0.370 NA
HETATM   18  O2  UNL     1      28.162  62.194  13.053  1.00  0.00    -0.246 OA
BRANCH  17  19
HETATM   19  C2  UNL     1      27.516  65.114  15.004  1.00  0.00     0.257 C 
BRANCH  19  20
HETATM   20  C1  UNL     1      26.258  65.092  15.911  1.00  0.00     0.283 C 
HETATM   21  N1  UNL     1      26.313  65.109  17.302  1.00  0.00    -0.056 NA
HETATM   22  O1  UNL     1      25.172  65.055  15.326  1.00  0.00    -0.269 OA
ENDBRANCH  19  20
ENDBRANCH  17  19
ENDBRANCH   1  16
TORSDOF 6
ENDMDL
MODEL 2
REMARK VINA RESULT: -6.721365480      2.044      3.081
REMARK  6 active torsions:
REMARK  status: ('A' for Active; 'I' for Inactive)
REMARK    1  A    between atoms: C1_2  and  C2_4 
REMARK    2  A    between atoms: C2_4  and  N2_5 
REMARK       I    between atoms: N2_5  and  C3_6 
REMARK    3  A    between atoms: C3_6  and  C4_8 
REMARK       I    between atoms: C4_8  and  N3_10 
REMARK    4  A    between atoms: N3_10  and  C5_12 
REMARK    5  A    between atoms: C5_12  and  C6_13 
REMARK    6  A    between atoms: C6_13  and  N4_14 
REMARK       I    between atoms: N4_14  and  C7_16 
REMARK       I    between atoms: C7_16  and  N5_18 
ROOT
HETATM    1  C4  UNL     1      24.438  64.685  10.823  1.00  0.00     0.324 C 
HETATM    2  O3  UNL     1      23.441  65.335  10.450  1.00  0.00    -0.261 OA
HETATM    3  N3  UNL     1      25.466  64.546   9.857  1.00  0.00    -0.350 N 
ATOM      4  H3  UNL     1      26.318  64.039  10.099  1.00  0.00     0.163 HD
ENDROOT
BRANCH   3   5
HETATM    5  C5  UNL     1      25.328  65.108   8.543  1.00  0.00     0.143 C 
BRANCH   5   6
HETATM    6  C6  UNL     1      26.150  66.324   8.324  1.00  0.00     0.144 C 
BRANCH   6   7
HETATM    7  N4  UNL     1      27.443  66.130   7.744  1.00  0.00    -0.341 N 
HETATM    8  C7  UNL     1      28.597  66.290   8.599  1.00  0.00     0.318 C 
HETATM    9  O4  UNL     1      28.341  66.584   9.821  1.00  0.00    -0.247 OA
HETATM   10  N5  UNL     1      29.900  66.128   8.166  1.00  0.00    -0.334 N 
HETATM   11  C8  UNL     1      31.071  66.162   9.067  1.00  0.00     0.127 C 
HETATM   12  C11 UNL     1      30.445  65.963   6.814  1.00  0.00     0.127 C 
HETATM   13  C9  UNL     1      32.223  66.625   8.209  1.00  0.00     0.022 C 
HETATM   14  C10 UNL     1      31.533  67.078   6.914  1.00  0.00     0.022 C 
ATOM     15  H4  UNL     1      27.548  65.888   6.759  1.00  0.00     0.164 HD
ENDBRANCH   6   7
ENDBRANCH   5   6
ENDBRANCH   3   5
BRANCH   1  16
HETATM   16  C3  UNL     1      24.615  64.099  12.159  1.00  0.00     0.383 C 
HETATM   17  N2  UNL     1      25.973  63.701  12.643  1.00  0.00    -0.370 NA
HETATM   18  O2  UNL     1      23.558  63.963  12.816  1.00  0.00    -0.246 OA
BRANCH  17  19
HETATM   19  C2  UNL     1      27.074  63.379  13.036  1.00  0.00     0.257 C 
BRANCH  19  20
HETATM   20  C1  UNL     1      28.340  63.657  12.184  1.00  0.00     0.283 C 
HETATM   21  N1  UNL     1      28.397  63.464  10.807  1.00  0.00    -0.056 NA
HETATM   22  O1  UNL     1      29.326  64.067  12.802  1.00  0.00    -0.269 OA
ENDBRANCH  19  20
ENDBRANCH  17  19
ENDBRANCH   1  16
TORSDOF 6
ENDMDL
MODEL 3
REMARK VINA RESULT: -6.698722973      2.302      7.014
REMARK  6 active torsions:
REMARK  status: ('A' for Active; 'I' for Inactive)
REMARK    1  A    between atoms: C1_2  and  C2_4 
REMARK    2  A    between atoms: C2_4  and  N2_5 
REMARK       I    between atoms: N2_5  and  C3_6 
REMARK    3  A    between atoms: C3_6  and  C4_8 
REMARK       I    between atoms: C4_8  and  N3_10 
REMARK    4  A    between atoms: N3_10  and  C5_12 
REMARK    5  A    between atoms: C5_12  and  C6_13 
REMARK    6  A    between atoms: C6_13  and  N4_14 
REMARK       I    between atoms: N4_14  and  C7_16 
REMARK       I    between atoms: C7_16  and  N5_18 
ROOT
HETATM    1  C4  UNL     1      28.880  65.932  10.870  1.00  0.00     0.324 C 
HETATM    2  O3  UNL     1      27.973  66.640  11.353  1.00  0.00    -0.261 OA
HETATM    3  N3  UNL     1      29.456  64.995  11.762  1.00  0.00    -0.350 N 
ATOM      4  H3  UNL     1      30.194  64.373  11.430  1.00  0.00     0.163 HD
ENDROOT
BRANCH   3   5
HETATM    5  C5  UNL     1      29.021  64.906  13.127  1.00  0.00     0.143 C 
BRANCH   5   6
HETATM    6  C6  UNL     1      27.956  63.896  13.349  1.00  0.00     0.144 C 
BRANCH   6   7
HETATM    7  N4  UNL     1      26.738  64.074  12.622  1.00  0.00    -0.341 N 
HETATM    8  C7  UNL     1      26.541  63.281  11.430  1.00  0.00     0.318 C 
HETATM    9  O4  UNL     1      27.492  62.471  11.144  1.00  0.00    -0.247 OA
HETATM   10  N5  UNL     1      25.408  63.354  10.640  1.00  0.00    -0.334 N 
HETATM   11  C8  UNL     1      25.149  62.452   9.499  1.00  0.00     0.127 C 
HETATM   12  C11 UNL     1      24.286  64.298  10.661  1.00  0.00     0.127 C 
HETATM   13  C9  UNL     1      24.268  63.237   8.559  1.00  0.00     0.022 C 
HETATM   14  C10 UNL     1      24.316  64.658   9.142  1.00  0.00     0.022 C 
ATOM     15  H4  UNL     1      26.031  64.740  12.934  1.00  0.00     0.164 HD
ENDBRANCH   6   7
ENDBRANCH   5   6
ENDBRANCH   3   5
BRANCH   1  16
HETATM   16  C3  UNL     1      29.350  65.993   9.479  1.00  0.00     0.383 C 
HETATM   17  N2  UNL     1      30.794  66.236   9.172  1.00  0.00    -0.370 NA
HETATM   18  O2  UNL     1      28.456  65.839   8.616  1.00  0.00    -0.246 OA
BRANCH  17  19
HETATM   19  C2  UNL     1      31.964  66.433   8.923  1.00  0.00     0.257 C 
BRANCH  19  20
HETATM   20  C1  UNL     1      32.439  66.693   7.469  1.00  0.00     0.283 C 
HETATM   21  N1  UNL     1      31.621  67.227   6.478  1.00  0.00    -0.056 NA
HETATM   22  O1  UNL     1      33.611  66.394   7.224  1.00  0.00    -0.269 OA
ENDBRANCH  19  20
ENDBRANCH  17  19
ENDBRANCH   1  16
TORSDOF 6
ENDMDL
MODEL 4
REMARK VINA RESULT: -6.667169616      2.035      2.401
REMARK  6 active torsions:
REMARK  status: ('A' for Active; 'I' for Inactive)
REMARK    1  A    between atoms: C1_2  and  C2_4 
REMARK    2  A    between atoms: C2_4  and  N2_5 
REMARK       I    between atoms: N2_5  and  C3_6 
REMARK    3  A    between atoms: C3_6  and  C4_8 
REMARK       I    between atoms: C4_8  and  N3_10 
REMARK    4  A    between atoms: N3_10  and  C5_12 
REMARK    5  A    between atoms: C5_12  and  C6_13 
REMARK    6  A    between atoms: C6_13  and  N4_14 
REMARK       I    between atoms: N4_14  and  C7_16 
REMARK       I    between atoms: C7_16  and  N5_18 
ROOT
HETATM    1  C4  UNL     1      25.739  63.552  10.405  1.00  0.00     0.324 C 
HETATM    2  O3  UNL     1      26.176  62.715   9.589  1.00  0.00    -0.261 OA
HETATM    3  N3  UNL     1      25.326  64.786   9.843  1.00  0.00    -0.350 N 
ATOM      4  H3  UNL     1      24.944  65.511  10.451  1.00  0.00     0.163 HD
ENDROOT
BRANCH   3   5
HETATM    5  C5  UNL     1      25.435  65.032   8.433  1.00  0.00     0.143 C 
BRANCH   5   6
HETATM    6  C6  UNL     1      26.177  66.273   8.100  1.00  0.00     0.144 C 
BRANCH   6   7
HETATM    7  N4  UNL     1      27.502  66.113   7.585  1.00  0.00    -0.341 N 
HETATM    8  C7  UNL     1      28.604  66.216   8.513  1.00  0.00     0.318 C 
HETATM    9  O4  UNL     1      28.279  66.433   9.734  1.00  0.00    -0.247 OA
HETATM   10  N5  UNL     1      29.930  66.078   8.146  1.00  0.00    -0.334 N 
HETATM   11  C8  UNL     1      31.047  66.052   9.113  1.00  0.00     0.127 C 
HETATM   12  C11 UNL     1      30.553  65.996   6.820  1.00  0.00     0.127 C 
HETATM   13  C9  UNL     1      32.247  66.564   8.354  1.00  0.00     0.022 C 
HETATM   14  C10 UNL     1      31.632  67.099   7.052  1.00  0.00     0.022 C 
ATOM     15  H4  UNL     1      27.663  65.932   6.594  1.00  0.00     0.164 HD
ENDBRANCH   6   7
ENDBRANCH   5   6
ENDBRANCH   3   5
BRANCH   1  16
HETATM   16  C3  UNL     1      25.611  63.335  11.852  1.00  0.00     0.383 C 
HETATM   17  N2  UNL     1      26.792  63.498  12.756  1.00  0.00    -0.370 NA
HETATM   18  O2  UNL     1      24.465  63.004  12.233  1.00  0.00    -0.246 OA
BRANCH  17  19
HETATM   19  C2  UNL     1      27.749  63.630  13.488  1.00  0.00     0.257 C 
BRANCH  19  20
HETATM   20  C1  UNL     1      28.863  64.662  13.169  1.00  0.00     0.283 C 
HETATM   21  N1  UNL     1      29.193  65.721  14.010  1.00  0.00    -0.056 NA
HETATM   22  O1  UNL     1      29.460  64.496  12.102  1.00  0.00    -0.269 OA
ENDBRANCH  19  20
ENDBRANCH  17  19
ENDBRANCH   1  16
TORSDOF 6
ENDMDL
MODEL 5
REMARK VINA RESULT: -6.631647870      1.749      1.966
REMARK  6 active torsions:
REMARK  status: ('A' for Active; 'I' for Inactive)
REMARK    1  A    between atoms: C1_2  and  C2_4 
REMARK    2  A    between atoms: C2_4  and  N2_5 
REMARK       I    between atoms: N2_5  and  C3_6 
REMARK    3  A    between atoms: C3_6  and  C4_8 
REMARK       I    between atoms: C4_8  and  N3_10 
REMARK    4  A    between atoms: N3_10  and  C5_12 
REMARK    5  A    between atoms: C5_12  and  C6_13 
REMARK    6  A    between atoms: C6_13  and  N4_14 
REMARK       I    between atoms: N4_14  and  C7_16 
REMARK       I    between atoms: C7_16  and  N5_18 
ROOT
HETATM    1  C4  UNL     1      27.511  63.824  11.403  1.00  0.00     0.324 C 
HETATM    2  O3  UNL     1      27.636  63.043  10.437  1.00  0.00    -0.261 OA
HETATM    3  N3  UNL     1      26.666  64.938  11.173  1.00  0.00    -0.350 N 
ATOM      4  H3  UNL     1      26.506  65.610  11.925  1.00  0.00     0.163 HD
ENDROOT
BRANCH   3   5
HETATM    5  C5  UNL     1      26.033  65.138   9.901  1.00  0.00     0.143 C 
BRANCH   5   6
HETATM    6  C6  UNL     1      26.540  66.321   9.161  1.00  0.00     0.144 C 
BRANCH   6   7
HETATM    7  N4  UNL     1      27.685  66.118   8.329  1.00  0.00    -0.341 N 
HETATM    8  C7  UNL     1      28.988  66.369   8.900  1.00  0.00     0.318 C 
HETATM    9  O4  UNL     1      28.990  66.745  10.126  1.00  0.00    -0.247 OA
HETATM   10  N5  UNL     1      30.173  66.208   8.206  1.00  0.00    -0.334 N 
HETATM   11  C8  UNL     1      31.508  66.336   8.826  1.00  0.00     0.127 C 
HETATM   12  C11 UNL     1      30.421  65.957   6.782  1.00  0.00     0.127 C 
HETATM   13  C9  UNL     1      32.429  66.763   7.710  1.00  0.00     0.022 C 
HETATM   14  C10 UNL     1      31.459  67.103   6.569  1.00  0.00     0.022 C 
ATOM     15  H4  UNL     1      27.585  65.806   7.363  1.00  0.00     0.164 HD
ENDBRANCH   6   7
ENDBRANCH   5   6
ENDBRANCH   3   5
BRANCH   1  16
HETATM   16  C3  UNL     1      28.141  63.650  12.719  1.00  0.00     0.383 C 
HETATM   17  N2  UNL     1      28.711  64.822  13.452  1.00  0.00    -0.370 NA
HETATM   18  O2  UNL     1      28.161  62.471  13.139  1.00  0.00    -0.246 OA
BRANCH  17  19
HETATM   19  C2  UNL     1      29.173  65.773  14.047  1.00  0.00     0.257 C 
BRANCH  19  20
HETATM   20  C1  UNL     1      28.705  67.218  13.731  1.00  0.00     0.283 C 
HETATM   21  N1  UNL     1      27.493  67.515  13.114  1.00  0.00    -0.056 NA
HETATM   22  O1  UNL     1      29.480  68.119  14.060  1.00  0.00    -0.269 OA
ENDBRANCH  19  20
ENDBRANCH  17  19
ENDBRANCH   1  16
TORSDOF 6
ENDMDL
