MODEL 1
REMARK VINA RESULT: -6.236237785      0.000      0.000
REMARK  8 active torsions:
REMARK  status: ('A' for Active; 'I' for Inactive)
REMARK       I    between atoms: C2_2  and  N1_4 
REMARK    1  A    between atoms: N1_4  and  C3_6 
REMARK    2  A    between atoms: C3_6  and  C4_7 
REMARK    3  A    between atoms: C3_6  and  C12_22 
REMARK       I    between atoms: C4_7  and  N2_9 
REMARK    4  A    between atoms: N2_9  and  C5_11 
REMARK    5  A    between atoms: C5_11  and  C7_13 
REMARK    6  A    between atoms: C7_13  and  N3_14 
REMARK    7  A    between atoms: C7_13  and  C11_19 
REMARK    8  A    between atoms: N3_14  and  C8_16 
ROOT
HETATM    1  C4  UNL     1      -0.676   6.796   1.973  1.00  0.00     0.241 C 
HETATM    2  O2  UNL     1      -0.061   7.434   1.071  1.00  0.00    -0.271 OA
HETATM    3  N2  UNL     1      -0.818   7.348   3.268  1.00  0.00    -0.353 N 
ATOM      4  H2  UNL     1      -1.315   6.819   3.986  1.00  0.00     0.163 HD
ENDROOT
BRANCH   1   5
HETATM    5  C3  UNL     1      -1.228   5.466   1.602  1.00  0.00     0.180 C 
BRANCH   5   6
HETATM    6  N1  UNL     1      -2.632   5.559   1.377  1.00  0.00    -0.348 N 
HETATM    7  C2  UNL     1      -3.226   5.983   0.163  1.00  0.00     0.214 C 
HETATM    8  C1  UNL     1      -4.701   6.055   0.007  1.00  0.00     0.117 C 
HETATM    9  O1  UNL     1      -2.520   6.311  -0.815  1.00  0.00    -0.274 OA
ATOM     10  H1  UNL     1      -3.253   5.303   2.144  1.00  0.00     0.163 HD
ENDBRANCH   5   6
BRANCH   5  11
HETATM   11  C12 UNL     1      -0.933   4.517   2.765  1.00  0.00     0.018 C 
HETATM   12  C13 UNL     1       0.298   3.687   2.452  1.00  0.00     0.007 C 
HETATM   13  C14 UNL     1       0.677   2.866   3.650  1.00  0.00     0.000 C 
HETATM   14  C15 UNL     1      -0.473   2.183   4.308  1.00  0.00     0.000 C 
HETATM   15  C16 UNL     1      -1.656   2.236   3.352  1.00  0.00     0.000 C 
HETATM   16  C17 UNL     1      -2.104   3.660   3.113  1.00  0.00     0.007 C 
ENDBRANCH   5  11
ENDBRANCH   1   5
BRANCH   3  17
HETATM   17  C5  UNL     1      -0.281   8.629   3.588  1.00  0.00     0.111 C 
HETATM   18  C6  UNL     1       1.120   8.499   4.055  1.00  0.00     0.034 C 
BRANCH  17  19
HETATM   19  C7  UNL     1      -1.163   9.490   4.409  1.00  0.00     0.189 C 
BRANCH  19  20
HETATM   20  N3  UNL     1      -1.514   9.120   5.704  1.00  0.00    -0.405 N 
ATOM     21  H3  UNL     1      -2.148   8.336   5.855  1.00  0.00     0.154 HD
BRANCH  20  22
HETATM   22  C8  UNL     1      -0.996   9.824   6.805  1.00  0.00     0.069 C 
HETATM   23  C9  UNL     1      -1.977  10.792   7.468  1.00  0.00     0.031 C 
HETATM   24  C10 UNL     1      -0.553   8.873   7.926  1.00  0.00     0.031 C 
ENDBRANCH  20  22
ENDBRANCH  19  20
BRANCH  19  25
HETATM   25  C11 UNL     1      -2.413   9.850   3.667  1.00  0.00     0.255 C 
HETATM   26  N4  UNL     1      -2.357   9.989   2.261  1.00  0.00    -0.060 NA
HETATM   27  O3  UNL     1      -3.517  10.036   4.239  1.00  0.00    -0.275 OA
ENDBRANCH  19  25
ENDBRANCH  17  19
ENDBRANCH   3  17
TORSDOF 8
ENDMDL
MODEL 2
REMARK VINA RESULT: -6.022187108      2.564      6.661
REMARK  8 active torsions:
REMARK  status: ('A' for Active; 'I' for Inactive)
REMARK       I    between atoms: C2_2  and  N1_4 
REMARK    1  A    between atoms: N1_4  and  C3_6 
REMARK    2  A    between atoms: C3_6  and  C4_7 
REMARK    3  A    between atoms: C3_6  and  C12_22 
REMARK       I    between atoms: C4_7  and  N2_9 
REMARK    4  A    between atoms: N2_9  and  C5_11 
REMARK    5  A    between atoms: C5_11  and  C7_13 
REMARK    6  A    between atoms: C7_13  and  N3_14 
REMARK    7  A    between atoms: C7_13  and  C11_19 
REMARK    8  A    between atoms: N3_14  and  C8_16 
ROOT
HETATM    1  C4  UNL     1      -1.793   6.080   0.706  1.00  0.00     0.241 C 
HETATM    2  O2  UNL     1      -0.771   6.125  -0.039  1.00  0.00    -0.271 OA
HETATM    3  N2  UNL     1      -3.083   6.280   0.160  1.00  0.00    -0.353 N 
ATOM      4  H2  UNL     1      -3.898   6.244   0.774  1.00  0.00     0.163 HD
ENDROOT
BRANCH   1   5
HETATM    5  C3  UNL     1      -1.565   5.810   2.150  1.00  0.00     0.180 C 
BRANCH   5   6
HETATM    6  N1  UNL     1      -0.487   6.605   2.636  1.00  0.00    -0.348 N 
HETATM    7  C2  UNL     1      -0.628   7.900   3.191  1.00  0.00     0.214 C 
HETATM    8  C1  UNL     1       0.547   8.666   3.676  1.00  0.00     0.117 C 
HETATM    9  O1  UNL     1      -1.754   8.436   3.288  1.00  0.00    -0.274 OA
ATOM     10  H1  UNL     1       0.453   6.214   2.581  1.00  0.00     0.163 HD
ENDBRANCH   5   6
BRANCH   5  11
HETATM   11  C12 UNL     1      -1.237   4.322   2.283  1.00  0.00     0.018 C 
HETATM   12  C13 UNL     1      -1.992   3.733   3.461  1.00  0.00     0.007 C 
HETATM   13  C14 UNL     1      -1.791   2.246   3.502  1.00  0.00     0.000 C 
HETATM   14  C15 UNL     1      -0.378   1.817   3.296  1.00  0.00     0.000 C 
HETATM   15  C16 UNL     1       0.509   3.041   3.457  1.00  0.00     0.000 C 
HETATM   16  C17 UNL     1       0.230   4.068   2.383  1.00  0.00     0.007 C 
ENDBRANCH   5  11
ENDBRANCH   1   5
BRANCH   3  17
HETATM   17  C5  UNL     1      -3.265   6.531  -1.231  1.00  0.00     0.111 C 
HETATM   18  C6  UNL     1      -3.068   7.969  -1.527  1.00  0.00     0.034 C 
BRANCH  17  19
HETATM   19  C7  UNL     1      -4.468   5.904  -1.828  1.00  0.00     0.189 C 
BRANCH  19  20
HETATM   20  N3  UNL     1      -4.964   6.340  -3.053  1.00  0.00    -0.405 N 
ATOM     21  H3  UNL     1      -4.737   7.276  -3.389  1.00  0.00     0.154 HD
BRANCH  20  22
HETATM   22  C8  UNL     1      -5.779   5.495  -3.827  1.00  0.00     0.069 C 
HETATM   23  C9  UNL     1      -6.099   6.019  -5.228  1.00  0.00     0.031 C 
HETATM   24  C10 UNL     1      -5.119   4.127  -4.053  1.00  0.00     0.031 C 
ENDBRANCH  20  22
ENDBRANCH  19  20
BRANCH  19  25
HETATM   25  C11 UNL     1      -5.600   5.861  -0.848  1.00  0.00     0.255 C 
HETATM   26  N4  UNL     1      -6.246   7.068  -0.498  1.00  0.00    -0.060 NA
HETATM   27  O3  UNL     1      -6.004   4.794  -0.319  1.00  0.00    -0.275 OA
ENDBRANCH  19  25
ENDBRANCH  17  19
ENDBRANCH   3  17
TORSDOF 8
ENDMDL
MODEL 3
REMARK VINA RESULT: -5.997629470      2.353      6.068
REMARK  8 active torsions:
REMARK  status: ('A' for Active; 'I' for Inactive)
REMARK       I    between atoms: C2_2  and  N1_4 
REMARK    1  A    between atoms: N1_4  and  C3_6 
REMARK    2  A    between atoms: C3_6  and  C4_7 
REMARK    3  A    between atoms: C3_6  and  C12_22 
REMARK       I    between atoms: C4_7  and  N2_9 
REMARK    4  A    between atoms: N2_9  and  C5_11 
REMARK    5  A    between atoms: C5_11  and  C7_13 
REMARK    6  A    between atoms: C7_13  and  N3_14 
REMARK    7  A    between atoms: C7_13  and  C11_19 
REMARK    8  A    between atoms: N3_14  and  C8_16 
ROOT
HETATM    1  C4  UNL     1      -2.213   6.128   1.340  1.00  0.00     0.241 C 
HETATM    2  O2  UNL     1      -1.525   5.927   0.298  1.00  0.00    -0.271 OA
HETATM    3  N2  UNL     1      -3.522   6.656   1.240  1.00  0.00    -0.353 N 
ATOM      4  H2  UNL     1      -4.064   6.816   2.090  1.00  0.00     0.163 HD
ENDROOT
BRANCH   1   5
HETATM    5  C3  UNL     1      -1.583   5.785   2.642  1.00  0.00     0.180 C 
BRANCH   5   6
HETATM    6  N1  UNL     1      -0.404   6.560   2.840  1.00  0.00    -0.348 N 
HETATM    7  C2  UNL     1      -0.379   7.858   3.406  1.00  0.00     0.214 C 
HETATM    8  C1  UNL     1       0.893   8.603   3.578  1.00  0.00     0.117 C 
HETATM    9  O1  UNL     1      -1.436   8.414   3.780  1.00  0.00    -0.274 OA
ATOM     10  H1  UNL     1       0.485   6.152   2.552  1.00  0.00     0.163 HD
ENDBRANCH   5   6
BRANCH   5  11
HETATM   11  C12 UNL     1      -1.244   4.294   2.599  1.00  0.00     0.018 C 
HETATM   12  C13 UNL     1      -1.934   3.576   3.745  1.00  0.00     0.007 C 
HETATM   13  C14 UNL     1      -1.727   2.095   3.616  1.00  0.00     0.000 C 
HETATM   14  C15 UNL     1      -0.325   1.703   3.293  1.00  0.00     0.000 C 
HETATM   15  C16 UNL     1       0.566   2.911   3.538  1.00  0.00     0.000 C 
HETATM   16  C17 UNL     1       0.227   4.043   2.595  1.00  0.00     0.007 C 
ENDBRANCH   5  11
ENDBRANCH   1   5
BRANCH   3  17
HETATM   17  C5  UNL     1      -4.097   6.969  -0.026  1.00  0.00     0.111 C 
HETATM   18  C6  UNL     1      -4.015   8.425  -0.286  1.00  0.00     0.034 C 
BRANCH  17  19
HETATM   19  C7  UNL     1      -5.410   6.334  -0.291  1.00  0.00     0.189 C 
BRANCH  19  20
HETATM   20  N3  UNL     1      -6.152   6.678  -1.416  1.00  0.00    -0.405 N 
ATOM     21  H3  UNL     1      -6.871   7.398  -1.351  1.00  0.00     0.154 HD
BRANCH  20  22
HETATM   22  C8  UNL     1      -5.914   6.036  -2.644  1.00  0.00     0.069 C 
HETATM   23  C9  UNL     1      -4.823   6.677  -3.503  1.00  0.00     0.031 C 
HETATM   24  C10 UNL     1      -5.462   4.583  -2.443  1.00  0.00     0.031 C 
ENDBRANCH  20  22
ENDBRANCH  19  20
BRANCH  19  25
HETATM   25  C11 UNL     1      -6.304   6.418   0.907  1.00  0.00     0.255 C 
HETATM   26  N4  UNL     1      -7.328   5.455   1.064  1.00  0.00    -0.060 NA
HETATM   27  O3  UNL     1      -6.186   7.310   1.786  1.00  0.00    -0.275 OA
ENDBRANCH  19  25
ENDBRANCH  17  19
ENDBRANCH   3  17
TORSDOF 8
ENDMDL
MODEL 4
REMARK VINA RESULT: -5.824898865      2.376      5.784
REMARK  8 active torsions:
REMARK  status: ('A' for Active; 'I' for Inactive)
REMARK       I    between atoms: C2_2  and  N1_4 
REMARK    1  A    between atoms: N1_4  and  C3_6 
REMARK    2  A    between atoms: C3_6  and  C4_7 
REMARK    3  A    between atoms: C3_6  and  C12_22 
REMARK       I    between atoms: C4_7  and  N2_9 
REMARK    4  A    between atoms: N2_9  and  C5_11 
REMARK    5  A    between atoms: C5_11  and  C7_13 
REMARK    6  A    between atoms: C7_13  and  N3_14 
REMARK    7  A    between atoms: C7_13  and  C11_19 
REMARK    8  A    between atoms: N3_14  and  C8_16 
ROOT
HETATM    1  C4  UNL     1      -2.152   6.039   1.172  1.00  0.00     0.241 C 
HETATM    2  O2  UNL     1      -1.390   5.885   0.175  1.00  0.00    -0.271 OA
HETATM    3  N2  UNL     1      -3.486   6.475   0.991  1.00  0.00    -0.353 N 
ATOM      4  H2  UNL     1      -4.088   6.598   1.806  1.00  0.00     0.163 HD
ENDROOT
BRANCH   1   5
HETATM    5  C3  UNL     1      -1.581   5.741   2.512  1.00  0.00     0.180 C 
BRANCH   5   6
HETATM    6  N1  UNL     1      -0.418   6.533   2.739  1.00  0.00    -0.348 N 
HETATM    7  C2  UNL     1      -0.421   7.810   3.353  1.00  0.00     0.214 C 
HETATM    8  C1  UNL     1       0.835   8.574   3.554  1.00  0.00     0.117 C 
HETATM    9  O1  UNL     1      -1.489   8.329   3.744  1.00  0.00    -0.274 OA
ATOM     10  H1  UNL     1       0.480   6.154   2.439  1.00  0.00     0.163 HD
ENDBRANCH   5   6
BRANCH   5  11
HETATM   11  C12 UNL     1      -1.228   4.253   2.529  1.00  0.00     0.018 C 
HETATM   12  C13 UNL     1      -1.942   3.568   3.680  1.00  0.00     0.007 C 
HETATM   13  C14 UNL     1      -1.719   2.086   3.609  1.00  0.00     0.000 C 
HETATM   14  C15 UNL     1      -0.306   1.696   3.337  1.00  0.00     0.000 C 
HETATM   15  C16 UNL     1       0.568   2.920   3.564  1.00  0.00     0.000 C 
HETATM   16  C17 UNL     1       0.245   4.016   2.574  1.00  0.00     0.007 C 
ENDBRANCH   5  11
ENDBRANCH   1   5
BRANCH   3  17
HETATM   17  C5  UNL     1      -4.004   6.746  -0.310  1.00  0.00     0.111 C 
HETATM   18  C6  UNL     1      -3.668   8.130  -0.721  1.00  0.00     0.034 C 
BRANCH  17  19
HETATM   19  C7  UNL     1      -5.409   6.327  -0.524  1.00  0.00     0.189 C 
BRANCH  19  20
HETATM   20  N3  UNL     1      -6.234   6.030   0.556  1.00  0.00    -0.405 N 
ATOM     21  H3  UNL     1      -6.221   5.096   0.965  1.00  0.00     0.154 HD
BRANCH  20  22
HETATM   22  C8  UNL     1      -7.087   7.015   1.086  1.00  0.00     0.069 C 
HETATM   23  C9  UNL     1      -7.274   8.247   0.199  1.00  0.00     0.031 C 
HETATM   24  C10 UNL     1      -8.504   6.470   1.317  1.00  0.00     0.031 C 
ENDBRANCH  20  22
ENDBRANCH  19  20
BRANCH  19  25
HETATM   25  C11 UNL     1      -5.495   5.202  -1.507  1.00  0.00     0.255 C 
HETATM   26  N4  UNL     1      -5.038   5.412  -2.828  1.00  0.00    -0.060 NA
HETATM   27  O3  UNL     1      -5.959   4.071  -1.211  1.00  0.00    -0.275 OA
ENDBRANCH  19  25
ENDBRANCH  17  19
ENDBRANCH   3  17
TORSDOF 8
ENDMDL
MODEL 5
REMARK VINA RESULT: -5.757583127      1.077      1.253
REMARK  8 active torsions:
REMARK  status: ('A' for Active; 'I' for Inactive)
REMARK       I    between atoms: C2_2  and  N1_4 
REMARK    1  A    between atoms: N1_4  and  C3_6 
REMARK    2  A    between atoms: C3_6  and  C4_7 
REMARK    3  A    between atoms: C3_6  and  C12_22 
REMARK       I    between atoms: C4_7  and  N2_9 
REMARK    4  A    between atoms: N2_9  and  C5_11 
REMARK    5  A    between atoms: C5_11  and  C7_13 
REMARK    6  A    between atoms: C7_13  and  N3_14 
REMARK    7  A    between atoms: C7_13  and  C11_19 
REMARK    8  A    between atoms: N3_14  and  C8_16 
ROOT
HETATM    1  C4  UNL     1      -0.612   6.668   1.859  1.00  0.00     0.241 C 
HETATM    2  O2  UNL     1       0.053   7.141   0.893  1.00  0.00    -0.271 OA
HETATM    3  N2  UNL     1      -0.662   7.355   3.096  1.00  0.00    -0.353 N 
ATOM      4  H2  UNL     1      -1.200   6.960   3.867  1.00  0.00     0.163 HD
ENDROOT
BRANCH   1   5
HETATM    5  C3  UNL     1      -1.320   5.382   1.627  1.00  0.00     0.180 C 
BRANCH   5   6
HETATM    6  N1  UNL     1      -2.727   5.597   1.561  1.00  0.00    -0.348 N 
HETATM    7  C2  UNL     1      -3.423   6.024   0.404  1.00  0.00     0.214 C 
HETATM    8  C1  UNL     1      -4.893   6.227   0.417  1.00  0.00     0.117 C 
HETATM    9  O1  UNL     1      -2.813   6.243  -0.666  1.00  0.00    -0.274 OA
ATOM     10  H1  UNL     1      -3.272   5.433   2.408  1.00  0.00     0.163 HD
ENDBRANCH   5   6
BRANCH   5  11
HETATM   11  C12 UNL     1      -0.972   4.460   2.797  1.00  0.00     0.018 C 
HETATM   12  C13 UNL     1       0.287   3.675   2.476  1.00  0.00     0.007 C 
HETATM   13  C14 UNL     1       0.714   2.884   3.679  1.00  0.00     0.000 C 
HETATM   14  C15 UNL     1      -0.399   2.165   4.361  1.00  0.00     0.000 C 
HETATM   15  C16 UNL     1      -1.596   2.160   3.421  1.00  0.00     0.000 C 
HETATM   16  C17 UNL     1      -2.104   3.562   3.171  1.00  0.00     0.007 C 
ENDBRANCH   5  11
ENDBRANCH   1   5
BRANCH   3  17
HETATM   17  C5  UNL     1       0.025   8.591   3.282  1.00  0.00     0.111 C 
HETATM   18  C6  UNL     1       1.190   8.403   4.179  1.00  0.00     0.034 C 
BRANCH  17  19
HETATM   19  C7  UNL     1      -0.846   9.752   3.580  1.00  0.00     0.189 C 
BRANCH  19  20
HETATM   20  N3  UNL     1      -1.947   9.617   4.420  1.00  0.00    -0.405 N 
ATOM     21  H3  UNL     1      -2.822   9.240   4.056  1.00  0.00     0.154 HD
BRANCH  20  22
HETATM   22  C8  UNL     1      -1.857  10.001   5.770  1.00  0.00     0.069 C 
HETATM   23  C9  UNL     1      -1.432   8.886   6.727  1.00  0.00     0.031 C 
HETATM   24  C10 UNL     1      -0.824  11.117   5.973  1.00  0.00     0.031 C 
ENDBRANCH  20  22
ENDBRANCH  19  20
BRANCH  19  25
HETATM   25  C11 UNL     1      -1.291  10.433   2.323  1.00  0.00     0.255 C 
HETATM   26  N4  UNL     1      -0.822  11.738   2.051  1.00  0.00    -0.060 NA
HETATM   27  O3  UNL     1      -2.068   9.894   1.494  1.00  0.00    -0.275 OA
ENDBRANCH  19  25
ENDBRANCH  17  19
ENDBRANCH   3  17
TORSDOF 8
ENDMDL
