MODEL 1
REMARK VINA RESULT: -8.466844141      0.000      0.000
REMARK  15 active torsions:
REMARK  status: ('A' for Active; 'I' for Inactive)
REMARK    1  A    between atoms: C3_3  and  C4_4 
REMARK    2  A    between atoms: C4_4  and  C5_5 
REMARK    3  A    between atoms: C5_5  and  C6_6 
REMARK    4  A    between atoms: C6_6  and  C7_7 
REMARK    5  A    between atoms: C7_7  and  S1_8 
REMARK    6  A    between atoms: S1_8  and  C8_9 
REMARK    7  A    between atoms: C13_14  and  N1_15 
REMARK    8  A    between atoms: C16_22  and  O1_23 
REMARK    9  A    between atoms: O1_23  and  C17_24 
REMARK   10  A    between atoms: C17_24  and  C18_25 
REMARK   11  A    between atoms: C18_25  and  C19_26 
REMARK   12  A    between atoms: C19_26  and  C20_27 
REMARK   13  A    between atoms: C20_27  and  C21_28 
REMARK   14  A    between atoms: C21_28  and  N3_29 
REMARK   15  A    between atoms: N3_29  and  C22_32 
ROOT
HETATM    1  C1  UNL     1       8.468  26.697  18.739  1.00  0.00     0.012 C 
HETATM    2  C2  UNL     1       8.505  25.703  19.407  1.00  0.00    -0.117 C 
HETATM    3  C3  UNL     1       8.544  24.501  20.243  1.00  0.00     0.093 C 
ENDROOT
BRANCH   3   4
HETATM    4  C4  UNL     1       7.830  23.335  19.590  1.00  0.00     0.012 C 
BRANCH   4   5
HETATM    5  C5  UNL     1       7.454  22.343  20.652  1.00  0.00     0.002 C 
BRANCH   5   6
HETATM    6  C6  UNL     1       7.282  22.967  22.009  1.00  0.00     0.010 C 
BRANCH   6   7
HETATM    7  C7  UNL     1       5.870  22.958  22.499  1.00  0.00     0.079 C 
BRANCH   7   8
HETATM    8  S1  UNL     1       5.516  24.602  23.203  1.00  0.00    -0.127 SA
BRANCH   8   9
HETATM    9  C8  UNL     1       5.458  25.849  21.955  1.00  0.00     0.034 A 
HETATM   10  C9  UNL     1       4.786  25.595  20.797  1.00  0.00     0.035 A 
HETATM   11  C10 UNL     1       4.748  26.573  19.832  1.00  0.00    -0.008 A 
HETATM   12  C11 UNL     1       4.054  26.283  18.664  1.00  0.00     0.017 A 
HETATM   13  C14 UNL     1       5.374  27.767  20.045  1.00  0.00     0.046 A 
HETATM   14  C12 UNL     1       4.016  27.269  17.694  1.00  0.00     0.049 A 
HETATM   15  C13 UNL     1       4.651  28.473  17.913  1.00  0.00     0.099 A 
HETATM   16  N2  UNL     1       5.312  28.696  19.074  1.00  0.00    -0.342 N 
ATOM     17  H2  UNL     1       5.776  29.593  19.215  1.00  0.00     0.167 HD
HETATM   18  C15 UNL     1       6.052  28.017  21.216  1.00  0.00     0.068 A 
HETATM   19  C16 UNL     1       6.121  27.078  22.210  1.00  0.00     0.087 A 
BRANCH  15  20
HETATM   20  N1  UNL     1       4.596  29.374  16.984  1.00  0.00    -0.385 N 
ATOM     21  H12 UNL     1       4.012  29.250  16.157  1.00  0.00     0.157 HD
ATOM     22  H11 UNL     1       5.154  30.220  17.097  1.00  0.00     0.157 HD
ENDBRANCH  15  20
BRANCH  19  23
HETATM   23  O1  UNL     1       6.772  27.236  23.401  1.00  0.00    -0.350 OA
BRANCH  23  24
HETATM   24  C17 UNL     1       8.118  27.083  23.640  1.00  0.00     0.175 C 
BRANCH  24  25
HETATM   25  C18 UNL     1       8.424  25.812  24.351  1.00  0.00     0.027 C 
BRANCH  25  26
HETATM   26  C19 UNL     1       8.457  25.977  25.860  1.00  0.00     0.004 C 
BRANCH  26  27
HETATM   27  C20 UNL     1       7.391  25.165  26.553  1.00  0.00     0.027 C 
BRANCH  27  28
HETATM   28  C21 UNL     1       8.095  24.273  27.579  1.00  0.00     0.232 C 
BRANCH  28  29
HETATM   29  N3  UNL     1       9.508  24.304  27.359  1.00  0.00    -0.071 N 
ATOM     30  H32 UNL     1       9.719  24.649  26.422  1.00  0.00     0.277 HD
ATOM     31  H31 UNL     1       9.942  25.042  27.914  1.00  0.00     0.277 HD
BRANCH  29  32
HETATM   32  C22 UNL     1      10.156  23.040  27.594  1.00  0.00     0.185 C 
HETATM   33  C23 UNL     1       9.294  22.212  28.506  1.00  0.00     0.033 C 
HETATM   34  C24 UNL     1       9.888  20.824  28.721  1.00  0.00     0.002 C 
HETATM   35  C25 UNL     1      11.388  20.936  28.961  1.00  0.00     0.000 C 
HETATM   36  C26 UNL     1      11.720  22.364  29.361  1.00  0.00     0.002 C 
HETATM   37  C27 UNL     1      11.514  23.273  28.200  1.00  0.00     0.033 C 
ENDBRANCH  29  32
ENDBRANCH  28  29
ENDBRANCH  27  28
ENDBRANCH  26  27
ENDBRANCH  25  26
ENDBRANCH  24  25
ENDBRANCH  23  24
ENDBRANCH  19  23
ENDBRANCH   8   9
ENDBRANCH   7   8
ENDBRANCH   6   7
ENDBRANCH   5   6
ENDBRANCH   4   5
ENDBRANCH   3   4
TORSDOF 15
ENDMDL
MODEL 2
REMARK VINA RESULT: -8.177796282      3.750      7.362
REMARK  15 active torsions:
REMARK  status: ('A' for Active; 'I' for Inactive)
REMARK    1  A    between atoms: C3_3  and  C4_4 
REMARK    2  A    between atoms: C4_4  and  C5_5 
REMARK    3  A    between atoms: C5_5  and  C6_6 
REMARK    4  A    between atoms: C6_6  and  C7_7 
REMARK    5  A    between atoms: C7_7  and  S1_8 
REMARK    6  A    between atoms: S1_8  and  C8_9 
REMARK    7  A    between atoms: C13_14  and  N1_15 
REMARK    8  A    between atoms: C16_22  and  O1_23 
REMARK    9  A    between atoms: O1_23  and  C17_24 
REMARK   10  A    between atoms: C17_24  and  C18_25 
REMARK   11  A    between atoms: C18_25  and  C19_26 
REMARK   12  A    between atoms: C19_26  and  C20_27 
REMARK   13  A    between atoms: C20_27  and  C21_28 
REMARK   14  A    between atoms: C21_28  and  N3_29 
REMARK   15  A    between atoms: N3_29  and  C22_32 
ROOT
HETATM    1  C1  UNL     1       3.704  26.894  19.287  1.00  0.00     0.012 C 
HETATM    2  C2  UNL     1       4.704  27.114  18.664  1.00  0.00    -0.117 C 
HETATM    3  C3  UNL     1       5.920  27.406  17.900  1.00  0.00     0.093 C 
ENDROOT
BRANCH   3   4
HETATM    4  C4  UNL     1       7.143  26.760  18.519  1.00  0.00     0.012 C 
BRANCH   4   5
HETATM    5  C5  UNL     1       7.061  25.275  18.312  1.00  0.00     0.002 C 
BRANCH   5   6
HETATM    6  C6  UNL     1       8.134  24.516  19.043  1.00  0.00     0.010 C 
BRANCH   6   7
HETATM    7  C7  UNL     1       7.826  23.066  19.224  1.00  0.00     0.079 C 
BRANCH   7   8
HETATM    8  S1  UNL     1       7.928  22.694  21.007  1.00  0.00    -0.127 SA
BRANCH   8   9
HETATM    9  C8  UNL     1       6.930  21.306  21.443  1.00  0.00     0.034 A 
HETATM   10  C9  UNL     1       6.725  20.323  20.521  1.00  0.00     0.035 A 
HETATM   11  C10 UNL     1       5.946  19.246  20.872  1.00  0.00    -0.008 A 
HETATM   12  C11 UNL     1       5.758  18.261  19.911  1.00  0.00     0.017 A 
HETATM   13  C14 UNL     1       5.397  19.178  22.120  1.00  0.00     0.046 A 
HETATM   14  C12 UNL     1       4.973  17.178  20.265  1.00  0.00     0.049 A 
HETATM   15  C13 UNL     1       4.420  17.114  21.527  1.00  0.00     0.099 A 
HETATM   16  N2  UNL     1       4.641  18.108  22.421  1.00  0.00    -0.342 N 
ATOM     17  H2  UNL     1       4.221  18.041  23.348  1.00  0.00     0.167 HD
HETATM   18  C15 UNL     1       5.606  20.175  23.046  1.00  0.00     0.068 A 
HETATM   19  C16 UNL     1       6.374  21.269  22.749  1.00  0.00     0.087 A 
BRANCH  15  20
HETATM   20  N1  UNL     1       3.691  16.086  21.826  1.00  0.00    -0.385 N 
ATOM     21  H12 UNL     1       4.042  15.135  21.718  1.00  0.00     0.157 HD
ATOM     22  H11 UNL     1       2.747  16.249  22.177  1.00  0.00     0.157 HD
ENDBRANCH  15  20
BRANCH  19  23
HETATM   23  O1  UNL     1       6.634  22.305  23.600  1.00  0.00    -0.350 OA
BRANCH  23  24
HETATM   24  C17 UNL     1       7.029  22.223  24.915  1.00  0.00     0.175 C 
BRANCH  24  25
HETATM   25  C18 UNL     1       6.455  23.316  25.747  1.00  0.00     0.027 C 
BRANCH  25  26
HETATM   26  C19 UNL     1       7.502  24.318  26.202  1.00  0.00     0.004 C 
BRANCH  26  27
HETATM   27  C20 UNL     1       7.250  25.703  25.660  1.00  0.00     0.027 C 
BRANCH  27  28
HETATM   28  C21 UNL     1       8.248  25.934  24.524  1.00  0.00     0.232 C 
BRANCH  28  29
HETATM   29  N3  UNL     1       7.715  25.422  23.300  1.00  0.00    -0.071 N 
ATOM     30  H32 UNL     1       8.334  24.713  22.907  1.00  0.00     0.277 HD
ATOM     31  H31 UNL     1       6.891  24.848  23.478  1.00  0.00     0.277 HD
BRANCH  29  32
HETATM   32  C22 UNL     1       7.424  26.442  22.325  1.00  0.00     0.185 C 
HETATM   33  C23 UNL     1       8.240  27.665  22.642  1.00  0.00     0.033 C 
HETATM   34  C24 UNL     1       8.041  28.751  21.590  1.00  0.00     0.002 C 
HETATM   35  C25 UNL     1       6.563  28.872  21.246  1.00  0.00     0.000 C 
HETATM   36  C26 UNL     1       5.742  28.229  22.353  1.00  0.00     0.002 C 
HETATM   37  C27 UNL     1       5.953  26.755  22.344  1.00  0.00     0.033 C 
ENDBRANCH  29  32
ENDBRANCH  28  29
ENDBRANCH  27  28
ENDBRANCH  26  27
ENDBRANCH  25  26
ENDBRANCH  24  25
ENDBRANCH  23  24
ENDBRANCH  19  23
ENDBRANCH   8   9
ENDBRANCH   7   8
ENDBRANCH   6   7
ENDBRANCH   5   6
ENDBRANCH   4   5
ENDBRANCH   3   4
TORSDOF 15
ENDMDL
MODEL 3
REMARK VINA RESULT: -8.131630304      2.100      2.895
REMARK  15 active torsions:
REMARK  status: ('A' for Active; 'I' for Inactive)
REMARK    1  A    between atoms: C3_3  and  C4_4 
REMARK    2  A    between atoms: C4_4  and  C5_5 
REMARK    3  A    between atoms: C5_5  and  C6_6 
REMARK    4  A    between atoms: C6_6  and  C7_7 
REMARK    5  A    between atoms: C7_7  and  S1_8 
REMARK    6  A    between atoms: S1_8  and  C8_9 
REMARK    7  A    between atoms: C13_14  and  N1_15 
REMARK    8  A    between atoms: C16_22  and  O1_23 
REMARK    9  A    between atoms: O1_23  and  C17_24 
REMARK   10  A    between atoms: C17_24  and  C18_25 
REMARK   11  A    between atoms: C18_25  and  C19_26 
REMARK   12  A    between atoms: C19_26  and  C20_27 
REMARK   13  A    between atoms: C20_27  and  C21_28 
REMARK   14  A    between atoms: C21_28  and  N3_29 
REMARK   15  A    between atoms: N3_29  and  C22_32 
ROOT
HETATM    1  C1  UNL     1       8.574  26.564  18.770  1.00  0.00     0.012 C 
HETATM    2  C2  UNL     1       8.067  25.478  18.743  1.00  0.00    -0.117 C 
HETATM    3  C3  UNL     1       7.445  24.152  18.687  1.00  0.00     0.093 C 
ENDROOT
BRANCH   3   4
HETATM    4  C4  UNL     1       8.223  23.129  19.489  1.00  0.00     0.012 C 
BRANCH   4   5
HETATM    5  C5  UNL     1       8.201  23.532  20.936  1.00  0.00     0.002 C 
BRANCH   5   6
HETATM    6  C6  UNL     1       7.097  22.872  21.715  1.00  0.00     0.010 C 
BRANCH   6   7
HETATM    7  C7  UNL     1       7.022  23.314  23.140  1.00  0.00     0.079 C 
BRANCH   7   8
HETATM    8  S1  UNL     1       5.536  24.357  23.321  1.00  0.00    -0.127 SA
BRANCH   8   9
HETATM    9  C8  UNL     1       5.501  25.656  22.127  1.00  0.00     0.034 A 
HETATM   10  C9  UNL     1       4.792  25.479  20.976  1.00  0.00     0.035 A 
HETATM   11  C10 UNL     1       4.772  26.498  20.054  1.00  0.00    -0.008 A 
HETATM   12  C11 UNL     1       4.039  26.285  18.893  1.00  0.00     0.017 A 
HETATM   13  C14 UNL     1       5.451  27.655  20.300  1.00  0.00     0.046 A 
HETATM   14  C12 UNL     1       4.020  27.311  17.965  1.00  0.00     0.049 A 
HETATM   15  C13 UNL     1       4.708  28.479  18.217  1.00  0.00     0.099 A 
HETATM   16  N2  UNL     1       5.405  28.626  19.370  1.00  0.00    -0.342 N 
ATOM     17  H2  UNL     1       5.909  29.497  19.537  1.00  0.00     0.167 HD
HETATM   18  C15 UNL     1       6.166  27.828  21.463  1.00  0.00     0.068 A 
HETATM   19  C16 UNL     1       6.220  26.846  22.416  1.00  0.00     0.087 A 
BRANCH  15  20
HETATM   20  N1  UNL     1       4.669  29.420  17.328  1.00  0.00    -0.385 N 
ATOM     21  H12 UNL     1       3.945  30.138  17.345  1.00  0.00     0.157 HD
ATOM     22  H11 UNL     1       5.385  29.428  16.602  1.00  0.00     0.157 HD
ENDBRANCH  15  20
BRANCH  19  23
HETATM   23  O1  UNL     1       6.904  26.927  23.595  1.00  0.00    -0.350 OA
BRANCH  23  24
HETATM   24  C17 UNL     1       8.212  26.568  23.824  1.00  0.00     0.175 C 
BRANCH  24  25
HETATM   25  C18 UNL     1       8.549  26.555  25.274  1.00  0.00     0.027 C 
BRANCH  25  26
HETATM   26  C19 UNL     1       7.745  25.532  26.055  1.00  0.00     0.004 C 
BRANCH  26  27
HETATM   27  C20 UNL     1       8.602  24.417  26.600  1.00  0.00     0.027 C 
BRANCH  27  28
HETATM   28  C21 UNL     1       7.804  23.732  27.712  1.00  0.00     0.232 C 
BRANCH  28  29
HETATM   29  N3  UNL     1       6.428  23.638  27.333  1.00  0.00    -0.071 N 
ATOM     30  H32 UNL     1       5.866  24.315  27.849  1.00  0.00     0.277 HD
ATOM     31  H31 UNL     1       6.291  23.990  26.385  1.00  0.00     0.277 HD
BRANCH  29  32
HETATM   32  C22 UNL     1       5.882  22.313  27.469  1.00  0.00     0.185 C 
HETATM   33  C23 UNL     1       5.582  21.766  26.101  1.00  0.00     0.033 C 
HETATM   34  C24 UNL     1       5.083  20.327  26.176  1.00  0.00     0.002 C 
HETATM   35  C25 UNL     1       4.069  20.191  27.304  1.00  0.00     0.000 C 
HETATM   36  C26 UNL     1       3.551  21.571  27.674  1.00  0.00     0.002 C 
HETATM   37  C27 UNL     1       4.637  22.363  28.314  1.00  0.00     0.033 C 
ENDBRANCH  29  32
ENDBRANCH  28  29
ENDBRANCH  27  28
ENDBRANCH  26  27
ENDBRANCH  25  26
ENDBRANCH  24  25
ENDBRANCH  23  24
ENDBRANCH  19  23
ENDBRANCH   8   9
ENDBRANCH   7   8
ENDBRANCH   6   7
ENDBRANCH   5   6
ENDBRANCH   4   5
ENDBRANCH   3   4
TORSDOF 15
ENDMDL
MODEL 4
REMARK VINA RESULT: -7.934520641      3.289      5.687
REMARK  15 active torsions:
REMARK  status: ('A' for Active; 'I' for Inactive)
REMARK    1  A    between atoms: C3_3  and  C4_4 
REMARK    2  A    between atoms: C4_4  and  C5_5 
REMARK    3  A    between atoms: C5_5  and  C6_6 
REMARK    4  A    between atoms: C6_6  and  C7_7 
REMARK    5  A    between atoms: C7_7  and  S1_8 
REMARK    6  A    between atoms: S1_8  and  C8_9 
REMARK    7  A    between atoms: C13_14  and  N1_15 
REMARK    8  A    between atoms: C16_22  and  O1_23 
REMARK    9  A    between atoms: O1_23  and  C17_24 
REMARK   10  A    between atoms: C17_24  and  C18_25 
REMARK   11  A    between atoms: C18_25  and  C19_26 
REMARK   12  A    between atoms: C19_26  and  C20_27 
REMARK   13  A    between atoms: C20_27  and  C21_28 
REMARK   14  A    between atoms: C21_28  and  N3_29 
REMARK   15  A    between atoms: N3_29  and  C22_32 
ROOT
HETATM    1  C1  UNL     1       4.698  25.547  21.663  1.00  0.00     0.012 C 
HETATM    2  C2  UNL     1       4.451  26.234  20.713  1.00  0.00    -0.117 C 
HETATM    3  C3  UNL     1       4.156  27.093  19.563  1.00  0.00     0.093 C 
ENDROOT
BRANCH   3   4
HETATM    4  C4  UNL     1       4.727  26.531  18.277  1.00  0.00     0.012 C 
BRANCH   4   5
HETATM    5  C5  UNL     1       6.115  27.073  18.088  1.00  0.00     0.002 C 
BRANCH   5   6
HETATM    6  C6  UNL     1       7.188  26.055  18.358  1.00  0.00     0.010 C 
BRANCH   6   7
HETATM    7  C7  UNL     1       7.944  26.302  19.623  1.00  0.00     0.079 C 
BRANCH   7   8
HETATM    8  S1  UNL     1       9.043  24.874  19.902  1.00  0.00    -0.127 SA
BRANCH   8   9
HETATM    9  C8  UNL     1       8.155  23.475  20.510  1.00  0.00     0.034 A 
HETATM   10  C9  UNL     1       7.900  22.436  19.666  1.00  0.00     0.035 A 
HETATM   11  C10 UNL     1       7.207  21.352  20.151  1.00  0.00    -0.008 A 
HETATM   12  C11 UNL     1       6.965  20.309  19.265  1.00  0.00     0.017 A 
HETATM   13  C14 UNL     1       6.792  21.332  21.451  1.00  0.00     0.046 A 
HETATM   14  C12 UNL     1       6.268  19.218  19.754  1.00  0.00     0.049 A 
HETATM   15  C13 UNL     1       5.849  19.203  21.068  1.00  0.00     0.099 A 
HETATM   16  N2  UNL     1       6.117  20.252  21.883  1.00  0.00    -0.342 N 
ATOM     17  H2  UNL     1       5.798  20.222  22.851  1.00  0.00     0.167 HD
HETATM   18  C15 UNL     1       7.052  22.386  22.297  1.00  0.00     0.068 A 
HETATM   19  C16 UNL     1       7.738  23.490  21.867  1.00  0.00     0.087 A 
BRANCH  15  20
HETATM   20  N1  UNL     1       5.199  18.167  21.494  1.00  0.00    -0.385 N 
ATOM     21  H12 UNL     1       5.522  17.220  21.299  1.00  0.00     0.157 HD
ATOM     22  H11 UNL     1       4.348  18.319  22.035  1.00  0.00     0.157 HD
ENDBRANCH  15  20
BRANCH  19  23
HETATM   23  O1  UNL     1       8.038  24.580  22.632  1.00  0.00    -0.350 OA
BRANCH  23  24
HETATM   24  C17 UNL     1       7.537  24.887  23.876  1.00  0.00     0.175 C 
BRANCH  24  25
HETATM   25  C18 UNL     1       8.161  26.109  24.451  1.00  0.00     0.027 C 
BRANCH  25  26
HETATM   26  C19 UNL     1       8.457  25.976  25.934  1.00  0.00     0.004 C 
BRANCH  26  27
HETATM   27  C20 UNL     1       8.851  24.572  26.321  1.00  0.00     0.027 C 
BRANCH  27  28
HETATM   28  C21 UNL     1       8.067  24.213  27.585  1.00  0.00     0.232 C 
BRANCH  28  29
HETATM   29  N3  UNL     1       6.693  23.991  27.256  1.00  0.00    -0.071 N 
ATOM     30  H32 UNL     1       6.083  24.490  27.902  1.00  0.00     0.277 HD
ATOM     31  H31 UNL     1       6.449  24.468  26.388  1.00  0.00     0.277 HD
BRANCH  29  32
HETATM   32  C22 UNL     1       6.334  22.597  27.189  1.00  0.00     0.185 C 
HETATM   33  C23 UNL     1       5.948  22.260  25.775  1.00  0.00     0.033 C 
HETATM   34  C24 UNL     1       5.643  20.774  25.623  1.00  0.00     0.002 C 
HETATM   35  C25 UNL     1       4.792  20.300  26.794  1.00  0.00     0.000 C 
HETATM   36  C26 UNL     1       4.153  21.506  27.462  1.00  0.00     0.002 C 
HETATM   37  C27 UNL     1       5.200  22.321  28.138  1.00  0.00     0.033 C 
ENDBRANCH  29  32
ENDBRANCH  28  29
ENDBRANCH  27  28
ENDBRANCH  26  27
ENDBRANCH  25  26
ENDBRANCH  24  25
ENDBRANCH  23  24
ENDBRANCH  19  23
ENDBRANCH   8   9
ENDBRANCH   7   8
ENDBRANCH   6   7
ENDBRANCH   5   6
ENDBRANCH   4   5
ENDBRANCH   3   4
TORSDOF 15
ENDMDL
MODEL 5
REMARK VINA RESULT: -7.917535355      1.710      8.833
REMARK  15 active torsions:
REMARK  status: ('A' for Active; 'I' for Inactive)
REMARK    1  A    between atoms: C3_3  and  C4_4 
REMARK    2  A    between atoms: C4_4  and  C5_5 
REMARK    3  A    between atoms: C5_5  and  C6_6 
REMARK    4  A    between atoms: C6_6  and  C7_7 
REMARK    5  A    between atoms: C7_7  and  S1_8 
REMARK    6  A    between atoms: S1_8  and  C8_9 
REMARK    7  A    between atoms: C13_14  and  N1_15 
REMARK    8  A    between atoms: C16_22  and  O1_23 
REMARK    9  A    between atoms: O1_23  and  C17_24 
REMARK   10  A    between atoms: C17_24  and  C18_25 
REMARK   11  A    between atoms: C18_25  and  C19_26 
REMARK   12  A    between atoms: C19_26  and  C20_27 
REMARK   13  A    between atoms: C20_27  and  C21_28 
REMARK   14  A    between atoms: C21_28  and  N3_29 
REMARK   15  A    between atoms: N3_29  and  C22_32 
ROOT
HETATM    1  C1  UNL     1       8.939  26.134  18.564  1.00  0.00     0.012 C 
HETATM    2  C2  UNL     1       8.220  25.237  18.905  1.00  0.00    -0.117 C 
HETATM    3  C3  UNL     1       7.355  24.126  19.309  1.00  0.00     0.093 C 
ENDROOT
BRANCH   3   4
HETATM    4  C4  UNL     1       7.034  24.170  20.789  1.00  0.00     0.012 C 
BRANCH   4   5
HETATM    5  C5  UNL     1       7.675  22.987  21.457  1.00  0.00     0.002 C 
BRANCH   5   6
HETATM    6  C6  UNL     1       6.688  22.108  22.175  1.00  0.00     0.010 C 
BRANCH   6   7
HETATM    7  C7  UNL     1       7.302  21.270  23.248  1.00  0.00     0.079 C 
BRANCH   7   8
HETATM    8  S1  UNL     1       6.653  21.855  24.849  1.00  0.00    -0.127 SA
BRANCH   8   9
HETATM    9  C8  UNL     1       7.938  22.475  25.888  1.00  0.00     0.034 A 
HETATM   10  C9  UNL     1       8.455  21.666  26.856  1.00  0.00     0.035 A 
HETATM   11  C10 UNL     1       9.456  22.160  27.659  1.00  0.00    -0.008 A 
HETATM   12  C11 UNL     1       9.961  21.310  28.634  1.00  0.00     0.017 A 
HETATM   13  C14 UNL     1       9.911  23.434  27.477  1.00  0.00     0.046 A 
HETATM   14  C12 UNL     1      10.968  21.809  29.442  1.00  0.00     0.049 A 
HETATM   15  C13 UNL     1      11.424  23.096  29.256  1.00  0.00     0.099 A 
HETATM   16  N2  UNL     1      10.890  23.877  28.285  1.00  0.00    -0.342 N 
ATOM     17  H2  UNL     1      11.241  24.827  28.165  1.00  0.00     0.167 HD
HETATM   18  C15 UNL     1       9.384  24.246  26.499  1.00  0.00     0.068 A 
HETATM   19  C16 UNL     1       8.386  23.804  25.671  1.00  0.00     0.087 A 
BRANCH  15  20
HETATM   20  N1  UNL     1      12.368  23.531  30.029  1.00  0.00    -0.385 N 
ATOM     21  H12 UNL     1      12.948  24.327  29.764  1.00  0.00     0.157 HD
ATOM     22  H11 UNL     1      12.520  23.058  30.919  1.00  0.00     0.157 HD
ENDBRANCH  15  20
BRANCH  19  23
HETATM   23  O1  UNL     1       7.803  24.538  24.678  1.00  0.00    -0.350 OA
BRANCH  23  24
HETATM   24  C17 UNL     1       7.227  25.783  24.791  1.00  0.00     0.175 C 
BRANCH  24  25
HETATM   25  C18 UNL     1       7.078  26.458  23.474  1.00  0.00     0.027 C 
BRANCH  25  26
HETATM   26  C19 UNL     1       8.206  27.432  23.181  1.00  0.00     0.004 C 
BRANCH  26  27
HETATM   27  C20 UNL     1       8.345  27.729  21.709  1.00  0.00     0.027 C 
BRANCH  27  28
HETATM   28  C21 UNL     1       7.620  29.051  21.443  1.00  0.00     0.232 C 
BRANCH  28  29
HETATM   29  N3  UNL     1       6.224  28.808  21.253  1.00  0.00    -0.071 N 
ATOM     30  H32 UNL     1       5.786  28.521  22.129  1.00  0.00     0.277 HD
ATOM     31  H31 UNL     1       5.725  29.682  21.091  1.00  0.00     0.277 HD
BRANCH  29  32
HETATM   32  C22 UNL     1       5.941  27.858  20.208  1.00  0.00     0.185 C 
HETATM   33  C23 UNL     1       5.781  28.597  18.908  1.00  0.00     0.033 C 
HETATM   34  C24 UNL     1       5.567  27.634  17.746  1.00  0.00     0.002 C 
HETATM   35  C25 UNL     1       4.577  26.550  18.149  1.00  0.00     0.000 C 
HETATM   36  C26 UNL     1       3.794  27.021  19.364  1.00  0.00     0.002 C 
HETATM   37  C27 UNL     1       4.694  27.088  20.548  1.00  0.00     0.033 C 
ENDBRANCH  29  32
ENDBRANCH  28  29
ENDBRANCH  27  28
ENDBRANCH  26  27
ENDBRANCH  25  26
ENDBRANCH  24  25
ENDBRANCH  23  24
ENDBRANCH  19  23
ENDBRANCH   8   9
ENDBRANCH   7   8
ENDBRANCH   6   7
ENDBRANCH   5   6
ENDBRANCH   4   5
ENDBRANCH   3   4
TORSDOF 15
ENDMDL
