MODEL 1
REMARK VINA RESULT: -8.373288334      0.000      0.000
REMARK  13 active torsions:
REMARK  status: ('A' for Active; 'I' for Inactive)
REMARK    1  A    between atoms: C9_11  and  C10_12 
REMARK    2  A    between atoms: C10_12  and  C11_13 
REMARK    3  A    between atoms: C11_13  and  N2_14 
REMARK    4  A    between atoms: N2_14  and  C12_16 
REMARK    5  A    between atoms: C12_16  and  C13_17 
REMARK    6  A    between atoms: C13_17  and  C14_18 
REMARK    7  A    between atoms: C14_18  and  C15_19 
REMARK    8  A    between atoms: C15_19  and  C16_20 
REMARK    9  A    between atoms: C16_20  and  C17_21 
REMARK   10  A    between atoms: C17_21  and  C18_22 
REMARK   11  A    between atoms: C18_22  and  C19_23 
REMARK   12  A    between atoms: C19_23  and  N3_24 
REMARK   13  A    between atoms: N3_24  and  C20_26 
ROOT
HETATM    1  C20 UNL     1       7.379  23.297  26.792  1.00  0.00     0.049 A 
HETATM    2  C21 UNL     1       6.145  23.160  27.392  1.00  0.00     0.044 A 
HETATM    3  C22 UNL     1       5.332  22.062  27.129  1.00  0.00    -0.007 A 
HETATM    4  C23 UNL     1       4.103  21.987  27.767  1.00  0.00     0.015 A 
HETATM    5  C24 UNL     1       3.308  20.894  27.496  1.00  0.00     0.018 A 
HETATM    6  C25 UNL     1       3.769  19.941  26.613  1.00  0.00     0.088 A 
HETATM    7  N4  UNL     1       4.955  20.014  25.998  1.00  0.00    -0.365 N 
ATOM      8  H4  UNL     1       5.256  19.285  25.352  1.00  0.00     0.165 HD
HETATM    9  C26 UNL     1       5.742  21.078  26.255  1.00  0.00     0.043 A 
HETATM   10  C27 UNL     1       6.990  21.207  25.642  1.00  0.00     0.055 A 
HETATM   11  C28 UNL     1       7.762  22.298  25.923  1.00  0.00     0.073 A 
HETATM   12  C29 UNL     1       9.054  22.449  25.298  1.00  0.00     0.102 C 
HETATM   13  N5  UNL     1      10.081  22.559  24.784  1.00  0.00    -0.191 NA
ENDROOT
BRANCH   1  14
HETATM   14  N3  UNL     1       8.214  24.417  27.055  1.00  0.00    -0.389 N 
ATOM     15  H3  UNL     1       9.122  24.258  27.492  1.00  0.00     0.159 HD
BRANCH  14  16
HETATM   16  C19 UNL     1       7.831  25.766  26.730  1.00  0.00     0.120 C 
BRANCH  16  17
HETATM   17  C18 UNL     1       8.431  26.144  25.402  1.00  0.00     0.020 C 
BRANCH  17  18
HETATM   18  C17 UNL     1       7.342  26.152  24.364  1.00  0.00     0.002 C 
BRANCH  18  19
HETATM   19  C16 UNL     1       7.517  25.043  23.352  1.00  0.00     0.000 C 
BRANCH  19  20
HETATM   20  C15 UNL     1       6.194  24.752  22.711  1.00  0.00     0.000 C 
BRANCH  20  21
HETATM   21  C14 UNL     1       6.329  24.053  21.390  1.00  0.00     0.002 C 
BRANCH  21  22
HETATM   22  C13 UNL     1       7.776  23.695  21.072  1.00  0.00     0.019 C 
BRANCH  22  23
HETATM   23  C12 UNL     1       7.907  23.235  19.635  1.00  0.00     0.113 C 
BRANCH  23  24
HETATM   24  N2  UNL     1       8.215  24.314  18.738  1.00  0.00    -0.421 N 
ATOM     25  H2  UNL     1       7.880  24.322  17.775  1.00  0.00     0.153 HD
BRANCH  24  26
HETATM   26  C11 UNL     1       9.002  25.365  19.256  1.00  0.00     0.118 C 
BRANCH  26  27
HETATM   27  C10 UNL     1       8.581  26.747  18.893  1.00  0.00     0.060 C 
BRANCH  27  28
HETATM   28  C9  UNL     1       7.387  27.204  19.623  1.00  0.00    -0.022 A 
HETATM   29  C2  UNL     1       7.366  27.842  20.845  1.00  0.00     0.013 A 
HETATM   30  C1  UNL     1       8.581  28.192  21.643  1.00  0.00     0.068 C 
HETATM   31  N1  UNL     1       6.093  28.099  21.207  1.00  0.00    -0.359 N 
HETATM   32  C3  UNL     1       5.284  27.638  20.240  1.00  0.00     0.043 A 
ATOM     33  H1  UNL     1       5.797  28.562  22.066  1.00  0.00     0.166 HD
HETATM   34  C4  UNL     1       3.919  27.629  20.089  1.00  0.00     0.030 A 
HETATM   35  C8  UNL     1       6.082  27.071  19.235  1.00  0.00    -0.001 A 
HETATM   36  C5  UNL     1       3.300  27.085  18.993  1.00  0.00     0.002 A 
HETATM   37  C6  UNL     1       4.088  26.519  17.989  1.00  0.00     0.001 A 
HETATM   38  C7  UNL     1       5.454  26.522  18.125  1.00  0.00     0.014 A 
ENDBRANCH  27  28
ENDBRANCH  26  27
ENDBRANCH  24  26
ENDBRANCH  23  24
ENDBRANCH  22  23
ENDBRANCH  21  22
ENDBRANCH  20  21
ENDBRANCH  19  20
ENDBRANCH  18  19
ENDBRANCH  17  18
ENDBRANCH  16  17
ENDBRANCH  14  16
ENDBRANCH   1  14
TORSDOF 13
ENDMDL
MODEL 2
REMARK VINA RESULT: -8.346722280      2.400      5.164
REMARK  13 active torsions:
REMARK  status: ('A' for Active; 'I' for Inactive)
REMARK    1  A    between atoms: C9_11  and  C10_12 
REMARK    2  A    between atoms: C10_12  and  C11_13 
REMARK    3  A    between atoms: C11_13  and  N2_14 
REMARK    4  A    between atoms: N2_14  and  C12_16 
REMARK    5  A    between atoms: C12_16  and  C13_17 
REMARK    6  A    between atoms: C13_17  and  C14_18 
REMARK    7  A    between atoms: C14_18  and  C15_19 
REMARK    8  A    between atoms: C15_19  and  C16_20 
REMARK    9  A    between atoms: C16_20  and  C17_21 
REMARK   10  A    between atoms: C17_21  and  C18_22 
REMARK   11  A    between atoms: C18_22  and  C19_23 
REMARK   12  A    between atoms: C19_23  and  N3_24 
REMARK   13  A    between atoms: N3_24  and  C20_26 
ROOT
HETATM    1  C20 UNL     1       7.630  19.566  21.962  1.00  0.00     0.049 A 
HETATM    2  C21 UNL     1       8.673  20.160  22.641  1.00  0.00     0.044 A 
HETATM    3  C22 UNL     1       8.510  20.640  23.936  1.00  0.00    -0.007 A 
HETATM    4  C23 UNL     1       9.601  21.226  24.561  1.00  0.00     0.015 A 
HETATM    5  C24 UNL     1       9.425  21.699  25.844  1.00  0.00     0.018 A 
HETATM    6  C25 UNL     1       8.187  21.567  26.435  1.00  0.00     0.088 A 
HETATM    7  N4  UNL     1       7.135  21.001  25.832  1.00  0.00    -0.365 N 
ATOM      8  H4  UNL     1       6.236  20.925  26.308  1.00  0.00     0.165 HD
HETATM    9  C26 UNL     1       7.295  20.535  24.577  1.00  0.00     0.043 A 
HETATM   10  C27 UNL     1       6.231  19.935  23.898  1.00  0.00     0.055 A 
HETATM   11  C28 UNL     1       6.427  19.475  22.627  1.00  0.00     0.073 A 
HETATM   12  C29 UNL     1       5.339  18.853  21.909  1.00  0.00     0.102 C 
HETATM   13  N5  UNL     1       4.459  18.365  21.347  1.00  0.00    -0.191 NA
ENDROOT
BRANCH   1  14
HETATM   14  N3  UNL     1       7.789  19.074  20.637  1.00  0.00    -0.389 N 
ATOM     15  H3  UNL     1       7.564  18.097  20.448  1.00  0.00     0.159 HD
BRANCH  14  16
HETATM   16  C19 UNL     1       8.254  19.898  19.552  1.00  0.00     0.120 C 
BRANCH  16  17
HETATM   17  C18 UNL     1       7.189  20.901  19.201  1.00  0.00     0.020 C 
BRANCH  17  18
HETATM   18  C17 UNL     1       7.817  22.266  19.122  1.00  0.00     0.002 C 
BRANCH  18  19
HETATM   19  C16 UNL     1       7.739  23.002  20.440  1.00  0.00     0.000 C 
BRANCH  19  20
HETATM   20  C15 UNL     1       8.917  23.920  20.558  1.00  0.00     0.000 C 
BRANCH  20  21
HETATM   21  C14 UNL     1       8.561  25.357  20.313  1.00  0.00     0.002 C 
BRANCH  21  22
HETATM   22  C13 UNL     1       8.617  25.722  18.835  1.00  0.00     0.019 C 
BRANCH  22  23
HETATM   23  C12 UNL     1       7.322  26.373  18.398  1.00  0.00     0.113 C 
BRANCH  23  24
HETATM   24  N2  UNL     1       6.170  25.768  19.006  1.00  0.00    -0.421 N 
ATOM     25  H2  UNL     1       6.171  24.790  19.299  1.00  0.00     0.153 HD
BRANCH  24  26
HETATM   26  C11 UNL     1       5.037  26.590  19.179  1.00  0.00     0.118 C 
BRANCH  26  27
HETATM   27  C10 UNL     1       4.459  26.639  20.552  1.00  0.00     0.060 C 
BRANCH  27  28
HETATM   28  C9  UNL     1       5.472  26.799  21.608  1.00  0.00    -0.022 A 
HETATM   29  C2  UNL     1       6.225  27.927  21.858  1.00  0.00     0.013 A 
HETATM   30  C1  UNL     1       6.124  29.205  21.088  1.00  0.00     0.068 C 
HETATM   31  N1  UNL     1       7.057  27.703  22.894  1.00  0.00    -0.359 N 
HETATM   32  C3  UNL     1       6.860  26.446  23.322  1.00  0.00     0.043 A 
ATOM     33  H1  UNL     1       7.722  28.371  23.284  1.00  0.00     0.166 HD
HETATM   34  C4  UNL     1       7.427  25.701  24.327  1.00  0.00     0.030 A 
HETATM   35  C8  UNL     1       5.865  25.862  22.523  1.00  0.00    -0.001 A 
HETATM   36  C5  UNL     1       7.062  24.405  24.583  1.00  0.00     0.002 A 
HETATM   37  C6  UNL     1       6.072  23.817  23.791  1.00  0.00     0.001 A 
HETATM   38  C7  UNL     1       5.495  24.549  22.783  1.00  0.00     0.014 A 
ENDBRANCH  27  28
ENDBRANCH  26  27
ENDBRANCH  24  26
ENDBRANCH  23  24
ENDBRANCH  22  23
ENDBRANCH  21  22
ENDBRANCH  20  21
ENDBRANCH  19  20
ENDBRANCH  18  19
ENDBRANCH  17  18
ENDBRANCH  16  17
ENDBRANCH  14  16
ENDBRANCH   1  14
TORSDOF 13
ENDMDL
MODEL 3
REMARK VINA RESULT: -8.269160036      2.269      5.532
REMARK  13 active torsions:
REMARK  status: ('A' for Active; 'I' for Inactive)
REMARK    1  A    between atoms: C9_11  and  C10_12 
REMARK    2  A    between atoms: C10_12  and  C11_13 
REMARK    3  A    between atoms: C11_13  and  N2_14 
REMARK    4  A    between atoms: N2_14  and  C12_16 
REMARK    5  A    between atoms: C12_16  and  C13_17 
REMARK    6  A    between atoms: C13_17  and  C14_18 
REMARK    7  A    between atoms: C14_18  and  C15_19 
REMARK    8  A    between atoms: C15_19  and  C16_20 
REMARK    9  A    between atoms: C16_20  and  C17_21 
REMARK   10  A    between atoms: C17_21  and  C18_22 
REMARK   11  A    between atoms: C18_22  and  C19_23 
REMARK   12  A    between atoms: C19_23  and  N3_24 
REMARK   13  A    between atoms: N3_24  and  C20_26 
ROOT
HETATM    1  C20 UNL     1       7.536  21.059  21.404  1.00  0.00     0.049 A 
HETATM    2  C21 UNL     1       6.513  20.205  21.048  1.00  0.00     0.044 A 
HETATM    3  C22 UNL     1       5.773  19.525  22.010  1.00  0.00    -0.007 A 
HETATM    4  C23 UNL     1       4.759  18.681  21.583  1.00  0.00     0.015 A 
HETATM    5  C24 UNL     1       4.034  18.013  22.547  1.00  0.00     0.018 A 
HETATM    6  C25 UNL     1       4.350  18.216  23.873  1.00  0.00     0.088 A 
HETATM    7  N4  UNL     1       5.329  19.031  24.285  1.00  0.00    -0.365 N 
ATOM      8  H4  UNL     1       5.527  19.151  25.278  1.00  0.00     0.165 HD
HETATM    9  C26 UNL     1       6.044  19.689  23.352  1.00  0.00     0.043 A 
HETATM   10  C27 UNL     1       7.077  20.553  23.723  1.00  0.00     0.055 A 
HETATM   11  C28 UNL     1       7.784  21.204  22.752  1.00  0.00     0.073 A 
HETATM   12  C29 UNL     1       8.856  22.100  23.117  1.00  0.00     0.102 C 
HETATM   13  N5  UNL     1       9.714  22.806  23.425  1.00  0.00    -0.191 NA
ENDROOT
BRANCH   1  14
HETATM   14  N3  UNL     1       8.298  21.756  20.427  1.00  0.00    -0.389 N 
ATOM     15  H3  UNL     1       9.239  22.066  20.670  1.00  0.00     0.159 HD
BRANCH  14  16
HETATM   16  C19 UNL     1       7.795  22.042  19.108  1.00  0.00     0.120 C 
BRANCH  16  17
HETATM   17  C18 UNL     1       7.675  23.533  18.938  1.00  0.00     0.020 C 
BRANCH  17  18
HETATM   18  C17 UNL     1       8.821  24.195  19.655  1.00  0.00     0.002 C 
BRANCH  18  19
HETATM   19  C16 UNL     1       8.985  25.640  19.241  1.00  0.00     0.000 C 
BRANCH  19  20
HETATM   20  C15 UNL     1       7.779  26.066  18.460  1.00  0.00     0.000 C 
BRANCH  20  21
HETATM   21  C14 UNL     1       7.243  27.397  18.898  1.00  0.00     0.002 C 
BRANCH  21  22
HETATM   22  C13 UNL     1       5.721  27.406  18.987  1.00  0.00     0.019 C 
BRANCH  22  23
HETATM   23  C12 UNL     1       5.225  26.180  19.724  1.00  0.00     0.113 C 
BRANCH  23  24
HETATM   24  N2  UNL     1       4.844  26.470  21.079  1.00  0.00    -0.421 N 
ATOM     25  H2  UNL     1       4.485  27.386  21.349  1.00  0.00     0.153 HD
BRANCH  24  26
HETATM   26  C11 UNL     1       4.988  25.426  22.016  1.00  0.00     0.118 C 
BRANCH  26  27
HETATM   27  C10 UNL     1       6.371  24.908  22.221  1.00  0.00     0.060 C 
BRANCH  27  28
HETATM   28  C9  UNL     1       7.005  25.407  23.453  1.00  0.00    -0.022 A 
HETATM   29  C2  UNL     1       7.791  26.533  23.572  1.00  0.00     0.013 A 
HETATM   30  C1  UNL     1       8.128  27.460  22.448  1.00  0.00     0.068 C 
HETATM   31  N1  UNL     1       8.207  26.669  24.847  1.00  0.00    -0.359 N 
HETATM   32  C3  UNL     1       7.704  25.649  25.560  1.00  0.00     0.043 A 
ATOM     33  H1  UNL     1       8.800  27.417  25.207  1.00  0.00     0.166 HD
HETATM   34  C4  UNL     1       7.806  25.293  26.883  1.00  0.00     0.030 A 
HETATM   35  C8  UNL     1       6.945  24.844  24.698  1.00  0.00    -0.001 A 
HETATM   36  C5  UNL     1       7.195  24.179  27.399  1.00  0.00     0.002 A 
HETATM   37  C6  UNL     1       6.438  23.373  26.545  1.00  0.00     0.001 A 
HETATM   38  C7  UNL     1       6.326  23.716  25.221  1.00  0.00     0.014 A 
ENDBRANCH  27  28
ENDBRANCH  26  27
ENDBRANCH  24  26
ENDBRANCH  23  24
ENDBRANCH  22  23
ENDBRANCH  21  22
ENDBRANCH  20  21
ENDBRANCH  19  20
ENDBRANCH  18  19
ENDBRANCH  17  18
ENDBRANCH  16  17
ENDBRANCH  14  16
ENDBRANCH   1  14
TORSDOF 13
ENDMDL
MODEL 4
REMARK VINA RESULT: -8.222319240      2.669      7.198
REMARK  13 active torsions:
REMARK  status: ('A' for Active; 'I' for Inactive)
REMARK    1  A    between atoms: C9_11  and  C10_12 
REMARK    2  A    between atoms: C10_12  and  C11_13 
REMARK    3  A    between atoms: C11_13  and  N2_14 
REMARK    4  A    between atoms: N2_14  and  C12_16 
REMARK    5  A    between atoms: C12_16  and  C13_17 
REMARK    6  A    between atoms: C13_17  and  C14_18 
REMARK    7  A    between atoms: C14_18  and  C15_19 
REMARK    8  A    between atoms: C15_19  and  C16_20 
REMARK    9  A    between atoms: C16_20  and  C17_21 
REMARK   10  A    between atoms: C17_21  and  C18_22 
REMARK   11  A    between atoms: C18_22  and  C19_23 
REMARK   12  A    between atoms: C19_23  and  N3_24 
REMARK   13  A    between atoms: N3_24  and  C20_26 
ROOT
HETATM    1  C20 UNL     1       5.671  26.730  21.914  1.00  0.00     0.049 A 
HETATM    2  C21 UNL     1       5.567  25.486  22.500  1.00  0.00     0.044 A 
HETATM    3  C22 UNL     1       6.509  25.041  23.422  1.00  0.00    -0.007 A 
HETATM    4  C23 UNL     1       6.344  23.779  23.972  1.00  0.00     0.015 A 
HETATM    5  C24 UNL     1       7.285  23.351  24.884  1.00  0.00     0.018 A 
HETATM    6  C25 UNL     1       8.332  24.190  25.199  1.00  0.00     0.088 A 
HETATM    7  N4  UNL     1       8.491  25.408  24.667  1.00  0.00    -0.365 N 
ATOM      8  H4  UNL     1       9.282  25.995  24.930  1.00  0.00     0.165 HD
HETATM    9  C26 UNL     1       7.577  25.837  23.775  1.00  0.00     0.043 A 
HETATM   10  C27 UNL     1       7.692  27.100  23.188  1.00  0.00     0.055 A 
HETATM   11  C28 UNL     1       6.748  27.504  22.286  1.00  0.00     0.073 A 
HETATM   12  C29 UNL     1       6.851  28.805  21.668  1.00  0.00     0.102 C 
HETATM   13  N5  UNL     1       6.951  29.844  21.178  1.00  0.00    -0.191 NA
ENDROOT
BRANCH   1  14
HETATM   14  N3  UNL     1       4.713  27.191  20.970  1.00  0.00    -0.389 N 
ATOM     15  H3  UNL     1       4.244  28.080  21.143  1.00  0.00     0.159 HD
BRANCH  14  16
HETATM   16  C19 UNL     1       4.376  26.453  19.780  1.00  0.00     0.120 C 
BRANCH  16  17
HETATM   17  C18 UNL     1       5.109  27.047  18.607  1.00  0.00     0.020 C 
BRANCH  17  18
HETATM   18  C17 UNL     1       6.344  26.228  18.343  1.00  0.00     0.002 C 
BRANCH  18  19
HETATM   19  C16 UNL     1       7.608  26.994  18.660  1.00  0.00     0.000 C 
BRANCH  19  20
HETATM   20  C15 UNL     1       8.534  26.109  19.437  1.00  0.00     0.000 C 
BRANCH  20  21
HETATM   21  C14 UNL     1       7.969  24.739  19.672  1.00  0.00     0.002 C 
BRANCH  21  22
HETATM   22  C13 UNL     1       8.709  23.990  20.774  1.00  0.00     0.019 C 
BRANCH  22  23
HETATM   23  C12 UNL     1       8.164  22.585  20.920  1.00  0.00     0.113 C 
BRANCH  23  24
HETATM   24  N2  UNL     1       7.376  22.181  19.789  1.00  0.00    -0.421 N 
ATOM     25  H2  UNL     1       6.683  22.802  19.371  1.00  0.00     0.153 HD
BRANCH  24  26
HETATM   26  C11 UNL     1       7.606  20.883  19.286  1.00  0.00     0.118 C 
BRANCH  26  27
HETATM   27  C10 UNL     1       6.674  19.818  19.751  1.00  0.00     0.060 C 
BRANCH  27  28
HETATM   28  C9  UNL     1       7.167  19.084  20.929  1.00  0.00    -0.022 A 
HETATM   29  C2  UNL     1       8.088  18.059  20.930  1.00  0.00     0.013 A 
HETATM   30  C1  UNL     1       8.763  17.519  19.710  1.00  0.00     0.068 C 
HETATM   31  N1  UNL     1       8.286  17.621  22.190  1.00  0.00    -0.359 N 
HETATM   32  C3  UNL     1       7.507  18.345  23.009  1.00  0.00     0.043 A 
ATOM     33  H1  UNL     1       8.917  16.871  22.471  1.00  0.00     0.166 HD
HETATM   34  C4  UNL     1       7.308  18.327  24.368  1.00  0.00     0.030 A 
HETATM   35  C8  UNL     1       6.795  19.271  22.232  1.00  0.00    -0.001 A 
HETATM   36  C5  UNL     1       6.438  19.178  25.000  1.00  0.00     0.002 A 
HETATM   37  C6  UNL     1       5.726  20.102  24.231  1.00  0.00     0.001 A 
HETATM   38  C7  UNL     1       5.915  20.133  22.872  1.00  0.00     0.014 A 
ENDBRANCH  27  28
ENDBRANCH  26  27
ENDBRANCH  24  26
ENDBRANCH  23  24
ENDBRANCH  22  23
ENDBRANCH  21  22
ENDBRANCH  20  21
ENDBRANCH  19  20
ENDBRANCH  18  19
ENDBRANCH  17  18
ENDBRANCH  16  17
ENDBRANCH  14  16
ENDBRANCH   1  14
TORSDOF 13
ENDMDL
MODEL 5
REMARK VINA RESULT: -8.204052352      2.966      5.727
REMARK  13 active torsions:
REMARK  status: ('A' for Active; 'I' for Inactive)
REMARK    1  A    between atoms: C9_11  and  C10_12 
REMARK    2  A    between atoms: C10_12  and  C11_13 
REMARK    3  A    between atoms: C11_13  and  N2_14 
REMARK    4  A    between atoms: N2_14  and  C12_16 
REMARK    5  A    between atoms: C12_16  and  C13_17 
REMARK    6  A    between atoms: C13_17  and  C14_18 
REMARK    7  A    between atoms: C14_18  and  C15_19 
REMARK    8  A    between atoms: C15_19  and  C16_20 
REMARK    9  A    between atoms: C16_20  and  C17_21 
REMARK   10  A    between atoms: C17_21  and  C18_22 
REMARK   11  A    between atoms: C18_22  and  C19_23 
REMARK   12  A    between atoms: C19_23  and  N3_24 
REMARK   13  A    between atoms: N3_24  and  C20_26 
ROOT
HETATM    1  C20 UNL     1       6.480  20.763  21.464  1.00  0.00     0.049 A 
HETATM    2  C21 UNL     1       5.765  20.133  22.461  1.00  0.00     0.044 A 
HETATM    3  C22 UNL     1       5.170  18.893  22.249  1.00  0.00    -0.007 A 
HETATM    4  C23 UNL     1       4.465  18.316  23.294  1.00  0.00     0.015 A 
HETATM    5  C24 UNL     1       3.880  17.088  23.070  1.00  0.00     0.018 A 
HETATM    6  C25 UNL     1       4.023  16.502  21.831  1.00  0.00     0.088 A 
HETATM    7  N4  UNL     1       4.703  17.059  20.823  1.00  0.00    -0.365 N 
ATOM      8  H4  UNL     1       4.784  16.589  19.921  1.00  0.00     0.165 HD
HETATM    9  C26 UNL     1       5.280  18.260  21.030  1.00  0.00     0.043 A 
HETATM   10  C27 UNL     1       6.003  18.889  20.013  1.00  0.00     0.055 A 
HETATM   11  C28 UNL     1       6.573  20.106  20.256  1.00  0.00     0.073 A 
HETATM   12  C29 UNL     1       7.323  20.772  19.217  1.00  0.00     0.102 C 
HETATM   13  N5  UNL     1       7.912  21.295  18.375  1.00  0.00    -0.191 NA
ENDROOT
BRANCH   1  14
HETATM   14  N3  UNL     1       7.090  22.030  21.673  1.00  0.00    -0.389 N 
ATOM     15  H3  UNL     1       6.598  22.867  21.360  1.00  0.00     0.159 HD
BRANCH  14  16
HETATM   16  C19 UNL     1       8.373  22.180  22.308  1.00  0.00     0.120 C 
BRANCH  16  17
HETATM   17  C18 UNL     1       8.958  23.515  21.931  1.00  0.00     0.020 C 
BRANCH  17  18
HETATM   18  C17 UNL     1       8.239  24.031  20.713  1.00  0.00     0.002 C 
BRANCH  18  19
HETATM   19  C16 UNL     1       9.193  24.633  19.707  1.00  0.00     0.000 C 
BRANCH  19  20
HETATM   20  C15 UNL     1       8.413  25.120  18.524  1.00  0.00     0.000 C 
BRANCH  20  21
HETATM   21  C14 UNL     1       7.017  25.538  18.880  1.00  0.00     0.002 C 
BRANCH  21  22
HETATM   22  C13 UNL     1       6.762  27.012  18.585  1.00  0.00     0.019 C 
BRANCH  22  23
HETATM   23  C12 UNL     1       6.674  27.804  19.872  1.00  0.00     0.113 C 
BRANCH  23  24
HETATM   24  N2  UNL     1       7.954  27.976  20.501  1.00  0.00    -0.421 N 
ATOM     25  H2  UNL     1       8.752  28.359  19.994  1.00  0.00     0.153 HD
BRANCH  24  26
HETATM   26  C11 UNL     1       8.053  27.590  21.855  1.00  0.00     0.118 C 
BRANCH  26  27
HETATM   27  C10 UNL     1       6.773  27.492  22.610  1.00  0.00     0.060 C 
BRANCH  27  28
HETATM   28  C9  UNL     1       6.577  26.187  23.262  1.00  0.00    -0.022 A 
HETATM   29  C2  UNL     1       5.657  25.223  22.908  1.00  0.00     0.013 A 
HETATM   30  C1  UNL     1       4.694  25.342  21.771  1.00  0.00     0.068 C 
HETATM   31  N1  UNL     1       5.759  24.165  23.737  1.00  0.00    -0.359 N 
HETATM   32  C3  UNL     1       6.731  24.425  24.626  1.00  0.00     0.043 A 
ATOM     33  H1  UNL     1       5.197  23.315  23.696  1.00  0.00     0.166 HD
HETATM   34  C4  UNL     1       7.248  23.713  25.681  1.00  0.00     0.030 A 
HETATM   35  C8  UNL     1       7.256  25.694  24.342  1.00  0.00    -0.001 A 
HETATM   36  C5  UNL     1       8.259  24.192  26.472  1.00  0.00     0.002 A 
HETATM   37  C6  UNL     1       8.787  25.456  26.195  1.00  0.00     0.001 A 
HETATM   38  C7  UNL     1       8.281  26.179  25.143  1.00  0.00     0.014 A 
ENDBRANCH  27  28
ENDBRANCH  26  27
ENDBRANCH  24  26
ENDBRANCH  23  24
ENDBRANCH  22  23
ENDBRANCH  21  22
ENDBRANCH  20  21
ENDBRANCH  19  20
ENDBRANCH  18  19
ENDBRANCH  17  18
ENDBRANCH  16  17
ENDBRANCH  14  16
ENDBRANCH   1  14
TORSDOF 13
ENDMDL
