MODEL 1
REMARK VINA RESULT: -6.280924348      0.000      0.000
REMARK  1 active torsions:
REMARK  status: ('A' for Active; 'I' for Inactive)
REMARK    1  A    between atoms: C3_3  and  N1_4 
ROOT
HETATM    1  C1  UNL     1      23.636  66.584   9.898  1.00  0.00     0.016 C 
HETATM    2  C2  UNL     1      24.136  65.486   9.973  1.00  0.00    -0.066 C 
HETATM    3  C3  UNL     1      24.744  64.142  10.088  1.00  0.00     0.259 C 
HETATM    4  C5  UNL     1      24.357  63.642  11.443  1.00  0.00     0.276 C 
HETATM    5  O1  UNL     1      23.177  63.912  11.834  1.00  0.00    -0.269 OA
HETATM    6  N4  UNL     1      25.205  62.910  12.283  1.00  0.00    -0.276 N 
ATOM      7  H4  UNL     1      24.837  62.424  13.100  1.00  0.00     0.173 HD
HETATM    8  C6  UNL     1      26.593  62.861  11.970  1.00  0.00     0.329 C 
HETATM    9  O2  UNL     1      27.392  62.207  12.709  1.00  0.00    -0.247 OA
HETATM   10  N5  UNL     1      27.102  63.552  10.814  1.00  0.00    -0.276 N 
ATOM     11  H5  UNL     1      28.097  63.512  10.595  1.00  0.00     0.173 HD
HETATM   12  C7  UNL     1      26.222  64.289   9.977  1.00  0.00     0.276 C 
HETATM   13  O3  UNL     1      26.729  65.069   9.137  1.00  0.00    -0.269 OA
ENDROOT
BRANCH   3  14
HETATM   14  N1  UNL     1      24.199  63.213   9.163  1.00  0.00    -0.331 N 
HETATM   15  C4  UNL     1      24.588  62.028   8.915  1.00  0.00     0.199 C 
HETATM   16  N2  UNL     1      23.840  61.313   7.921  1.00  0.00    -0.067 NA
HETATM   17  N3  UNL     1      25.665  61.364   9.514  1.00  0.00    -0.067 NA
ATOM     18  H1  UNL     1      23.392  63.537   8.630  1.00  0.00     0.164 HD
ENDBRANCH   3  14
TORSDOF 1
ENDMDL
MODEL 2
REMARK VINA RESULT: -6.107760131      1.697      3.883
REMARK  1 active torsions:
REMARK  status: ('A' for Active; 'I' for Inactive)
REMARK    1  A    between atoms: C3_3  and  N1_4 
ROOT
HETATM    1  C1  UNL     1      28.075  63.863  13.289  1.00  0.00     0.016 C 
HETATM    2  C2  UNL     1      27.354  63.495  12.391  1.00  0.00    -0.066 C 
HETATM    3  C3  UNL     1      26.473  63.066  11.283  1.00  0.00     0.259 C 
HETATM    4  C5  UNL     1      26.649  64.094  10.211  1.00  0.00     0.276 C 
HETATM    5  O1  UNL     1      27.828  64.539  10.036  1.00  0.00    -0.269 OA
HETATM    6  N4  UNL     1      25.609  64.580   9.409  1.00  0.00    -0.276 N 
ATOM      7  H4  UNL     1      25.808  65.122   8.569  1.00  0.00     0.173 HD
HETATM    8  C6  UNL     1      24.268  64.300   9.795  1.00  0.00     0.329 C 
HETATM    9  O2  UNL     1      23.299  64.725   9.092  1.00  0.00    -0.247 OA
HETATM   10  N5  UNL     1      23.999  63.534  10.984  1.00  0.00    -0.276 N 
ATOM     11  H5  UNL     1      23.035  63.337  11.254  1.00  0.00     0.173 HD
HETATM   12  C7  UNL     1      25.070  63.052  11.781  1.00  0.00     0.276 C 
HETATM   13  O3  UNL     1      24.798  62.611  12.923  1.00  0.00    -0.269 OA
ENDROOT
BRANCH   3  14
HETATM   14  N1  UNL     1      26.879  61.833  10.706  1.00  0.00    -0.331 N 
HETATM   15  C4  UNL     1      26.306  61.167   9.787  1.00  0.00     0.199 C 
HETATM   16  N2  UNL     1      26.949  59.944   9.400  1.00  0.00    -0.067 NA
HETATM   17  N3  UNL     1      25.120  61.511   9.126  1.00  0.00    -0.067 NA
ATOM     18  H1  UNL     1      27.740  61.432  11.076  1.00  0.00     0.164 HD
ENDBRANCH   3  14
TORSDOF 1
ENDMDL
MODEL 3
REMARK VINA RESULT: -6.036937764      3.029      5.095
REMARK  1 active torsions:
REMARK  status: ('A' for Active; 'I' for Inactive)
REMARK    1  A    between atoms: C3_3  and  N1_4 
ROOT
HETATM    1  C1  UNL     1      29.317  66.168   7.056  1.00  0.00     0.016 C 
HETATM    2  C2  UNL     1      28.898  65.979   8.174  1.00  0.00    -0.066 C 
HETATM    3  C3  UNL     1      28.397  65.727   9.543  1.00  0.00     0.259 C 
HETATM    4  C5  UNL     1      29.290  64.668  10.107  1.00  0.00     0.276 C 
HETATM    5  O1  UNL     1      30.526  64.752   9.818  1.00  0.00    -0.269 OA
HETATM    6  N4  UNL     1      28.847  63.616  10.917  1.00  0.00    -0.276 N 
ATOM      7  H4  UNL     1      29.511  63.043  11.437  1.00  0.00     0.173 HD
HETATM    8  C6  UNL     1      27.448  63.365  10.998  1.00  0.00     0.329 C 
HETATM    9  O2  UNL     1      27.010  62.418  11.723  1.00  0.00    -0.247 OA
HETATM   10  N5  UNL     1      26.520  64.180  10.259  1.00  0.00    -0.276 N 
ATOM     11  H5  UNL     1      25.519  63.994  10.322  1.00  0.00     0.173 HD
HETATM   12  C7  UNL     1      26.993  65.241   9.443  1.00  0.00     0.276 C 
HETATM   13  O3  UNL     1      26.189  65.761   8.634  1.00  0.00    -0.269 OA
ENDROOT
BRANCH   3  14
HETATM   14  N1  UNL     1      28.545  66.852  10.396  1.00  0.00    -0.331 N 
HETATM   15  C4  UNL     1      28.073  67.023  11.564  1.00  0.00     0.199 C 
HETATM   16  N2  UNL     1      28.388  68.272  12.196  1.00  0.00    -0.067 NA
HETATM   17  N3  UNL     1      27.285  66.116  12.283  1.00  0.00    -0.067 NA
ATOM     18  H1  UNL     1      29.102  67.622  10.024  1.00  0.00     0.164 HD
ENDBRANCH   3  14
TORSDOF 1
ENDMDL
MODEL 4
REMARK VINA RESULT: -6.034179627      1.123      1.128
REMARK  1 active torsions:
REMARK  status: ('A' for Active; 'I' for Inactive)
REMARK    1  A    between atoms: C3_3  and  N1_4 
ROOT
HETATM    1  C1  UNL     1      24.928  66.706  10.761  1.00  0.00     0.016 C 
HETATM    2  C2  UNL     1      25.243  65.539  10.793  1.00  0.00    -0.066 C 
HETATM    3  C3  UNL     1      25.628  64.112  10.856  1.00  0.00     0.259 C 
HETATM    4  C5  UNL     1      25.230  63.650  12.221  1.00  0.00     0.276 C 
HETATM    5  O1  UNL     1      24.130  64.099  12.677  1.00  0.00    -0.269 OA
HETATM    6  N4  UNL     1      25.985  62.770  13.005  1.00  0.00    -0.276 N 
ATOM      7  H4  UNL     1      25.582  62.330  13.832  1.00  0.00     0.173 HD
HETATM    8  C6  UNL     1      27.329  62.502  12.620  1.00  0.00     0.329 C 
HETATM    9  O2  UNL     1      28.045  61.709  13.307  1.00  0.00    -0.247 OA
HETATM   10  N5  UNL     1      27.888  63.128  11.450  1.00  0.00    -0.276 N 
ATOM     11  H5  UNL     1      28.852  62.932  11.180  1.00  0.00     0.173 HD
HETATM   12  C7  UNL     1      27.102  64.018  10.672  1.00  0.00     0.276 C 
HETATM   13  O3  UNL     1      27.689  64.725   9.819  1.00  0.00    -0.269 OA
ENDROOT
BRANCH   3  14
HETATM   14  N1  UNL     1      24.893  63.306   9.946  1.00  0.00    -0.331 N 
HETATM   15  C4  UNL     1      25.143  62.119   9.567  1.00  0.00     0.199 C 
HETATM   16  N2  UNL     1      24.218  61.548   8.630  1.00  0.00    -0.067 NA
HETATM   17  N3  UNL     1      26.223  61.326   9.973  1.00  0.00    -0.067 NA
ATOM     18  H1  UNL     1      24.059  63.735   9.546  1.00  0.00     0.164 HD
ENDBRANCH   3  14
TORSDOF 1
ENDMDL
MODEL 5
REMARK VINA RESULT: -5.951003179      2.153      3.767
REMARK  1 active torsions:
REMARK  status: ('A' for Active; 'I' for Inactive)
REMARK    1  A    between atoms: C3_3  and  N1_4 
ROOT
HETATM    1  C1  UNL     1      25.965  64.269  13.572  1.00  0.00     0.016 C 
HETATM    2  C2  UNL     1      26.500  64.187  12.491  1.00  0.00    -0.066 C 
HETATM    3  C3  UNL     1      27.176  64.091  11.179  1.00  0.00     0.259 C 
HETATM    4  C5  UNL     1      28.629  63.917  11.488  1.00  0.00     0.276 C 
HETATM    5  O1  UNL     1      28.915  63.172  12.480  1.00  0.00    -0.269 OA
HETATM    6  N4  UNL     1      29.665  64.516  10.762  1.00  0.00    -0.276 N 
ATOM      7  H4  UNL     1      30.631  64.211  10.883  1.00  0.00     0.173 HD
HETATM    8  C6  UNL     1      29.339  65.560   9.852  1.00  0.00     0.329 C 
HETATM    9  O2  UNL     1      30.253  66.127   9.176  1.00  0.00    -0.247 OA
HETATM   10  N5  UNL     1      27.973  65.983   9.690  1.00  0.00    -0.276 N 
ATOM     11  H5  UNL     1      27.746  66.732   9.035  1.00  0.00     0.173 HD
HETATM   12  C7  UNL     1      26.939  65.360  10.438  1.00  0.00     0.276 C 
HETATM   13  O3  UNL     1      25.814  65.914  10.455  1.00  0.00    -0.269 OA
ENDROOT
BRANCH   3  14
HETATM   14  N1  UNL     1      26.796  62.933  10.450  1.00  0.00    -0.331 N 
HETATM   15  C4  UNL     1      25.623  62.500  10.214  1.00  0.00     0.199 C 
HETATM   16  N2  UNL     1      25.540  61.293   9.443  1.00  0.00    -0.067 NA
HETATM   17  N3  UNL     1      24.422  63.084  10.633  1.00  0.00    -0.067 NA
ATOM     18  H1  UNL     1      27.560  62.379  10.066  1.00  0.00     0.164 HD
ENDBRANCH   3  14
TORSDOF 1
ENDMDL
