MODEL 1
REMARK VINA RESULT: -6.288389747      0.000      0.000
REMARK  1 active torsions:
REMARK  status: ('A' for Active; 'I' for Inactive)
REMARK    1  A    between atoms: N3_4  and  N4_6 
ROOT
HETATM    1  N4  UNL     1      29.287  65.387   9.518  1.00  0.00    -0.279 N 
ATOM      2  H4  UNL     1      28.318  65.422   9.201  1.00  0.00     0.189 HD
HETATM    3  C2  UNL     1      30.177  65.956   8.785  1.00  0.00     0.193 A 
HETATM    4  N5  UNL     1      31.577  66.026   9.034  1.00  0.00    -0.289 N 
ATOM      5  H5  UNL     1      32.070  65.633   9.836  1.00  0.00     0.172 HD
HETATM    6  C3  UNL     1      32.164  66.751   7.953  1.00  0.00     0.328 A 
HETATM    7  O1  UNL     1      33.395  67.011   7.835  1.00  0.00    -0.247 OA
HETATM    8  N6  UNL     1      31.141  67.131   7.034  1.00  0.00    -0.272 N 
ATOM      9  H6  UNL     1      31.275  67.658   6.171  1.00  0.00     0.174 HD
HETATM   10  C4  UNL     1      29.908  66.649   7.531  1.00  0.00     0.295 A 
HETATM   11  O2  UNL     1      28.766  66.773   7.018  1.00  0.00    -0.264 OA
ENDROOT
BRANCH   1  12
HETATM   12  N3  UNL     1      29.551  64.732  10.706  1.00  0.00    -0.274 N 
HETATM   13  C1  UNL     1      28.667  63.949  11.233  1.00  0.00     0.215 C 
HETATM   14  N1  UNL     1      27.410  63.763  10.582  1.00  0.00    -0.065 NA
HETATM   15  N2  UNL     1      28.963  63.283  12.461  1.00  0.00    -0.065 NA
ATOM     16  H3  UNL     1      30.449  64.866  11.169  1.00  0.00     0.189 HD
ENDBRANCH   1  12
TORSDOF 1
ENDMDL
MODEL 2
REMARK VINA RESULT: -6.063095055      2.781      4.836
REMARK  1 active torsions:
REMARK  status: ('A' for Active; 'I' for Inactive)
REMARK    1  A    between atoms: N3_4  and  N4_6 
ROOT
HETATM    1  N4  UNL     1      30.289  64.927   8.901  1.00  0.00    -0.279 N 
ATOM      2  H4  UNL     1      30.212  63.959   8.593  1.00  0.00     0.189 HD
HETATM    3  C2  UNL     1      29.700  65.254   9.996  1.00  0.00     0.193 A 
HETATM    4  N5  UNL     1      29.676  66.541  10.607  1.00  0.00    -0.289 N 
ATOM      5  H5  UNL     1      30.128  67.386  10.256  1.00  0.00     0.172 HD
HETATM    6  C3  UNL     1      28.903  66.429  11.802  1.00  0.00     0.328 A 
HETATM    7  O1  UNL     1      28.665  67.374  12.606  1.00  0.00    -0.247 OA
HETATM    8  N6  UNL     1      28.445  65.084  11.939  1.00  0.00    -0.272 N 
ATOM      9  H6  UNL     1      27.871  64.720  12.700  1.00  0.00     0.174 HD
HETATM   10  C4  UNL     1      28.927  64.346  10.834  1.00  0.00     0.295 A 
HETATM   11  O2  UNL     1      28.747  63.127  10.582  1.00  0.00    -0.264 OA
ENDROOT
BRANCH   1  12
HETATM   12  N3  UNL     1      31.019  65.797   8.114  1.00  0.00    -0.274 N 
HETATM   13  C1  UNL     1      30.602  66.116   6.931  1.00  0.00     0.215 C 
HETATM   14  N1  UNL     1      29.381  65.566   6.440  1.00  0.00    -0.065 NA
HETATM   15  N2  UNL     1      31.374  67.016   6.136  1.00  0.00    -0.065 NA
ATOM     16  H3  UNL     1      31.891  66.188   8.466  1.00  0.00     0.189 HD
ENDBRANCH   1  12
TORSDOF 1
ENDMDL
MODEL 3
REMARK VINA RESULT: -6.034125621      3.215      5.430
REMARK  1 active torsions:
REMARK  status: ('A' for Active; 'I' for Inactive)
REMARK    1  A    between atoms: N3_4  and  N4_6 
ROOT
HETATM    1  N4  UNL     1      29.663  63.926  10.010  1.00  0.00    -0.279 N 
ATOM      2  H4  UNL     1      29.491  63.247   9.268  1.00  0.00     0.189 HD
HETATM    3  C2  UNL     1      28.946  63.844  11.074  1.00  0.00     0.193 A 
HETATM    4  N5  UNL     1      29.016  64.682  12.223  1.00  0.00    -0.289 N 
ATOM      5  H5  UNL     1      29.650  65.469  12.360  1.00  0.00     0.172 HD
HETATM    6  C3  UNL     1      28.033  64.216  13.148  1.00  0.00     0.328 A 
HETATM    7  O1  UNL     1      27.806  64.720  14.284  1.00  0.00    -0.247 OA
HETATM    8  N6  UNL     1      27.353  63.096  12.583  1.00  0.00    -0.272 N 
ATOM      9  H6  UNL     1      26.602  62.565  13.024  1.00  0.00     0.174 HD
HETATM   10  C4  UNL     1      27.903  62.852  11.304  1.00  0.00     0.295 A 
HETATM   11  O2  UNL     1      27.582  61.955  10.483  1.00  0.00    -0.264 OA
ENDROOT
BRANCH   1  12
HETATM   12  N3  UNL     1      30.650  64.870   9.801  1.00  0.00    -0.274 N 
HETATM   13  C1  UNL     1      30.559  65.707   8.818  1.00  0.00     0.215 C 
HETATM   14  N1  UNL     1      29.431  65.652   7.946  1.00  0.00    -0.065 NA
HETATM   15  N2  UNL     1      31.592  66.673   8.623  1.00  0.00    -0.065 NA
ATOM     16  H3  UNL     1      31.456  64.908  10.425  1.00  0.00     0.189 HD
ENDBRANCH   1  12
TORSDOF 1
ENDMDL
MODEL 4
REMARK VINA RESULT: -5.909388583      1.261      2.546
REMARK  1 active torsions:
REMARK  status: ('A' for Active; 'I' for Inactive)
REMARK    1  A    between atoms: N3_4  and  N4_6 
ROOT
HETATM    1  N4  UNL     1      30.409  66.286  10.233  1.00  0.00    -0.279 N 
ATOM      2  H4  UNL     1      31.385  66.302  10.527  1.00  0.00     0.189 HD
HETATM    3  C2  UNL     1      30.156  66.501   8.991  1.00  0.00     0.193 A 
HETATM    4  N5  UNL     1      28.876  66.525   8.367  1.00  0.00    -0.289 N 
ATOM      5  H5  UNL     1      27.977  66.374   8.825  1.00  0.00     0.172 HD
HETATM    6  C3  UNL     1      29.084  66.802   6.982  1.00  0.00     0.328 A 
HETATM    7  O1  UNL     1      28.171  66.899   6.114  1.00  0.00    -0.247 OA
HETATM    8  N6  UNL     1      30.483  66.949   6.739  1.00  0.00    -0.272 N 
ATOM      9  H6  UNL     1      30.917  67.151   5.839  1.00  0.00     0.174 HD
HETATM   10  C4  UNL     1      31.159  66.767   7.967  1.00  0.00     0.295 A 
HETATM   11  O2  UNL     1      32.398  66.816   8.181  1.00  0.00    -0.264 OA
ENDROOT
BRANCH   1  12
HETATM   12  N3  UNL     1      29.451  66.035  11.196  1.00  0.00    -0.274 N 
HETATM   13  C1  UNL     1      28.892  64.871  11.275  1.00  0.00     0.215 C 
HETATM   14  N1  UNL     1      29.268  63.842  10.361  1.00  0.00    -0.065 NA
HETATM   15  N2  UNL     1      27.904  64.636  12.279  1.00  0.00    -0.065 NA
ATOM     16  H3  UNL     1      29.183  66.771  11.848  1.00  0.00     0.189 HD
ENDBRANCH   1  12
TORSDOF 1
ENDMDL
MODEL 5
REMARK VINA RESULT: -5.891277051      1.059      2.510
REMARK  1 active torsions:
REMARK  status: ('A' for Active; 'I' for Inactive)
REMARK    1  A    between atoms: N3_4  and  N4_6 
ROOT
HETATM    1  N4  UNL     1      30.732  65.034   9.804  1.00  0.00    -0.279 N 
ATOM      2  H4  UNL     1      31.690  65.050  10.154  1.00  0.00     0.189 HD
HETATM    3  C2  UNL     1      30.460  65.759   8.777  1.00  0.00     0.193 A 
HETATM    4  N5  UNL     1      29.198  65.888   8.128  1.00  0.00    -0.289 N 
ATOM      5  H5  UNL     1      28.332  65.418   8.390  1.00  0.00     0.172 HD
HETATM    6  C3  UNL     1      29.373  66.797   7.041  1.00  0.00     0.328 A 
HETATM    7  O1  UNL     1      28.464  67.153   6.238  1.00  0.00    -0.247 OA
HETATM    8  N6  UNL     1      30.730  67.235   7.009  1.00  0.00    -0.272 N 
ATOM      9  H6  UNL     1      31.135  67.887   6.338  1.00  0.00     0.174 HD
HETATM   10  C4  UNL     1      31.416  66.605   8.073  1.00  0.00     0.295 A 
HETATM   11  O2  UNL     1      32.627  66.723   8.389  1.00  0.00    -0.264 OA
ENDROOT
BRANCH   1  12
HETATM   12  N3  UNL     1      29.819  64.236  10.465  1.00  0.00    -0.274 N 
HETATM   13  C1  UNL     1      28.956  64.760  11.274  1.00  0.00     0.215 C 
HETATM   14  N1  UNL     1      28.951  66.172  11.484  1.00  0.00    -0.065 NA
HETATM   15  N2  UNL     1      28.022  63.914  11.946  1.00  0.00    -0.065 NA
ATOM     16  H3  UNL     1      29.825  63.228  10.314  1.00  0.00     0.189 HD
ENDBRANCH   1  12
TORSDOF 1
ENDMDL
