MODEL 1
REMARK VINA RESULT: -8.386352631      0.000      0.000
REMARK  15 active torsions:
REMARK  status: ('A' for Active; 'I' for Inactive)
REMARK    1  A    between atoms: C2_2  and  C3_3 
REMARK    2  A    between atoms: C3_3  and  N1_4 
REMARK    3  A    between atoms: N1_4  and  C4_6 
REMARK    4  A    between atoms: C4_6  and  C5_7 
REMARK    5  A    between atoms: C5_7  and  C6_8 
REMARK    6  A    between atoms: C6_8  and  C7_9 
REMARK    7  A    between atoms: C7_9  and  C8_10 
REMARK    8  A    between atoms: C8_10  and  C9_11 
REMARK    9  A    between atoms: C9_11  and  C10_12 
REMARK   10  A    between atoms: C10_12  and  C11_13 
REMARK   11  A    between atoms: C11_13  and  C12_14 
REMARK   12  A    between atoms: C12_14  and  C13_15 
REMARK   13  A    between atoms: C13_15  and  C14_16 
REMARK   14  A    between atoms: C14_16  and  N2_17 
REMARK   15  A    between atoms: N2_17  and  C15_19 
ROOT
HETATM    1  C11 UNL     1     -16.054   2.201   3.082  1.00  0.00     0.000 C 
ENDROOT
BRANCH   1   2
HETATM    2  C10 UNL     1     -16.679   2.224   1.736  1.00  0.00     0.000 C 
BRANCH   2   3
HETATM    3  C9  UNL     1     -15.926   2.967   0.680  1.00  0.00     0.000 C 
BRANCH   3   4
HETATM    4  C8  UNL     1     -14.552   3.433   1.109  1.00  0.00     0.000 C 
BRANCH   4   5
HETATM    5  C7  UNL     1     -13.629   3.280  -0.079  1.00  0.00     0.000 C 
BRANCH   5   6
HETATM    6  C6  UNL     1     -14.193   3.845  -1.351  1.00  0.00     0.002 C 
BRANCH   6   7
HETATM    7  C5  UNL     1     -13.093   4.133  -2.349  1.00  0.00     0.019 C 
BRANCH   7   8
HETATM    8  C4  UNL     1     -12.896   2.883  -3.235  1.00  0.00     0.114 C 
BRANCH   8   9
HETATM    9  N1  UNL     1     -11.520   2.685  -3.537  1.00  0.00    -0.418 N 
ATOM     10  H1  UNL     1     -11.059   3.175  -4.304  1.00  0.00     0.153 HD
BRANCH   9  11
HETATM   11  C3  UNL     1     -10.828   1.768  -2.712  1.00  0.00     0.140 C 
BRANCH  11  12
HETATM   12  C2  UNL     1      -9.977   2.346  -1.650  1.00  0.00    -0.018 C 
HETATM   13  C1  UNL     1     -10.199   2.207  -0.363  1.00  0.00     0.008 C 
ENDBRANCH  11  12
ENDBRANCH   9  11
ENDBRANCH   8   9
ENDBRANCH   7   8
ENDBRANCH   6   7
ENDBRANCH   5   6
ENDBRANCH   4   5
ENDBRANCH   3   4
ENDBRANCH   2   3
ENDBRANCH   1   2
BRANCH   1  14
HETATM   14  C12 UNL     1     -15.650   0.882   3.602  1.00  0.00     0.005 C 
BRANCH  14  15
HETATM   15  C13 UNL     1     -16.637   0.217   4.522  1.00  0.00     0.044 C 
BRANCH  15  16
HETATM   16  C14 UNL     1     -16.037  -0.812   5.413  1.00  0.00     0.056 C 
BRANCH  16  17
HETATM   17  N2  UNL     1     -15.559  -1.994   4.882  1.00  0.00    -0.398 N 
ATOM     18  H2  UNL     1     -15.529  -2.068   3.866  1.00  0.00     0.159 HD
BRANCH  17  19
HETATM   19  C15 UNL     1     -15.113  -3.096   5.612  1.00  0.00     0.080 C 
HETATM   20  C16 UNL     1     -16.129  -4.115   5.992  1.00  0.00     0.025 C 
HETATM   21  C17 UNL     1     -15.818  -5.540   5.873  1.00  0.00     0.002 C 
HETATM   22  C18 UNL     1     -14.451  -5.991   5.552  1.00  0.00     0.000 C 
HETATM   23  C19 UNL     1     -13.455  -6.032   6.655  1.00  0.00     0.000 C 
HETATM   24  C20 UNL     1     -13.386  -4.870   7.562  1.00  0.00     0.000 C 
HETATM   25  C21 UNL     1     -12.979  -3.598   6.847  1.00  0.00     0.002 C 
HETATM   26  C22 UNL     1     -14.201  -2.665   6.739  1.00  0.00     0.025 C 
ENDBRANCH  17  19
ENDBRANCH  16  17
ENDBRANCH  15  16
ENDBRANCH  14  15
ENDBRANCH   1  14
TORSDOF 15
ENDMDL
MODEL 2
REMARK VINA RESULT: -8.386138621      2.489      3.502
REMARK  15 active torsions:
REMARK  status: ('A' for Active; 'I' for Inactive)
REMARK    1  A    between atoms: C2_2  and  C3_3 
REMARK    2  A    between atoms: C3_3  and  N1_4 
REMARK    3  A    between atoms: N1_4  and  C4_6 
REMARK    4  A    between atoms: C4_6  and  C5_7 
REMARK    5  A    between atoms: C5_7  and  C6_8 
REMARK    6  A    between atoms: C6_8  and  C7_9 
REMARK    7  A    between atoms: C7_9  and  C8_10 
REMARK    8  A    between atoms: C8_10  and  C9_11 
REMARK    9  A    between atoms: C9_11  and  C10_12 
REMARK   10  A    between atoms: C10_12  and  C11_13 
REMARK   11  A    between atoms: C11_13  and  C12_14 
REMARK   12  A    between atoms: C12_14  and  C13_15 
REMARK   13  A    between atoms: C13_15  and  C14_16 
REMARK   14  A    between atoms: C14_16  and  N2_17 
REMARK   15  A    between atoms: N2_17  and  C15_19 
ROOT
HETATM    1  C11 UNL     1     -16.107   2.263   1.803  1.00  0.00     0.000 C 
ENDROOT
BRANCH   1   2
HETATM    2  C10 UNL     1     -14.981   2.690   0.936  1.00  0.00     0.000 C 
BRANCH   2   3
HETATM    3  C9  UNL     1     -14.576   4.124   1.051  1.00  0.00     0.000 C 
BRANCH   3   4
HETATM    4  C8  UNL     1     -15.299   5.051   0.098  1.00  0.00     0.000 C 
BRANCH   4   5
HETATM    5  C7  UNL     1     -14.251   5.842  -0.651  1.00  0.00     0.000 C 
BRANCH   5   6
HETATM    6  C6  UNL     1     -14.015   5.346  -2.049  1.00  0.00     0.002 C 
BRANCH   6   7
HETATM    7  C5  UNL     1     -12.650   4.705  -2.172  1.00  0.00     0.019 C 
BRANCH   7   8
HETATM    8  C4  UNL     1     -12.810   3.348  -2.894  1.00  0.00     0.114 C 
BRANCH   8   9
HETATM    9  N1  UNL     1     -11.567   2.908  -3.431  1.00  0.00    -0.418 N 
ATOM     10  H1  UNL     1     -11.159   3.332  -4.265  1.00  0.00     0.153 HD
BRANCH   9  11
HETATM   11  C3  UNL     1     -10.933   1.849  -2.742  1.00  0.00     0.140 C 
BRANCH  11  12
HETATM   12  C2  UNL     1     -10.058   2.226  -1.612  1.00  0.00    -0.018 C 
HETATM   13  C1  UNL     1     -10.397   2.135  -0.347  1.00  0.00     0.008 C 
ENDBRANCH  11  12
ENDBRANCH   9  11
ENDBRANCH   8   9
ENDBRANCH   7   8
ENDBRANCH   6   7
ENDBRANCH   5   6
ENDBRANCH   4   5
ENDBRANCH   3   4
ENDBRANCH   2   3
ENDBRANCH   1   2
BRANCH   1  14
HETATM   14  C12 UNL     1     -15.836   2.180   3.249  1.00  0.00     0.005 C 
BRANCH  14  15
HETATM   15  C13 UNL     1     -15.807   0.792   3.825  1.00  0.00     0.044 C 
BRANCH  15  16
HETATM   16  C14 UNL     1     -17.115   0.332   4.366  1.00  0.00     0.056 C 
BRANCH  16  17
HETATM   17  N2  UNL     1     -17.193  -0.852   5.074  1.00  0.00    -0.398 N 
ATOM     18  H2  UNL     1     -17.290  -1.711   4.533  1.00  0.00     0.159 HD
BRANCH  17  19
HETATM   19  C15 UNL     1     -17.153  -0.977   6.463  1.00  0.00     0.080 C 
HETATM   20  C16 UNL     1     -15.967  -0.409   7.161  1.00  0.00     0.025 C 
HETATM   21  C17 UNL     1     -16.140   0.347   8.402  1.00  0.00     0.002 C 
HETATM   22  C18 UNL     1     -17.451   0.408   9.073  1.00  0.00     0.000 C 
HETATM   23  C19 UNL     1     -17.857  -0.749   9.913  1.00  0.00     0.000 C 
HETATM   24  C20 UNL     1     -17.651  -2.103   9.363  1.00  0.00     0.000 C 
HETATM   25  C21 UNL     1     -18.466  -2.351   8.111  1.00  0.00     0.002 C 
HETATM   26  C22 UNL     1     -17.524  -2.379   6.892  1.00  0.00     0.025 C 
ENDBRANCH  17  19
ENDBRANCH  16  17
ENDBRANCH  15  16
ENDBRANCH  14  15
ENDBRANCH   1  14
TORSDOF 15
ENDMDL
MODEL 3
REMARK VINA RESULT: -8.377807081      0.694      1.664
REMARK  15 active torsions:
REMARK  status: ('A' for Active; 'I' for Inactive)
REMARK    1  A    between atoms: C2_2  and  C3_3 
REMARK    2  A    between atoms: C3_3  and  N1_4 
REMARK    3  A    between atoms: N1_4  and  C4_6 
REMARK    4  A    between atoms: C4_6  and  C5_7 
REMARK    5  A    between atoms: C5_7  and  C6_8 
REMARK    6  A    between atoms: C6_8  and  C7_9 
REMARK    7  A    between atoms: C7_9  and  C8_10 
REMARK    8  A    between atoms: C8_10  and  C9_11 
REMARK    9  A    between atoms: C9_11  and  C10_12 
REMARK   10  A    between atoms: C10_12  and  C11_13 
REMARK   11  A    between atoms: C11_13  and  C12_14 
REMARK   12  A    between atoms: C12_14  and  C13_15 
REMARK   13  A    between atoms: C13_15  and  C14_16 
REMARK   14  A    between atoms: C14_16  and  N2_17 
REMARK   15  A    between atoms: N2_17  and  C15_19 
ROOT
HETATM    1  C11 UNL     1     -15.735   1.419   3.522  1.00  0.00     0.000 C 
ENDROOT
BRANCH   1   2
HETATM    2  C10 UNL     1     -16.424   2.343   2.587  1.00  0.00     0.000 C 
BRANCH   2   3
HETATM    3  C9  UNL     1     -15.761   2.545   1.263  1.00  0.00     0.000 C 
BRANCH   3   4
HETATM    4  C8  UNL     1     -14.683   3.607   1.265  1.00  0.00     0.000 C 
BRANCH   4   5
HETATM    5  C7  UNL     1     -13.738   3.298   0.125  1.00  0.00     0.000 C 
BRANCH   5   6
HETATM    6  C6  UNL     1     -14.306   3.627  -1.227  1.00  0.00     0.002 C 
BRANCH   6   7
HETATM    7  C5  UNL     1     -13.216   4.072  -2.176  1.00  0.00     0.019 C 
BRANCH   7   8
HETATM    8  C4  UNL     1     -12.971   2.945  -3.203  1.00  0.00     0.114 C 
BRANCH   8   9
HETATM    9  N1  UNL     1     -11.583   2.809  -3.489  1.00  0.00    -0.418 N 
ATOM     10  H1  UNL     1     -11.119   3.376  -4.198  1.00  0.00     0.153 HD
BRANCH   9  11
HETATM   11  C3  UNL     1     -10.885   1.840  -2.731  1.00  0.00     0.140 C 
BRANCH  11  12
HETATM   12  C2  UNL     1      -9.956   2.350  -1.701  1.00  0.00    -0.018 C 
HETATM   13  C1  UNL     1     -10.170   2.282  -0.407  1.00  0.00     0.008 C 
ENDBRANCH  11  12
ENDBRANCH   9  11
ENDBRANCH   8   9
ENDBRANCH   7   8
ENDBRANCH   6   7
ENDBRANCH   5   6
ENDBRANCH   4   5
ENDBRANCH   3   4
ENDBRANCH   2   3
ENDBRANCH   1   2
BRANCH   1  14
HETATM   14  C12 UNL     1     -16.573   0.410   4.194  1.00  0.00     0.005 C 
BRANCH  14  15
HETATM   15  C13 UNL     1     -16.075  -0.061   5.533  1.00  0.00     0.044 C 
BRANCH  15  16
HETATM   16  C14 UNL     1     -15.932  -1.538   5.642  1.00  0.00     0.056 C 
BRANCH  16  17
HETATM   17  N2  UNL     1     -15.075  -2.083   6.577  1.00  0.00    -0.398 N 
ATOM     18  H2  UNL     1     -14.811  -1.493   7.365  1.00  0.00     0.159 HD
BRANCH  17  19
HETATM   19  C15 UNL     1     -14.537  -3.370   6.539  1.00  0.00     0.080 C 
HETATM   20  C16 UNL     1     -13.056  -3.490   6.632  1.00  0.00     0.025 C 
HETATM   21  C17 UNL     1     -12.457  -4.525   7.475  1.00  0.00     0.002 C 
HETATM   22  C18 UNL     1     -13.291  -5.569   8.098  1.00  0.00     0.000 C 
HETATM   23  C19 UNL     1     -13.704  -6.723   7.257  1.00  0.00     0.000 C 
HETATM   24  C20 UNL     1     -14.210  -6.438   5.899  1.00  0.00     0.000 C 
HETATM   25  C21 UNL     1     -15.482  -5.617   5.915  1.00  0.00     0.002 C 
HETATM   26  C22 UNL     1     -15.167  -4.187   5.433  1.00  0.00     0.025 C 
ENDBRANCH  17  19
ENDBRANCH  16  17
ENDBRANCH  15  16
ENDBRANCH  14  15
ENDBRANCH   1  14
TORSDOF 15
ENDMDL
MODEL 4
REMARK VINA RESULT: -8.282814093      0.835      1.690
REMARK  15 active torsions:
REMARK  status: ('A' for Active; 'I' for Inactive)
REMARK    1  A    between atoms: C2_2  and  C3_3 
REMARK    2  A    between atoms: C3_3  and  N1_4 
REMARK    3  A    between atoms: N1_4  and  C4_6 
REMARK    4  A    between atoms: C4_6  and  C5_7 
REMARK    5  A    between atoms: C5_7  and  C6_8 
REMARK    6  A    between atoms: C6_8  and  C7_9 
REMARK    7  A    between atoms: C7_9  and  C8_10 
REMARK    8  A    between atoms: C8_10  and  C9_11 
REMARK    9  A    between atoms: C9_11  and  C10_12 
REMARK   10  A    between atoms: C10_12  and  C11_13 
REMARK   11  A    between atoms: C11_13  and  C12_14 
REMARK   12  A    between atoms: C12_14  and  C13_15 
REMARK   13  A    between atoms: C13_15  and  C14_16 
REMARK   14  A    between atoms: C14_16  and  N2_17 
REMARK   15  A    between atoms: N2_17  and  C15_19 
ROOT
HETATM    1  C11 UNL     1     -15.744   2.105   3.176  1.00  0.00     0.000 C 
ENDROOT
BRANCH   1   2
HETATM    2  C10 UNL     1     -16.534   2.162   1.921  1.00  0.00     0.000 C 
BRANCH   2   3
HETATM    3  C9  UNL     1     -15.899   2.894   0.783  1.00  0.00     0.000 C 
BRANCH   3   4
HETATM    4  C8  UNL     1     -14.566   3.527   1.119  1.00  0.00     0.000 C 
BRANCH   4   5
HETATM    5  C7  UNL     1     -13.629   3.253  -0.035  1.00  0.00     0.000 C 
BRANCH   5   6
HETATM    6  C6  UNL     1     -13.700   4.290  -1.121  1.00  0.00     0.002 C 
BRANCH   6   7
HETATM    7  C5  UNL     1     -13.410   3.676  -2.473  1.00  0.00     0.019 C 
BRANCH   7   8
HETATM    8  C4  UNL     1     -11.930   3.947  -2.826  1.00  0.00     0.114 C 
BRANCH   8   9
HETATM    9  N1  UNL     1     -11.341   2.815  -3.455  1.00  0.00    -0.418 N 
ATOM     10  H1  UNL     1     -11.333   2.704  -4.470  1.00  0.00     0.153 HD
BRANCH   9  11
HETATM   11  C3  UNL     1     -10.769   1.852  -2.592  1.00  0.00     0.140 C 
BRANCH  11  12
HETATM   12  C2  UNL     1      -9.896   2.365  -1.515  1.00  0.00    -0.018 C 
HETATM   13  C1  UNL     1     -10.095   2.155  -0.234  1.00  0.00     0.008 C 
ENDBRANCH  11  12
ENDBRANCH   9  11
ENDBRANCH   8   9
ENDBRANCH   7   8
ENDBRANCH   6   7
ENDBRANCH   5   6
ENDBRANCH   4   5
ENDBRANCH   3   4
ENDBRANCH   2   3
ENDBRANCH   1   2
BRANCH   1  14
HETATM   14  C12 UNL     1     -15.744   0.821   3.900  1.00  0.00     0.005 C 
BRANCH  14  15
HETATM   15  C13 UNL     1     -17.096   0.310   4.316  1.00  0.00     0.044 C 
BRANCH  15  16
HETATM   16  C14 UNL     1     -17.078  -0.515   5.554  1.00  0.00     0.056 C 
BRANCH  16  17
HETATM   17  N2  UNL     1     -17.376  -1.862   5.493  1.00  0.00    -0.398 N 
ATOM     18  H2  UNL     1     -18.349  -2.116   5.330  1.00  0.00     0.159 HD
BRANCH  17  19
HETATM   19  C15 UNL     1     -16.462  -2.907   5.633  1.00  0.00     0.080 C 
HETATM   20  C16 UNL     1     -15.124  -2.729   5.003  1.00  0.00     0.025 C 
HETATM   21  C17 UNL     1     -13.916  -3.127   5.725  1.00  0.00     0.002 C 
HETATM   22  C18 UNL     1     -14.005  -3.868   6.996  1.00  0.00     0.000 C 
HETATM   23  C19 UNL     1     -14.252  -5.333   6.933  1.00  0.00     0.000 C 
HETATM   24  C20 UNL     1     -15.302  -5.813   6.012  1.00  0.00     0.000 C 
HETATM   25  C21 UNL     1     -16.677  -5.300   6.383  1.00  0.00     0.002 C 
HETATM   26  C22 UNL     1     -17.117  -4.241   5.352  1.00  0.00     0.025 C 
ENDBRANCH  17  19
ENDBRANCH  16  17
ENDBRANCH  15  16
ENDBRANCH  14  15
ENDBRANCH   1  14
TORSDOF 15
ENDMDL
MODEL 5
REMARK VINA RESULT: -8.230317934      1.222      2.037
REMARK  15 active torsions:
REMARK  status: ('A' for Active; 'I' for Inactive)
REMARK    1  A    between atoms: C2_2  and  C3_3 
REMARK    2  A    between atoms: C3_3  and  N1_4 
REMARK    3  A    between atoms: N1_4  and  C4_6 
REMARK    4  A    between atoms: C4_6  and  C5_7 
REMARK    5  A    between atoms: C5_7  and  C6_8 
REMARK    6  A    between atoms: C6_8  and  C7_9 
REMARK    7  A    between atoms: C7_9  and  C8_10 
REMARK    8  A    between atoms: C8_10  and  C9_11 
REMARK    9  A    between atoms: C9_11  and  C10_12 
REMARK   10  A    between atoms: C10_12  and  C11_13 
REMARK   11  A    between atoms: C11_13  and  C12_14 
REMARK   12  A    between atoms: C12_14  and  C13_15 
REMARK   13  A    between atoms: C13_15  and  C14_16 
REMARK   14  A    between atoms: C14_16  and  N2_17 
REMARK   15  A    between atoms: N2_17  and  C15_19 
ROOT
HETATM    1  C11 UNL     1     -16.242   2.230   1.693  1.00  0.00     0.000 C 
ENDROOT
BRANCH   1   2
HETATM    2  C10 UNL     1     -15.034   2.681   0.959  1.00  0.00     0.000 C 
BRANCH   2   3
HETATM    3  C9  UNL     1     -14.549   4.057   1.284  1.00  0.00     0.000 C 
BRANCH   3   4
HETATM    4  C8  UNL     1     -14.902   5.100   0.246  1.00  0.00     0.000 C 
BRANCH   4   5
HETATM    5  C7  UNL     1     -14.428   4.586  -1.095  1.00  0.00     0.000 C 
BRANCH   5   6
HETATM    6  C6  UNL     1     -13.560   5.562  -1.836  1.00  0.00     0.002 C 
BRANCH   6   7
HETATM    7  C5  UNL     1     -12.269   4.910  -2.277  1.00  0.00     0.019 C 
BRANCH   7   8
HETATM    8  C4  UNL     1     -12.582   3.472  -2.748  1.00  0.00     0.114 C 
BRANCH   8   9
HETATM    9  N1  UNL     1     -11.454   2.890  -3.392  1.00  0.00    -0.418 N 
ATOM     10  H1  UNL     1     -11.065   3.276  -4.253  1.00  0.00     0.153 HD
BRANCH   9  11
HETATM   11  C3  UNL     1     -10.905   1.746  -2.769  1.00  0.00     0.140 C 
BRANCH  11  12
HETATM   12  C2  UNL     1     -10.555   1.875  -1.339  1.00  0.00    -0.018 C 
HETATM   13  C1  UNL     1      -9.492   2.501  -0.887  1.00  0.00     0.008 C 
ENDBRANCH  11  12
ENDBRANCH   9  11
ENDBRANCH   8   9
ENDBRANCH   7   8
ENDBRANCH   6   7
ENDBRANCH   5   6
ENDBRANCH   4   5
ENDBRANCH   3   4
ENDBRANCH   2   3
ENDBRANCH   1   2
BRANCH   1  14
HETATM   14  C12 UNL     1     -16.149   2.195   3.164  1.00  0.00     0.005 C 
BRANCH  14  15
HETATM   15  C13 UNL     1     -15.819   0.856   3.762  1.00  0.00     0.044 C 
BRANCH  15  16
HETATM   16  C14 UNL     1     -16.942   0.233   4.513  1.00  0.00     0.056 C 
BRANCH  16  17
HETATM   17  N2  UNL     1     -16.975  -1.135   4.702  1.00  0.00    -0.398 N 
ATOM     18  H2  UNL     1     -17.616  -1.669   4.116  1.00  0.00     0.159 HD
BRANCH  17  19
HETATM   19  C15 UNL     1     -16.209  -1.850   5.623  1.00  0.00     0.080 C 
HETATM   20  C16 UNL     1     -15.858  -1.161   6.895  1.00  0.00     0.025 C 
HETATM   21  C17 UNL     1     -15.941  -1.881   8.166  1.00  0.00     0.002 C 
HETATM   22  C18 UNL     1     -16.196  -3.333   8.196  1.00  0.00     0.000 C 
HETATM   23  C19 UNL     1     -15.051  -4.246   7.941  1.00  0.00     0.000 C 
HETATM   24  C20 UNL     1     -14.159  -3.930   6.808  1.00  0.00     0.000 C 
HETATM   25  C21 UNL     1     -14.875  -3.979   5.475  1.00  0.00     0.002 C 
HETATM   26  C22 UNL     1     -15.050  -2.544   4.942  1.00  0.00     0.025 C 
ENDBRANCH  17  19
ENDBRANCH  16  17
ENDBRANCH  15  16
ENDBRANCH  14  15
ENDBRANCH   1  14
TORSDOF 15
ENDMDL
