MODEL 1
REMARK VINA RESULT: -10.290375878      0.000      0.000
REMARK  8 active torsions:
REMARK  status: ('A' for Active; 'I' for Inactive)
REMARK    1  A    between atoms: C2_2  and  C3_3 
REMARK    2  A    between atoms: C5_5  and  C6_6 
REMARK    3  A    between atoms: C6_6  and  C7_7 
REMARK       I    between atoms: C7_7  and  N1_9 
REMARK    4  A    between atoms: N1_9  and  S1_11 
REMARK    5  A    between atoms: S1_11  and  C8_14 
REMARK    6  A    between atoms: C14_24  and  S2_25 
REMARK    7  A    between atoms: S2_25  and  C15_27 
REMARK    8  A    between atoms: S2_25  and  C16_30 
ROOT
HETATM    1  C3  UNL     1     -22.160  18.293  -7.929  1.00  0.00    -0.054 A 
HETATM    2  C4  UNL     1     -21.408  19.337  -8.409  1.00  0.00     0.032 A 
HETATM    3  C5  UNL     1     -20.062  19.457  -8.039  1.00  0.00     0.019 A 
HETATM    4  N2  UNL     1     -19.525  18.541  -7.214  1.00  0.00    -0.352 N 
ATOM      5  H2  UNL     1     -18.544  18.638  -6.951  1.00  0.00     0.166 HD
HETATM    6  C14 UNL     1     -20.221  17.507  -6.723  1.00  0.00     0.103 A 
HETATM    7  C22 UNL     1     -21.562  17.391  -7.092  1.00  0.00     0.046 A 
ENDROOT
BRANCH   3   8
HETATM    8  C6  UNL     1     -19.280  20.599  -8.558  1.00  0.00     0.160 C 
BRANCH   8   9
HETATM    9  C7  UNL     1     -17.839  20.319  -8.753  1.00  0.00     0.236 C 
HETATM   10  O1  UNL     1     -17.283  19.389  -8.114  1.00  0.00    -0.272 OA
HETATM   11  N1  UNL     1     -17.107  21.114  -9.666  1.00  0.00    -0.250 N 
ATOM     12  H1  UNL     1     -17.594  21.855 -10.169  1.00  0.00     0.181 HD
BRANCH  11  13
HETATM   13  S1  UNL     1     -15.446  20.885  -9.960  1.00  0.00     0.267 S 
HETATM   14  O2  UNL     1     -15.239  19.487 -10.529  1.00  0.00    -0.200 OA
HETATM   15  O3  UNL     1     -14.628  21.045  -8.695  1.00  0.00    -0.200 OA
BRANCH  13  16
HETATM   16  C8  UNL     1     -14.769  21.980 -11.138  1.00  0.00     0.103 A 
HETATM   17  C9  UNL     1     -14.377  21.643 -12.392  1.00  0.00     0.027 A 
HETATM   18  C10 UNL     1     -13.850  22.611 -13.223  1.00  0.00     0.003 A 
HETATM   19  C11 UNL     1     -13.724  23.922 -12.776  1.00  0.00     0.026 A 
HETATM   20  C12 UNL     1     -14.113  24.283 -11.518  1.00  0.00     0.057 A 
HETATM   21 CL1  UNL     1     -13.958  25.944 -10.943  1.00  0.00    -0.083 Cl
HETATM   22  C13 UNL     1     -14.632  23.306 -10.712  1.00  0.00     0.079 A 
HETATM   23 CL2  UNL     1     -15.133  23.790  -9.092  1.00  0.00    -0.081 Cl
ENDBRANCH  13  16
ENDBRANCH  11  13
ENDBRANCH   8   9
ENDBRANCH   3   8
BRANCH   1  24
HETATM   24  C2  UNL     1     -23.580  18.205  -8.346  1.00  0.00     0.034 C 
HETATM   25  C1  UNL     1     -24.324  19.483  -8.138  1.00  0.00     0.010 C 
ENDBRANCH   1  24
BRANCH   6  26
HETATM   26  S2  UNL     1     -19.499  16.308  -5.657  1.00  0.00     0.106 S 
HETATM   27  O4  UNL     1     -20.493  15.205  -5.326  1.00  0.00    -0.249 OA
BRANCH  26  28
HETATM   28  C15 UNL     1     -19.296  16.926  -4.203  1.00  0.00     0.332 C 
HETATM   29  F1  UNL     1     -18.268  17.723  -4.026  1.00  0.00    -0.163 F 
HETATM   30  F2  UNL     1     -20.151  16.574  -3.272  1.00  0.00    -0.163 F 
ENDBRANCH  26  28
BRANCH  26  31
HETATM   31  C16 UNL     1     -18.004  15.716  -6.275  1.00  0.00     0.036 A 
HETATM   32  C17 UNL     1     -17.278  14.807  -5.540  1.00  0.00     0.023 A 
HETATM   33  C18 UNL     1     -16.091  14.318  -6.006  1.00  0.00     0.027 A 
HETATM   34  C19 UNL     1     -15.586  14.719  -7.222  1.00  0.00     0.055 A 
HETATM   35 CL3  UNL     1     -14.046  14.062  -7.788  1.00  0.00    -0.083 Cl
HETATM   36  C20 UNL     1     -16.286  15.631  -7.989  1.00  0.00     0.057 A 
HETATM   37 CL4  UNL     1     -15.646  16.149  -9.544  1.00  0.00    -0.083 Cl
HETATM   38  C21 UNL     1     -17.485  16.109  -7.491  1.00  0.00     0.046 A 
ENDBRANCH  26  31
ENDBRANCH   6  26
TORSDOF 8
ENDMDL
MODEL 2
REMARK VINA RESULT: -10.167625016      3.376      5.081
REMARK  8 active torsions:
REMARK  status: ('A' for Active; 'I' for Inactive)
REMARK    1  A    between atoms: C2_2  and  C3_3 
REMARK    2  A    between atoms: C5_5  and  C6_6 
REMARK    3  A    between atoms: C6_6  and  C7_7 
REMARK       I    between atoms: C7_7  and  N1_9 
REMARK    4  A    between atoms: N1_9  and  S1_11 
REMARK    5  A    between atoms: S1_11  and  C8_14 
REMARK    6  A    between atoms: C14_24  and  S2_25 
REMARK    7  A    between atoms: S2_25  and  C15_27 
REMARK    8  A    between atoms: S2_25  and  C16_30 
ROOT
HETATM    1  C3  UNL     1     -16.488  15.605  -7.149  1.00  0.00    -0.054 A 
HETATM    2  C4  UNL     1     -15.664  16.295  -8.004  1.00  0.00     0.032 A 
HETATM    3  C5  UNL     1     -16.102  17.495  -8.580  1.00  0.00     0.019 A 
HETATM    4  N2  UNL     1     -17.330  17.955  -8.283  1.00  0.00    -0.352 N 
ATOM      5  H2  UNL     1     -17.639  18.830  -8.708  1.00  0.00     0.166 HD
HETATM    6  C14 UNL     1     -18.166  17.315  -7.453  1.00  0.00     0.103 A 
HETATM    7  C22 UNL     1     -17.728  16.119  -6.883  1.00  0.00     0.046 A 
ENDROOT
BRANCH   3   8
HETATM    8  C6  UNL     1     -15.201  18.209  -9.509  1.00  0.00     0.160 C 
BRANCH   8   9
HETATM    9  C7  UNL     1     -15.362  19.681  -9.511  1.00  0.00     0.236 C 
HETATM   10  O1  UNL     1     -15.599  20.293  -8.437  1.00  0.00    -0.272 OA
HETATM   11  N1  UNL     1     -15.243  20.379 -10.735  1.00  0.00    -0.250 N 
ATOM     12  H1  UNL     1     -15.045  19.848 -11.583  1.00  0.00     0.181 HD
BRANCH  11  13
HETATM   13  S1  UNL     1     -15.418  22.068 -10.853  1.00  0.00     0.267 S 
HETATM   14  O2  UNL     1     -14.443  22.729  -9.887  1.00  0.00    -0.200 OA
HETATM   15  O3  UNL     1     -16.831  22.507 -10.529  1.00  0.00    -0.200 OA
BRANCH  13  16
HETATM   16  C8  UNL     1     -15.038  22.720 -12.427  1.00  0.00     0.103 A 
HETATM   17  C9  UNL     1     -15.935  22.964 -13.415  1.00  0.00     0.027 A 
HETATM   18  C10 UNL     1     -15.497  23.478 -14.619  1.00  0.00     0.003 A 
HETATM   19  C11 UNL     1     -14.145  23.745 -14.814  1.00  0.00     0.026 A 
HETATM   20  C12 UNL     1     -13.227  23.509 -13.832  1.00  0.00     0.057 A 
HETATM   21 CL1  UNL     1     -11.511  23.845 -14.070  1.00  0.00    -0.083 Cl
HETATM   22  C13 UNL     1     -13.685  22.998 -12.647  1.00  0.00     0.079 A 
HETATM   23 CL2  UNL     1     -12.485  22.701 -11.389  1.00  0.00    -0.081 Cl
ENDBRANCH  13  16
ENDBRANCH  11  13
ENDBRANCH   8   9
ENDBRANCH   3   8
BRANCH   1  24
HETATM   24  C2  UNL     1     -15.984  14.339  -6.562  1.00  0.00     0.034 C 
HETATM   25  C1  UNL     1     -16.727  13.937  -5.331  1.00  0.00     0.010 C 
ENDBRANCH   1  24
BRANCH   6  26
HETATM   26  S2  UNL     1     -19.764  17.938  -7.062  1.00  0.00     0.106 S 
HETATM   27  O4  UNL     1     -20.852  17.077  -7.685  1.00  0.00    -0.249 OA
BRANCH  26  28
HETATM   28  C15 UNL     1     -20.023  19.300  -7.847  1.00  0.00     0.332 C 
HETATM   29  F1  UNL     1     -19.148  20.264  -7.685  1.00  0.00    -0.163 F 
HETATM   30  F2  UNL     1     -21.109  19.378  -8.580  1.00  0.00    -0.163 F 
ENDBRANCH  26  28
BRANCH  26  31
HETATM   31  C16 UNL     1     -19.965  18.172  -5.368  1.00  0.00     0.036 A 
HETATM   32  C17 UNL     1     -19.038  17.649  -4.495  1.00  0.00     0.023 A 
HETATM   33  C18 UNL     1     -19.170  17.822  -3.146  1.00  0.00     0.027 A 
HETATM   34  C19 UNL     1     -20.232  18.524  -2.621  1.00  0.00     0.055 A 
HETATM   35 CL3  UNL     1     -20.366  18.724  -0.870  1.00  0.00    -0.083 Cl
HETATM   36  C20 UNL     1     -21.183  19.064  -3.466  1.00  0.00     0.057 A 
HETATM   37 CL4  UNL     1     -22.543  19.961  -2.801  1.00  0.00    -0.083 Cl
HETATM   38  C21 UNL     1     -21.023  18.872  -4.826  1.00  0.00     0.046 A 
ENDBRANCH  26  31
ENDBRANCH   6  26
TORSDOF 8
ENDMDL
MODEL 3
REMARK VINA RESULT: -10.078061154      2.983      4.886
REMARK  8 active torsions:
REMARK  status: ('A' for Active; 'I' for Inactive)
REMARK    1  A    between atoms: C2_2  and  C3_3 
REMARK    2  A    between atoms: C5_5  and  C6_6 
REMARK    3  A    between atoms: C6_6  and  C7_7 
REMARK       I    between atoms: C7_7  and  N1_9 
REMARK    4  A    between atoms: N1_9  and  S1_11 
REMARK    5  A    between atoms: S1_11  and  C8_14 
REMARK    6  A    between atoms: C14_24  and  S2_25 
REMARK    7  A    between atoms: S2_25  and  C15_27 
REMARK    8  A    between atoms: S2_25  and  C16_30 
ROOT
HETATM    1  C3  UNL     1     -16.353  16.352  -7.787  1.00  0.00    -0.054 A 
HETATM    2  C4  UNL     1     -16.453  17.575  -8.402  1.00  0.00     0.032 A 
HETATM    3  C5  UNL     1     -17.307  18.555  -7.877  1.00  0.00     0.019 A 
HETATM    4  N2  UNL     1     -18.019  18.278  -6.770  1.00  0.00    -0.352 N 
ATOM      5  H2  UNL     1     -18.637  18.998  -6.396  1.00  0.00     0.166 HD
HETATM    6  C14 UNL     1     -17.952  17.099  -6.137  1.00  0.00     0.103 A 
HETATM    7  C22 UNL     1     -17.102  16.125  -6.664  1.00  0.00     0.046 A 
ENDROOT
BRANCH   3   8
HETATM    8  C6  UNL     1     -17.407  19.857  -8.568  1.00  0.00     0.160 C 
BRANCH   8   9
HETATM    9  C7  UNL     1     -16.110  20.423  -9.004  1.00  0.00     0.236 C 
HETATM   10  O1  UNL     1     -15.103  20.350  -8.252  1.00  0.00    -0.272 OA
HETATM   11  N1  UNL     1     -16.028  21.042 -10.273  1.00  0.00    -0.250 N 
ATOM     12  H1  UNL     1     -16.864  21.076 -10.856  1.00  0.00     0.181 HD
BRANCH  11  13
HETATM   13  S1  UNL     1     -14.591  21.731 -10.870  1.00  0.00     0.267 S 
HETATM   14  O2  UNL     1     -13.631  20.610 -11.250  1.00  0.00    -0.200 OA
HETATM   15  O3  UNL     1     -13.937  22.634  -9.844  1.00  0.00    -0.200 OA
BRANCH  13  16
HETATM   16  C8  UNL     1     -14.800  22.685 -12.316  1.00  0.00     0.103 A 
HETATM   17  C9  UNL     1     -14.129  22.504 -13.482  1.00  0.00     0.027 A 
HETATM   18  C10 UNL     1     -14.389  23.337 -14.551  1.00  0.00     0.003 A 
HETATM   19  C11 UNL     1     -15.332  24.352 -14.433  1.00  0.00     0.026 A 
HETATM   20  C12 UNL     1     -16.018  24.551 -13.270  1.00  0.00     0.057 A 
HETATM   21 CL1  UNL     1     -17.217  25.836 -13.112  1.00  0.00    -0.083 Cl
HETATM   22  C13 UNL     1     -15.744  23.713 -12.223  1.00  0.00     0.079 A 
HETATM   23 CL2  UNL     1     -16.642  23.982 -10.729  1.00  0.00    -0.081 Cl
ENDBRANCH  13  16
ENDBRANCH  11  13
ENDBRANCH   8   9
ENDBRANCH   3   8
BRANCH   1  24
HETATM   24  C2  UNL     1     -15.438  15.345  -8.377  1.00  0.00     0.034 C 
HETATM   25  C1  UNL     1     -14.876  14.408  -7.359  1.00  0.00     0.010 C 
ENDBRANCH   1  24
BRANCH   6  26
HETATM   26  S2  UNL     1     -18.877  16.757  -4.681  1.00  0.00     0.106 S 
HETATM   27  O4  UNL     1     -18.092  17.134  -3.434  1.00  0.00    -0.249 OA
BRANCH  26  28
HETATM   28  C15 UNL     1     -18.982  15.183  -4.461  1.00  0.00     0.332 C 
HETATM   29  F1  UNL     1     -17.946  14.579  -3.928  1.00  0.00    -0.163 F 
HETATM   30  F2  UNL     1     -20.085  14.590  -4.854  1.00  0.00    -0.163 F 
ENDBRANCH  26  28
BRANCH  26  31
HETATM   31  C16 UNL     1     -20.447  17.463  -4.738  1.00  0.00     0.036 A 
HETATM   32  C17 UNL     1     -20.913  18.172  -3.654  1.00  0.00     0.023 A 
HETATM   33  C18 UNL     1     -22.153  18.746  -3.672  1.00  0.00     0.027 A 
HETATM   34  C19 UNL     1     -22.971  18.633  -4.773  1.00  0.00     0.055 A 
HETATM   35 CL3  UNL     1     -24.568  19.390  -4.755  1.00  0.00    -0.083 Cl
HETATM   36  C20 UNL     1     -22.539  17.929  -5.880  1.00  0.00     0.057 A 
HETATM   37 CL4  UNL     1     -23.581  17.779  -7.290  1.00  0.00    -0.083 Cl
HETATM   38  C21 UNL     1     -21.279  17.359  -5.833  1.00  0.00     0.046 A 
ENDBRANCH  26  31
ENDBRANCH   6  26
TORSDOF 8
ENDMDL
MODEL 4
REMARK VINA RESULT: -10.039393096      3.520      9.147
REMARK  8 active torsions:
REMARK  status: ('A' for Active; 'I' for Inactive)
REMARK    1  A    between atoms: C2_2  and  C3_3 
REMARK    2  A    between atoms: C5_5  and  C6_6 
REMARK    3  A    between atoms: C6_6  and  C7_7 
REMARK       I    between atoms: C7_7  and  N1_9 
REMARK    4  A    between atoms: N1_9  and  S1_11 
REMARK    5  A    between atoms: S1_11  and  C8_14 
REMARK    6  A    between atoms: C14_24  and  S2_25 
REMARK    7  A    between atoms: S2_25  and  C15_27 
REMARK    8  A    between atoms: S2_25  and  C16_30 
ROOT
HETATM    1  C3  UNL     1     -16.619  19.298  -8.114  1.00  0.00    -0.054 A 
HETATM    2  C4  UNL     1     -17.946  19.633  -8.218  1.00  0.00     0.032 A 
HETATM    3  C5  UNL     1     -18.339  20.688  -9.054  1.00  0.00     0.019 A 
HETATM    4  N2  UNL     1     -17.401  21.359  -9.746  1.00  0.00    -0.352 N 
ATOM      5  H2  UNL     1     -17.697  22.125 -10.351  1.00  0.00     0.166 HD
HETATM    6  C14 UNL     1     -16.095  21.066  -9.675  1.00  0.00     0.103 A 
HETATM    7  C22 UNL     1     -15.708  20.016  -8.840  1.00  0.00     0.046 A 
ENDROOT
BRANCH   3   8
HETATM    8  C6  UNL     1     -19.772  21.036  -9.135  1.00  0.00     0.160 C 
BRANCH   8   9
HETATM    9  C7  UNL     1     -20.580  20.592  -7.977  1.00  0.00     0.236 C 
HETATM   10  O1  UNL     1     -20.766  21.366  -7.001  1.00  0.00    -0.272 OA
HETATM   11  N1  UNL     1     -21.132  19.290  -7.988  1.00  0.00    -0.250 N 
ATOM     12  H1  UNL     1     -20.963  18.695  -8.799  1.00  0.00     0.181 HD
BRANCH  11  13
HETATM   13  S1  UNL     1     -22.067  18.675  -6.707  1.00  0.00     0.267 S 
HETATM   14  O2  UNL     1     -22.665  17.340  -7.134  1.00  0.00    -0.200 OA
HETATM   15  O3  UNL     1     -23.179  19.628  -6.320  1.00  0.00    -0.200 OA
BRANCH  13  16
HETATM   16  C8  UNL     1     -21.162  18.343  -5.253  1.00  0.00     0.103 A 
HETATM   17  C9  UNL     1     -21.418  18.868  -4.028  1.00  0.00     0.027 A 
HETATM   18  C10 UNL     1     -20.616  18.524  -2.959  1.00  0.00     0.003 A 
HETATM   19  C11 UNL     1     -19.553  17.644  -3.138  1.00  0.00     0.026 A 
HETATM   20  C12 UNL     1     -19.278  17.103  -4.361  1.00  0.00     0.057 A 
HETATM   21 CL1  UNL     1     -17.934  15.986  -4.597  1.00  0.00    -0.083 Cl
HETATM   22  C13 UNL     1     -20.087  17.460  -5.406  1.00  0.00     0.079 A 
HETATM   23 CL2  UNL     1     -19.720  16.750  -6.979  1.00  0.00    -0.081 Cl
ENDBRANCH  13  16
ENDBRANCH  11  13
ENDBRANCH   8   9
ENDBRANCH   3   8
BRANCH   1  24
HETATM   24  C2  UNL     1     -16.249  18.176  -7.218  1.00  0.00     0.034 C 
HETATM   25  C1  UNL     1     -16.132  16.874  -7.941  1.00  0.00     0.010 C 
ENDBRANCH   1  24
BRANCH   6  26
HETATM   26  S2  UNL     1     -14.882  21.943 -10.598  1.00  0.00     0.106 S 
HETATM   27  O4  UNL     1     -13.906  20.986 -11.264  1.00  0.00    -0.249 OA
BRANCH  26  28
HETATM   28  C15 UNL     1     -13.883  22.692  -9.608  1.00  0.00     0.332 C 
HETATM   29  F1  UNL     1     -14.264  22.831  -8.360  1.00  0.00    -0.163 F 
HETATM   30  F2  UNL     1     -12.761  23.149 -10.113  1.00  0.00    -0.163 F 
ENDBRANCH  26  28
BRANCH  26  31
HETATM   31  C16 UNL     1     -15.595  23.064 -11.695  1.00  0.00     0.036 A 
HETATM   32  C17 UNL     1     -16.100  24.252 -11.219  1.00  0.00     0.023 A 
HETATM   33  C18 UNL     1     -16.668  25.162 -12.067  1.00  0.00     0.027 A 
HETATM   34  C19 UNL     1     -16.752  24.915 -13.418  1.00  0.00     0.055 A 
HETATM   35 CL3  UNL     1     -17.495  26.118 -14.480  1.00  0.00    -0.083 Cl
HETATM   36  C20 UNL     1     -16.256  23.733 -13.933  1.00  0.00     0.057 A 
HETATM   37 CL4  UNL     1     -16.362  23.412 -15.660  1.00  0.00    -0.083 Cl
HETATM   38  C21 UNL     1     -15.687  22.832 -13.052  1.00  0.00     0.046 A 
ENDBRANCH  26  31
ENDBRANCH   6  26
TORSDOF 8
ENDMDL
MODEL 5
REMARK VINA RESULT: -9.957764488      3.458      5.163
REMARK  8 active torsions:
REMARK  status: ('A' for Active; 'I' for Inactive)
REMARK    1  A    between atoms: C2_2  and  C3_3 
REMARK    2  A    between atoms: C5_5  and  C6_6 
REMARK    3  A    between atoms: C6_6  and  C7_7 
REMARK       I    between atoms: C7_7  and  N1_9 
REMARK    4  A    between atoms: N1_9  and  S1_11 
REMARK    5  A    between atoms: S1_11  and  C8_14 
REMARK    6  A    between atoms: C14_24  and  S2_25 
REMARK    7  A    between atoms: S2_25  and  C15_27 
REMARK    8  A    between atoms: S2_25  and  C16_30 
ROOT
HETATM    1  C3  UNL     1     -16.376  15.837  -7.248  1.00  0.00    -0.054 A 
HETATM    2  C4  UNL     1     -15.625  16.512  -8.179  1.00  0.00     0.032 A 
HETATM    3  C5  UNL     1     -16.143  17.658  -8.797  1.00  0.00     0.019 A 
HETATM    4  N2  UNL     1     -17.376  18.080  -8.466  1.00  0.00    -0.352 N 
ATOM      5  H2  UNL     1     -17.744  18.915  -8.923  1.00  0.00     0.166 HD
HETATM    6  C14 UNL     1     -18.143  17.453  -7.563  1.00  0.00     0.103 A 
HETATM    7  C22 UNL     1     -17.624  16.311  -6.950  1.00  0.00     0.046 A 
ENDROOT
BRANCH   3   8
HETATM    8  C6  UNL     1     -15.320  18.356  -9.807  1.00  0.00     0.160 C 
BRANCH   8   9
HETATM    9  C7  UNL     1     -15.355  19.833  -9.713  1.00  0.00     0.236 C 
HETATM   10  O1  UNL     1     -15.790  20.391  -8.672  1.00  0.00    -0.272 OA
HETATM   11  N1  UNL     1     -14.893  20.598 -10.810  1.00  0.00    -0.250 N 
ATOM     12  H1  UNL     1     -14.544  20.109 -11.634  1.00  0.00     0.181 HD
BRANCH  11  13
HETATM   13  S1  UNL     1     -14.897  22.300 -10.812  1.00  0.00     0.267 S 
HETATM   14  O2  UNL     1     -14.282  22.792  -9.508  1.00  0.00    -0.200 OA
HETATM   15  O3  UNL     1     -16.300  22.855 -10.954  1.00  0.00    -0.200 OA
BRANCH  13  16
HETATM   16  C8  UNL     1     -13.942  23.017 -12.085  1.00  0.00     0.103 A 
HETATM   17  C9  UNL     1     -12.685  23.508 -11.945  1.00  0.00     0.027 A 
HETATM   18  C10 UNL     1     -12.044  24.056 -13.037  1.00  0.00     0.003 A 
HETATM   19  C11 UNL     1     -12.683  24.101 -14.272  1.00  0.00     0.026 A 
HETATM   20  C12 UNL     1     -13.947  23.612 -14.435  1.00  0.00     0.057 A 
HETATM   21 CL1  UNL     1     -14.764  23.664 -15.998  1.00  0.00    -0.083 Cl
HETATM   22  C13 UNL     1     -14.563  23.074 -13.337  1.00  0.00     0.079 A 
HETATM   23 CL2  UNL     1     -16.194  22.443 -13.567  1.00  0.00    -0.081 Cl
ENDBRANCH  13  16
ENDBRANCH  11  13
ENDBRANCH   8   9
ENDBRANCH   3   8
BRANCH   1  24
HETATM   24  C2  UNL     1     -15.788  14.630  -6.618  1.00  0.00     0.034 C 
HETATM   25  C1  UNL     1     -16.749  13.918  -5.725  1.00  0.00     0.010 C 
ENDBRANCH   1  24
BRANCH   6  26
HETATM   26  S2  UNL     1     -19.748  18.027  -7.130  1.00  0.00     0.106 S 
HETATM   27  O4  UNL     1     -20.826  17.160  -7.761  1.00  0.00    -0.249 OA
BRANCH  26  28
HETATM   28  C15 UNL     1     -20.050  19.405  -7.871  1.00  0.00     0.332 C 
HETATM   29  F1  UNL     1     -21.138  19.469  -8.601  1.00  0.00    -0.163 F 
HETATM   30  F2  UNL     1     -19.176  20.373  -7.727  1.00  0.00    -0.163 F 
ENDBRANCH  26  28
BRANCH  26  31
HETATM   31  C16 UNL     1     -19.927  18.208  -5.426  1.00  0.00     0.036 A 
HETATM   32  C17 UNL     1     -18.991  17.655  -4.583  1.00  0.00     0.023 A 
HETATM   33  C18 UNL     1     -19.105  17.786  -3.227  1.00  0.00     0.027 A 
HETATM   34  C19 UNL     1     -20.159  18.473  -2.667  1.00  0.00     0.055 A 
HETATM   35 CL3  UNL     1     -20.269  18.618  -0.909  1.00  0.00    -0.083 Cl
HETATM   36  C20 UNL     1     -21.118  19.042  -3.482  1.00  0.00     0.057 A 
HETATM   37 CL4  UNL     1     -22.467  19.921  -2.772  1.00  0.00    -0.083 Cl
HETATM   38  C21 UNL     1     -20.976  18.893  -4.850  1.00  0.00     0.046 A 
ENDBRANCH  26  31
ENDBRANCH   6  26
TORSDOF 8
ENDMDL
