MODEL 1
REMARK VINA RESULT: -7.495337025      0.000      0.000
REMARK  6 active torsions:
REMARK  status: ('A' for Active; 'I' for Inactive)
REMARK    1  A    between atoms: C17_19  and  O3_20 
REMARK    2  A    between atoms: O3_20  and  C18_21 
REMARK       I    between atoms: C18_21  and  N1_23 
REMARK    3  A    between atoms: N1_23  and  C19_25 
REMARK    4  A    between atoms: C19_25  and  C20_26 
REMARK       I    between atoms: C20_26  and  N2_28 
REMARK    5  A    between atoms: C22_31  and  C23_32 
REMARK    6  A    between atoms: C23_32  and  C24_33 
ROOT
HETATM    1  C1  UNL     1      51.246  32.641  27.744  1.00  0.00     0.016 C 
HETATM    2  C2  UNL     1      51.414  32.581  29.054  1.00  0.00    -0.061 C 
HETATM    3  C3  UNL     1      52.382  31.734  29.749  1.00  0.00     0.041 C 
HETATM    4  C4  UNL     1      52.478  32.316  31.150  1.00  0.00    -0.020 C 
HETATM    5  C5  UNL     1      51.546  33.225  31.300  1.00  0.00    -0.008 C 
HETATM    6  C6  UNL     1      50.708  33.382  30.046  1.00  0.00     0.070 C 
HETATM    7  C7  UNL     1      50.823  34.848  29.722  1.00  0.00     0.155 C 
HETATM    8  O1  UNL     1      51.786  35.446  30.149  1.00  0.00    -0.296 OA
HETATM    9  C8  UNL     1      49.839  35.566  28.927  1.00  0.00     0.122 C 
HETATM   10  C9  UNL     1      49.689  37.033  29.317  1.00  0.00     0.026 C 
HETATM   11  C10 UNL     1      48.506  34.959  28.968  1.00  0.00     0.142 C 
HETATM   12  O2  UNL     1      47.564  35.612  28.564  1.00  0.00    -0.297 OA
HETATM   13  C11 UNL     1      48.241  33.585  29.479  1.00  0.00     0.062 C 
HETATM   14  C12 UNL     1      46.874  33.664  30.125  1.00  0.00     0.018 C 
HETATM   15  C13 UNL     1      49.317  33.086  30.406  1.00  0.00    -0.012 C 
HETATM   16  C14 UNL     1      49.091  33.891  31.714  1.00  0.00     0.018 C 
HETATM   17  C15 UNL     1      48.985  31.665  30.780  1.00  0.00     0.014 C 
HETATM   18  C16 UNL     1      48.483  30.838  29.668  1.00  0.00     0.034 C 
HETATM   19  C17 UNL     1      48.684  29.320  29.897  1.00  0.00     0.137 C 
HETATM   20  C22 UNL     1      50.040  28.851  29.838  1.00  0.00     0.016 C 
HETATM   21  C27 UNL     1      51.056  29.657  29.076  1.00  0.00     0.012 C 
HETATM   22  C28 UNL     1      52.170  30.269  29.822  1.00  0.00    -0.006 C 
HETATM   23  C29 UNL     1      53.522  29.600  29.479  1.00  0.00     0.011 C 
ENDROOT
BRANCH  19  24
HETATM   24  O3  UNL     1      47.929  28.788  28.781  1.00  0.00    -0.298 OA
BRANCH  24  25
HETATM   25  C18 UNL     1      47.917  27.439  28.508  1.00  0.00     0.361 C 
HETATM   26  O4  UNL     1      48.194  26.970  27.353  1.00  0.00    -0.238 OA
HETATM   27  N1  UNL     1      47.596  26.478  29.504  1.00  0.00    -0.328 N 
ATOM     28  H1  UNL     1      47.366  26.792  30.447  1.00  0.00     0.165 HD
BRANCH  27  29
HETATM   29  C19 UNL     1      47.588  25.064  29.205  1.00  0.00     0.227 C 
BRANCH  29  30
HETATM   30  C20 UNL     1      47.736  24.259  30.420  1.00  0.00     0.235 C 
HETATM   31  O5  UNL     1      47.448  23.034  30.382  1.00  0.00    -0.272 OA
HETATM   32  N2  UNL     1      48.196  24.821  31.638  1.00  0.00    -0.364 N 
HETATM   33  C21 UNL     1      48.335  24.012  32.830  1.00  0.00     0.149 C 
ATOM     34  H2  UNL     1      48.433  25.812  31.674  1.00  0.00     0.161 HD
ENDBRANCH  29  30
ENDBRANCH  27  29
ENDBRANCH  24  25
ENDBRANCH  19  24
BRANCH  20  35
HETATM   35  C23 UNL     1      50.663  28.283  31.060  1.00  0.00     0.011 C 
BRANCH  35  36
HETATM   36  C24 UNL     1      50.102  28.635  32.399  1.00  0.00    -0.022 C 
HETATM   37  C25 UNL     1      50.130  27.358  33.300  1.00  0.00     0.009 C 
HETATM   38  C26 UNL     1      50.837  29.656  33.208  1.00  0.00     0.009 C 
ENDBRANCH  35  36
ENDBRANCH  20  35
TORSDOF 6
ENDMDL
MODEL 2
REMARK VINA RESULT: -7.375030757      3.792      7.435
REMARK  6 active torsions:
REMARK  status: ('A' for Active; 'I' for Inactive)
REMARK    1  A    between atoms: C17_19  and  O3_20 
REMARK    2  A    between atoms: O3_20  and  C18_21 
REMARK       I    between atoms: C18_21  and  N1_23 
REMARK    3  A    between atoms: N1_23  and  C19_25 
REMARK    4  A    between atoms: C19_25  and  C20_26 
REMARK       I    between atoms: C20_26  and  N2_28 
REMARK    5  A    between atoms: C22_31  and  C23_32 
REMARK    6  A    between atoms: C23_32  and  C24_33 
ROOT
HETATM    1  C1  UNL     1      50.434  31.430  28.385  1.00  0.00     0.016 C 
HETATM    2  C2  UNL     1      49.816  30.907  29.430  1.00  0.00    -0.061 C 
HETATM    3  C3  UNL     1      48.503  30.264  29.407  1.00  0.00     0.041 C 
HETATM    4  C4  UNL     1      48.426  29.482  30.707  1.00  0.00    -0.020 C 
HETATM    5  C5  UNL     1      49.450  29.801  31.459  1.00  0.00    -0.008 C 
HETATM    6  C6  UNL     1      50.345  30.822  30.785  1.00  0.00     0.070 C 
HETATM    7  C7  UNL     1      51.699  30.163  30.784  1.00  0.00     0.155 C 
HETATM    8  O1  UNL     1      51.739  28.955  30.858  1.00  0.00    -0.296 OA
HETATM    9  C8  UNL     1      52.945  30.908  30.699  1.00  0.00     0.122 C 
HETATM   10  C9  UNL     1      54.107  30.247  31.435  1.00  0.00     0.026 C 
HETATM   11  C10 UNL     1      52.834  32.283  31.194  1.00  0.00     0.142 C 
HETATM   12  O2  UNL     1      53.858  32.900  31.414  1.00  0.00    -0.297 OA
HETATM   13  C11 UNL     1      51.534  32.966  31.445  1.00  0.00     0.062 C 
HETATM   14  C12 UNL     1      51.789  33.868  32.634  1.00  0.00     0.018 C 
HETATM   15  C13 UNL     1      50.396  32.004  31.653  1.00  0.00    -0.012 C 
HETATM   16  C14 UNL     1      50.652  31.417  33.068  1.00  0.00     0.018 C 
HETATM   17  C15 UNL     1      49.130  32.807  31.804  1.00  0.00     0.014 C 
HETATM   18  C16 UNL     1      49.013  33.949  30.880  1.00  0.00     0.034 C 
HETATM   19  C17 UNL     1      47.550  34.397  30.645  1.00  0.00     0.137 C 
HETATM   20  C22 UNL     1      46.734  33.497  29.881  1.00  0.00     0.016 C 
HETATM   21  C27 UNL     1      47.401  32.523  28.950  1.00  0.00     0.012 C 
HETATM   22  C28 UNL     1      47.279  31.082  29.234  1.00  0.00    -0.006 C 
HETATM   23  C29 UNL     1      46.401  30.364  28.181  1.00  0.00     0.011 C 
ENDROOT
BRANCH  19  24
HETATM   24  O3  UNL     1      47.771  35.619  29.898  1.00  0.00    -0.298 OA
BRANCH  24  25
HETATM   25  C18 UNL     1      48.942  35.828  29.207  1.00  0.00     0.361 C 
HETATM   26  O4  UNL     1      49.236  35.185  28.143  1.00  0.00    -0.238 OA
HETATM   27  N1  UNL     1      49.903  36.783  29.636  1.00  0.00    -0.328 N 
ATOM     28  H1  UNL     1      49.724  37.329  30.478  1.00  0.00     0.165 HD
BRANCH  27  29
HETATM   29  C19 UNL     1      51.129  36.996  28.900  1.00  0.00     0.227 C 
BRANCH  29  30
HETATM   30  C20 UNL     1      52.279  36.417  29.597  1.00  0.00     0.235 C 
HETATM   31  O5  UNL     1      52.685  35.272  29.265  1.00  0.00    -0.272 OA
HETATM   32  N2  UNL     1      52.951  37.111  30.635  1.00  0.00    -0.364 N 
HETATM   33  C21 UNL     1      54.086  36.525  31.315  1.00  0.00     0.149 C 
ATOM     34  H2  UNL     1      52.628  38.040  30.907  1.00  0.00     0.161 HD
ENDBRANCH  29  30
ENDBRANCH  27  29
ENDBRANCH  24  25
ENDBRANCH  19  24
BRANCH  20  35
HETATM   35  C23 UNL     1      45.566  32.851  30.532  1.00  0.00     0.011 C 
BRANCH  35  36
HETATM   36  C24 UNL     1      44.345  33.662  30.819  1.00  0.00    -0.022 C 
HETATM   37  C25 UNL     1      43.169  32.689  31.153  1.00  0.00     0.009 C 
HETATM   38  C26 UNL     1      44.390  34.582  31.998  1.00  0.00     0.009 C 
ENDBRANCH  35  36
ENDBRANCH  20  35
TORSDOF 6
ENDMDL
MODEL 3
REMARK VINA RESULT: -7.170139367      2.229      3.280
REMARK  6 active torsions:
REMARK  status: ('A' for Active; 'I' for Inactive)
REMARK    1  A    between atoms: C17_19  and  O3_20 
REMARK    2  A    between atoms: O3_20  and  C18_21 
REMARK       I    between atoms: C18_21  and  N1_23 
REMARK    3  A    between atoms: N1_23  and  C19_25 
REMARK    4  A    between atoms: C19_25  and  C20_26 
REMARK       I    between atoms: C20_26  and  N2_28 
REMARK    5  A    between atoms: C22_31  and  C23_32 
REMARK    6  A    between atoms: C23_32  and  C24_33 
ROOT
HETATM    1  C1  UNL     1      51.250  32.424  28.159  1.00  0.00     0.016 C 
HETATM    2  C2  UNL     1      51.366  32.525  29.472  1.00  0.00    -0.061 C 
HETATM    3  C3  UNL     1      52.233  31.704  30.315  1.00  0.00     0.041 C 
HETATM    4  C4  UNL     1      52.329  32.457  31.631  1.00  0.00    -0.020 C 
HETATM    5  C5  UNL     1      51.474  33.449  31.619  1.00  0.00    -0.008 C 
HETATM    6  C6  UNL     1      50.697  33.505  30.319  1.00  0.00     0.070 C 
HETATM    7  C7  UNL     1      50.948  34.901  29.813  1.00  0.00     0.155 C 
HETATM    8  O1  UNL     1      51.943  35.471  30.203  1.00  0.00    -0.296 OA
HETATM    9  C8  UNL     1      50.058  35.584  28.888  1.00  0.00     0.122 C 
HETATM   10  C9  UNL     1      50.020  37.097  29.077  1.00  0.00     0.026 C 
HETATM   11  C10 UNL     1      48.678  35.097  28.946  1.00  0.00     0.142 C 
HETATM   12  O2  UNL     1      47.809  35.763  28.417  1.00  0.00    -0.297 OA
HETATM   13  C11 UNL     1      48.278  33.828  29.617  1.00  0.00     0.062 C 
HETATM   14  C12 UNL     1      46.901  34.102  30.184  1.00  0.00     0.018 C 
HETATM   15  C13 UNL     1      49.274  33.372  30.650  1.00  0.00    -0.012 C 
HETATM   16  C14 UNL     1      49.072  34.360  31.830  1.00  0.00     0.018 C 
HETATM   17  C15 UNL     1      48.809  32.045  31.189  1.00  0.00     0.014 C 
HETATM   18  C16 UNL     1      48.277  31.120  30.171  1.00  0.00     0.034 C 
HETATM   19  C17 UNL     1      48.340  29.635  30.604  1.00  0.00     0.137 C 
HETATM   20  C22 UNL     1      49.651  29.055  30.668  1.00  0.00     0.016 C 
HETATM   21  C27 UNL     1      50.759  29.669  29.856  1.00  0.00     0.012 C 
HETATM   22  C28 UNL     1      51.894  30.283  30.567  1.00  0.00    -0.006 C 
HETATM   23  C29 UNL     1      53.195  29.468  30.376  1.00  0.00     0.011 C 
ENDROOT
BRANCH  19  24
HETATM   24  O3  UNL     1      47.581  29.022  29.533  1.00  0.00    -0.298 OA
BRANCH  24  25
HETATM   25  C18 UNL     1      46.223  29.217  29.421  1.00  0.00     0.361 C 
HETATM   26  O4  UNL     1      45.693  29.797  28.414  1.00  0.00    -0.238 OA
HETATM   27  N1  UNL     1      45.320  28.778  30.426  1.00  0.00    -0.328 N 
ATOM     28  H1  UNL     1      45.683  28.307  31.255  1.00  0.00     0.165 HD
BRANCH  27  29
HETATM   29  C19 UNL     1      43.895  28.987  30.297  1.00  0.00     0.227 C 
BRANCH  29  30
HETATM   30  C20 UNL     1      43.463  30.191  31.011  1.00  0.00     0.235 C 
HETATM   31  O5  UNL     1      42.775  30.069  32.057  1.00  0.00    -0.272 OA
HETATM   32  N2  UNL     1      43.801  31.491  30.556  1.00  0.00    -0.364 N 
HETATM   33  C21 UNL     1      43.366  32.671  31.272  1.00  0.00     0.149 C 
ATOM     34  H2  UNL     1      44.360  31.596  29.709  1.00  0.00     0.161 HD
ENDBRANCH  29  30
ENDBRANCH  27  29
ENDBRANCH  24  25
ENDBRANCH  19  24
BRANCH  20  35
HETATM   35  C23 UNL     1      50.180  28.607  31.981  1.00  0.00     0.011 C 
BRANCH  35  36
HETATM   36  C24 UNL     1      50.308  27.145  32.260  1.00  0.00    -0.022 C 
HETATM   37  C25 UNL     1      49.829  26.874  33.722  1.00  0.00     0.009 C 
HETATM   38  C26 UNL     1      49.479  26.212  31.436  1.00  0.00     0.009 C 
ENDBRANCH  35  36
ENDBRANCH  20  35
TORSDOF 6
ENDMDL
MODEL 4
REMARK VINA RESULT: -7.168021457      3.173      6.791
REMARK  6 active torsions:
REMARK  status: ('A' for Active; 'I' for Inactive)
REMARK    1  A    between atoms: C17_19  and  O3_20 
REMARK    2  A    between atoms: O3_20  and  C18_21 
REMARK       I    between atoms: C18_21  and  N1_23 
REMARK    3  A    between atoms: N1_23  and  C19_25 
REMARK    4  A    between atoms: C19_25  and  C20_26 
REMARK       I    between atoms: C20_26  and  N2_28 
REMARK    5  A    between atoms: C22_31  and  C23_32 
REMARK    6  A    between atoms: C23_32  and  C24_33 
ROOT
HETATM    1  C1  UNL     1      50.259  30.625  32.720  1.00  0.00     0.016 C 
HETATM    2  C2  UNL     1      50.840  30.886  31.561  1.00  0.00    -0.061 C 
HETATM    3  C3  UNL     1      51.872  31.897  31.336  1.00  0.00     0.041 C 
HETATM    4  C4  UNL     1      52.494  31.534  29.999  1.00  0.00    -0.020 C 
HETATM    5  C5  UNL     1      51.781  30.586  29.440  1.00  0.00    -0.008 C 
HETATM    6  C6  UNL     1      50.603  30.185  30.306  1.00  0.00     0.070 C 
HETATM    7  C7  UNL     1      50.784  28.701  30.486  1.00  0.00     0.155 C 
HETATM    8  O1  UNL     1      51.899  28.248  30.352  1.00  0.00    -0.296 OA
HETATM    9  C8  UNL     1      49.689  27.801  30.812  1.00  0.00     0.122 C 
HETATM   10  C9  UNL     1      49.855  26.399  30.236  1.00  0.00     0.026 C 
HETATM   11  C10 UNL     1      48.380  28.302  30.385  1.00  0.00     0.142 C 
HETATM   12  O2  UNL     1      47.444  27.526  30.368  1.00  0.00    -0.297 OA
HETATM   13  C11 UNL     1      48.132  29.711  29.968  1.00  0.00     0.062 C 
HETATM   14  C12 UNL     1      47.074  29.619  28.889  1.00  0.00     0.018 C 
HETATM   15  C13 UNL     1      49.383  30.421  29.526  1.00  0.00    -0.012 C 
HETATM   16  C14 UNL     1      49.701  29.798  28.140  1.00  0.00     0.018 C 
HETATM   17  C15 UNL     1      49.022  31.851  29.220  1.00  0.00     0.014 C 
HETATM   18  C16 UNL     1      48.085  32.466  30.176  1.00  0.00     0.034 C 
HETATM   19  C17 UNL     1      48.163  34.012  30.198  1.00  0.00     0.137 C 
HETATM   20  C22 UNL     1      49.356  34.572  30.769  1.00  0.00     0.016 C 
HETATM   21  C27 UNL     1      50.155  33.745  31.739  1.00  0.00     0.012 C 
HETATM   22  C28 UNL     1      51.518  33.336  31.357  1.00  0.00    -0.006 C 
HETATM   23  C29 UNL     1      52.590  34.053  32.213  1.00  0.00     0.011 C 
ENDROOT
BRANCH  19  24
HETATM   24  O3  UNL     1      47.024  34.316  31.039  1.00  0.00    -0.298 OA
BRANCH  24  25
HETATM   25  C18 UNL     1      45.738  34.076  30.610  1.00  0.00     0.361 C 
HETATM   26  O4  UNL     1      45.345  34.360  29.429  1.00  0.00    -0.238 OA
HETATM   27  N1  UNL     1      44.763  33.490  31.461  1.00  0.00    -0.328 N 
ATOM     28  H1  UNL     1      45.018  33.240  32.416  1.00  0.00     0.165 HD
BRANCH  27  29
HETATM   29  C19 UNL     1      43.417  33.241  30.998  1.00  0.00     0.227 C 
BRANCH  29  30
HETATM   30  C20 UNL     1      42.629  32.523  32.003  1.00  0.00     0.235 C 
HETATM   31  O5  UNL     1      42.736  31.272  32.086  1.00  0.00    -0.272 OA
HETATM   32  N2  UNL     1      41.750  33.199  32.886  1.00  0.00    -0.364 N 
HETATM   33  C21 UNL     1      40.977  32.475  33.873  1.00  0.00     0.149 C 
ATOM     34  H2  UNL     1      41.660  34.213  32.824  1.00  0.00     0.161 HD
ENDBRANCH  29  30
ENDBRANCH  27  29
ENDBRANCH  24  25
ENDBRANCH  19  24
BRANCH  20  35
HETATM   35  C23 UNL     1      50.272  35.357  29.904  1.00  0.00     0.011 C 
BRANCH  35  36
HETATM   36  C24 UNL     1      50.186  35.209  28.421  1.00  0.00    -0.022 C 
HETATM   37  C25 UNL     1      50.341  36.621  27.770  1.00  0.00     0.009 C 
HETATM   38  C26 UNL     1      51.241  34.390  27.747  1.00  0.00     0.009 C 
ENDBRANCH  35  36
ENDBRANCH  20  35
TORSDOF 6
ENDMDL
MODEL 5
REMARK VINA RESULT: -7.163708856      3.749      7.968
REMARK  6 active torsions:
REMARK  status: ('A' for Active; 'I' for Inactive)
REMARK    1  A    between atoms: C17_19  and  O3_20 
REMARK    2  A    between atoms: O3_20  and  C18_21 
REMARK       I    between atoms: C18_21  and  N1_23 
REMARK    3  A    between atoms: N1_23  and  C19_25 
REMARK    4  A    between atoms: C19_25  and  C20_26 
REMARK       I    between atoms: C20_26  and  N2_28 
REMARK    5  A    between atoms: C22_31  and  C23_32 
REMARK    6  A    between atoms: C23_32  and  C24_33 
ROOT
HETATM    1  C1  UNL     1      50.441  31.185  28.332  1.00  0.00     0.016 C 
HETATM    2  C2  UNL     1      49.823  30.713  29.402  1.00  0.00    -0.061 C 
HETATM    3  C3  UNL     1      48.505  30.079  29.413  1.00  0.00     0.041 C 
HETATM    4  C4  UNL     1      48.428  29.356  30.746  1.00  0.00    -0.020 C 
HETATM    5  C5  UNL     1      49.458  29.700  31.480  1.00  0.00    -0.008 C 
HETATM    6  C6  UNL     1      50.357  30.684  30.758  1.00  0.00     0.070 C 
HETATM    7  C7  UNL     1      51.707  30.015  30.780  1.00  0.00     0.155 C 
HETATM    8  O1  UNL     1      51.738  28.811  30.907  1.00  0.00    -0.296 OA
HETATM    9  C8  UNL     1      52.958  30.746  30.658  1.00  0.00     0.122 C 
HETATM   10  C9  UNL     1      54.117  30.109  31.417  1.00  0.00     0.026 C 
HETATM   11  C10 UNL     1      52.859  32.142  31.092  1.00  0.00     0.142 C 
HETATM   12  O2  UNL     1      53.889  32.761  31.280  1.00  0.00    -0.297 OA
HETATM   13  C11 UNL     1      51.565  32.845  31.317  1.00  0.00     0.062 C 
HETATM   14  C12 UNL     1      51.832  33.797  32.464  1.00  0.00     0.018 C 
HETATM   15  C13 UNL     1      50.421  31.902  31.572  1.00  0.00    -0.012 C 
HETATM   16  C14 UNL     1      50.678  31.376  33.010  1.00  0.00     0.018 C 
HETATM   17  C15 UNL     1      49.162  32.721  31.692  1.00  0.00     0.014 C 
HETATM   18  C16 UNL     1      49.050  33.822  30.719  1.00  0.00     0.034 C 
HETATM   19  C17 UNL     1      47.589  34.270  30.471  1.00  0.00     0.137 C 
HETATM   20  C22 UNL     1      46.762  33.343  29.751  1.00  0.00     0.016 C 
HETATM   21  C27 UNL     1      47.418  32.324  28.860  1.00  0.00     0.012 C 
HETATM   22  C28 UNL     1      47.287  30.898  29.208  1.00  0.00    -0.006 C 
HETATM   23  C29 UNL     1      46.400  30.141  28.192  1.00  0.00     0.011 C 
ENDROOT
BRANCH  19  24
HETATM   24  O3  UNL     1      47.815  35.456  29.670  1.00  0.00    -0.298 OA
BRANCH  24  25
HETATM   25  C18 UNL     1      49.089  35.856  29.336  1.00  0.00     0.361 C 
HETATM   26  O4  UNL     1      49.614  35.599  28.200  1.00  0.00    -0.238 OA
HETATM   27  N1  UNL     1      49.904  36.589  30.240  1.00  0.00    -0.328 N 
ATOM     28  H1  UNL     1      49.539  36.826  31.163  1.00  0.00     0.165 HD
BRANCH  27  29
HETATM   29  C19 UNL     1      51.239  37.006  29.877  1.00  0.00     0.227 C 
BRANCH  29  30
HETATM   30  C20 UNL     1      51.321  38.459  29.711  1.00  0.00     0.235 C 
HETATM   31  O5  UNL     1      52.452  39.001  29.607  1.00  0.00    -0.272 OA
HETATM   32  N2  UNL     1      50.160  39.272  29.663  1.00  0.00    -0.364 N 
HETATM   33  C21 UNL     1      50.258  40.707  29.499  1.00  0.00     0.149 C 
ATOM     34  H2  UNL     1      49.241  38.838  29.745  1.00  0.00     0.161 HD
ENDBRANCH  29  30
ENDBRANCH  27  29
ENDBRANCH  24  25
ENDBRANCH  19  24
BRANCH  20  35
HETATM   35  C23 UNL     1      45.592  32.736  30.434  1.00  0.00     0.011 C 
BRANCH  35  36
HETATM   36  C24 UNL     1      44.397  33.579  30.729  1.00  0.00    -0.022 C 
HETATM   37  C25 UNL     1      43.219  32.642  31.150  1.00  0.00     0.009 C 
HETATM   38  C26 UNL     1      44.501  34.549  31.864  1.00  0.00     0.009 C 
ENDBRANCH  35  36
ENDBRANCH  20  35
TORSDOF 6
ENDMDL
