MODEL 1
REMARK VINA RESULT: -7.501287428      0.000      0.000
REMARK  8 active torsions:
REMARK  status: ('A' for Active; 'I' for Inactive)
REMARK    1  A    between atoms: N3_4  and  C2_6 
REMARK    2  A    between atoms: C2_6  and  C3_7 
REMARK    3  A    between atoms: C3_7  and  N4_8 
REMARK    4  A    between atoms: N4_8  and  C4_11 
REMARK    5  A    between atoms: C4_11  and  C5_12 
REMARK    6  A    between atoms: C5_12  and  C6_13 
REMARK    7  A    between atoms: C6_13  and  C7_14 
REMARK    8  A    between atoms: C7_14  and  C8_15 
ROOT
HETATM    1  C6  UNL     1      17.545   8.128   5.388  1.00  0.00     0.005 C 
ENDROOT
BRANCH   1   2
HETATM    2  C5  UNL     1      18.222   8.898   6.528  1.00  0.00     0.027 C 
BRANCH   2   3
HETATM    3  C4  UNL     1      17.217   8.912   7.655  1.00  0.00     0.232 C 
BRANCH   3   4
HETATM    4  N4  UNL     1      17.156  10.140   8.381  1.00  0.00    -0.074 N 
ATOM      5  H42 UNL     1      16.198  10.387   8.629  1.00  0.00     0.277 HD
ATOM      6  H41 UNL     1      17.370  10.943   7.789  1.00  0.00     0.277 HD
BRANCH   4   7
HETATM    7  C3  UNL     1      18.017  10.079   9.542  1.00  0.00     0.251 C 
BRANCH   7   8
HETATM    8  C2  UNL     1      17.182  10.393  10.755  1.00  0.00     0.149 C 
BRANCH   8   9
HETATM    9  N3  UNL     1      15.862  10.752  10.337  1.00  0.00    -0.365 N 
HETATM   10  C1  UNL     1      14.855  10.384  11.043  1.00  0.00     0.197 C 
HETATM   11  N1  UNL     1      13.551  10.742  10.625  1.00  0.00    -0.067 NA
HETATM   12  N2  UNL     1      15.060   9.627  12.223  1.00  0.00    -0.067 NA
ATOM     13  H3  UNL     1      15.722  11.295   9.485  1.00  0.00     0.161 HD
ENDBRANCH   8   9
ENDBRANCH   7   8
ENDBRANCH   4   7
ENDBRANCH   3   4
ENDBRANCH   2   3
ENDBRANCH   1   2
BRANCH   1  14
HETATM   14  C7  UNL     1      16.728   6.993   5.907  1.00  0.00     0.057 C 
BRANCH  14  15
HETATM   15  C8  UNL     1      17.500   5.706   5.811  1.00  0.00     0.324 C 
HETATM   16  N5  UNL     1      18.694   5.844   5.032  1.00  0.00    -0.331 N 
HETATM   17  C9  UNL     1      19.908   5.162   5.363  1.00  0.00     0.225 C 
ATOM     18  H5  UNL     1      18.678   6.451   4.212  1.00  0.00     0.164 HD
HETATM   19  O1  UNL     1      20.656   4.814   4.421  1.00  0.00    -0.273 OA
HETATM   20  C10 UNL     1      20.205   4.908   6.791  1.00  0.00     0.106 C 
HETATM   21  C11 UNL     1      20.373   3.456   7.081  1.00  0.00     0.016 C 
HETATM   22  C15 UNL     1      19.073   5.503   7.616  1.00  0.00     0.289 C 
HETATM   23  C12 UNL     1      19.524   2.538   6.274  1.00  0.00     0.003 C 
HETATM   24  C13 UNL     1      18.085   2.887   6.171  1.00  0.00     0.030 C 
HETATM   25  C14 UNL     1      17.553   3.760   7.251  1.00  0.00     0.275 C 
HETATM   26  N6  UNL     1      17.788   5.148   7.111  1.00  0.00     0.112 N 
ENDBRANCH  14  15
ENDBRANCH   1  14
TORSDOF 8
ENDMDL
MODEL 2
REMARK VINA RESULT: -7.405171094      2.688      4.329
REMARK  8 active torsions:
REMARK  status: ('A' for Active; 'I' for Inactive)
REMARK    1  A    between atoms: N3_4  and  C2_6 
REMARK    2  A    between atoms: C2_6  and  C3_7 
REMARK    3  A    between atoms: C3_7  and  N4_8 
REMARK    4  A    between atoms: N4_8  and  C4_11 
REMARK    5  A    between atoms: C4_11  and  C5_12 
REMARK    6  A    between atoms: C5_12  and  C6_13 
REMARK    7  A    between atoms: C6_13  and  C7_14 
REMARK    8  A    between atoms: C7_14  and  C8_15 
ROOT
HETATM    1  C6  UNL     1      16.646   6.357  11.250  1.00  0.00     0.005 C 
ENDROOT
BRANCH   1   2
HETATM    2  C5  UNL     1      15.776   6.071  12.479  1.00  0.00     0.027 C 
BRANCH   2   3
HETATM    3  C4  UNL     1      15.862   7.315  13.330  1.00  0.00     0.232 C 
BRANCH   3   4
HETATM    4  N4  UNL     1      15.348   8.494  12.712  1.00  0.00    -0.074 N 
ATOM      5  H42 UNL     1      14.420   8.734  13.061  1.00  0.00     0.277 HD
ATOM      6  H41 UNL     1      15.105   8.336  11.734  1.00  0.00     0.277 HD
BRANCH   4   7
HETATM    7  C3  UNL     1      16.281   9.589  12.866  1.00  0.00     0.251 C 
BRANCH   7   8
HETATM    8  C2  UNL     1      16.289  10.375  11.581  1.00  0.00     0.149 C 
BRANCH   8   9
HETATM    9  N3  UNL     1      15.214  11.318  11.600  1.00  0.00    -0.365 N 
HETATM   10  C1  UNL     1      14.160  11.085  10.906  1.00  0.00     0.197 C 
HETATM   11  N1  UNL     1      13.098  12.021  10.928  1.00  0.00    -0.067 NA
HETATM   12  N2  UNL     1      14.073   9.904  10.128  1.00  0.00    -0.067 NA
ATOM     13  H3  UNL     1      15.284  12.167  12.161  1.00  0.00     0.161 HD
ENDBRANCH   8   9
ENDBRANCH   7   8
ENDBRANCH   4   7
ENDBRANCH   3   4
ENDBRANCH   2   3
ENDBRANCH   1   2
BRANCH   1  14
HETATM   14  C7  UNL     1      16.263   5.490  10.098  1.00  0.00     0.057 C 
BRANCH  14  15
HETATM   15  C8  UNL     1      16.340   6.267   8.812  1.00  0.00     0.324 C 
HETATM   16  N5  UNL     1      16.353   7.682   9.031  1.00  0.00    -0.331 N 
HETATM   17  C9  UNL     1      17.134   8.575   8.229  1.00  0.00     0.225 C 
ATOM     18  H5  UNL     1      15.786   8.068   9.787  1.00  0.00     0.164 HD
HETATM   19  O1  UNL     1      16.683   9.726   8.030  1.00  0.00    -0.273 OA
HETATM   20  C10 UNL     1      18.422   8.086   7.685  1.00  0.00     0.106 C 
HETATM   21  C11 UNL     1      18.466   8.157   6.197  1.00  0.00     0.016 C 
HETATM   22  C15 UNL     1      18.622   6.658   8.171  1.00  0.00     0.289 C 
HETATM   23  C12 UNL     1      17.170   7.915   5.504  1.00  0.00     0.003 C 
HETATM   24  C13 UNL     1      16.395   6.731   5.949  1.00  0.00     0.030 C 
HETATM   25  C14 UNL     1      17.177   5.661   6.623  1.00  0.00     0.275 C 
HETATM   26  N6  UNL     1      17.457   5.856   7.996  1.00  0.00     0.112 N 
ENDBRANCH  14  15
ENDBRANCH   1  14
TORSDOF 8
ENDMDL
MODEL 3
REMARK VINA RESULT: -7.385527887      1.072      1.166
REMARK  8 active torsions:
REMARK  status: ('A' for Active; 'I' for Inactive)
REMARK    1  A    between atoms: N3_4  and  C2_6 
REMARK    2  A    between atoms: C2_6  and  C3_7 
REMARK    3  A    between atoms: C3_7  and  N4_8 
REMARK    4  A    between atoms: N4_8  and  C4_11 
REMARK    5  A    between atoms: C4_11  and  C5_12 
REMARK    6  A    between atoms: C5_12  and  C6_13 
REMARK    7  A    between atoms: C6_13  and  C7_14 
REMARK    8  A    between atoms: C7_14  and  C8_15 
ROOT
HETATM    1  C6  UNL     1      17.244   7.777   5.800  1.00  0.00     0.005 C 
ENDROOT
BRANCH   1   2
HETATM    2  C5  UNL     1      17.926   8.947   6.518  1.00  0.00     0.027 C 
BRANCH   2   3
HETATM    3  C4  UNL     1      17.313   8.984   7.897  1.00  0.00     0.232 C 
BRANCH   3   4
HETATM    4  N4  UNL     1      17.229  10.287   8.475  1.00  0.00    -0.074 N 
ATOM      5  H42 UNL     1      16.262  10.569   8.639  1.00  0.00     0.277 HD
ATOM      6  H41 UNL     1      17.487  11.016   7.809  1.00  0.00     0.277 HD
BRANCH   4   7
HETATM    7  C3  UNL     1      18.023  10.353   9.682  1.00  0.00     0.251 C 
BRANCH   7   8
HETATM    8  C2  UNL     1      17.081  10.449  10.852  1.00  0.00     0.149 C 
BRANCH   8   9
HETATM    9  N3  UNL     1      15.771  10.768  10.376  1.00  0.00    -0.365 N 
HETATM   10  C1  UNL     1      14.752  10.504  11.110  1.00  0.00     0.197 C 
HETATM   11  N1  UNL     1      13.457  10.822  10.634  1.00  0.00    -0.067 NA
HETATM   12  N2  UNL     1      14.933   9.898  12.378  1.00  0.00    -0.067 NA
ATOM     13  H3  UNL     1      15.648  11.203   9.462  1.00  0.00     0.161 HD
ENDBRANCH   8   9
ENDBRANCH   7   8
ENDBRANCH   4   7
ENDBRANCH   3   4
ENDBRANCH   2   3
ENDBRANCH   1   2
BRANCH   1  14
HETATM   14  C7  UNL     1      16.506   6.905   6.759  1.00  0.00     0.057 C 
BRANCH  14  15
HETATM   15  C8  UNL     1      17.010   5.490   6.673  1.00  0.00     0.324 C 
HETATM   16  N5  UNL     1      17.109   5.029   5.320  1.00  0.00    -0.331 N 
HETATM   17  C9  UNL     1      18.167   4.172   4.879  1.00  0.00     0.225 C 
ATOM     18  H5  UNL     1      16.400   5.322   4.648  1.00  0.00     0.164 HD
HETATM   19  O1  UNL     1      17.908   3.346   3.974  1.00  0.00    -0.273 OA
HETATM   20  C10 UNL     1      19.496   4.311   5.515  1.00  0.00     0.106 C 
HETATM   21  C11 UNL     1      19.952   3.041   6.148  1.00  0.00     0.016 C 
HETATM   22  C15 UNL     1      19.408   5.432   6.540  1.00  0.00     0.289 C 
HETATM   23  C12 UNL     1      18.877   2.195   6.737  1.00  0.00     0.003 C 
HETATM   24  C13 UNL     1      17.892   2.888   7.604  1.00  0.00     0.030 C 
HETATM   25  C14 UNL     1      18.346   4.171   8.201  1.00  0.00     0.275 C 
HETATM   26  N6  UNL     1      18.259   5.316   7.375  1.00  0.00     0.112 N 
ENDBRANCH  14  15
ENDBRANCH   1  14
TORSDOF 8
ENDMDL
MODEL 4
REMARK VINA RESULT: -7.323530993      2.105      2.990
REMARK  8 active torsions:
REMARK  status: ('A' for Active; 'I' for Inactive)
REMARK    1  A    between atoms: N3_4  and  C2_6 
REMARK    2  A    between atoms: C2_6  and  C3_7 
REMARK    3  A    between atoms: C3_7  and  N4_8 
REMARK    4  A    between atoms: N4_8  and  C4_11 
REMARK    5  A    between atoms: C4_11  and  C5_12 
REMARK    6  A    between atoms: C5_12  and  C6_13 
REMARK    7  A    between atoms: C6_13  and  C7_14 
REMARK    8  A    between atoms: C7_14  and  C8_15 
ROOT
HETATM    1  C6  UNL     1      16.364   9.141   8.954  1.00  0.00     0.005 C 
ENDROOT
BRANCH   1   2
HETATM    2  C5  UNL     1      17.536  10.120   8.819  1.00  0.00     0.027 C 
BRANCH   2   3
HETATM    3  C4  UNL     1      17.845  10.573  10.226  1.00  0.00     0.232 C 
BRANCH   3   4
HETATM    4  N4  UNL     1      16.741  11.154  10.919  1.00  0.00    -0.074 N 
ATOM      5  H42 UNL     1      15.869  11.052  10.399  1.00  0.00     0.277 HD
ATOM      6  H41 UNL     1      16.792  12.173  10.929  1.00  0.00     0.277 HD
BRANCH   4   7
HETATM    7  C3  UNL     1      16.640  10.605  12.254  1.00  0.00     0.251 C 
BRANCH   7   8
HETATM    8  C2  UNL     1      15.264  10.014  12.409  1.00  0.00     0.149 C 
BRANCH   8   9
HETATM    9  N3  UNL     1      14.354  11.042  12.810  1.00  0.00    -0.365 N 
HETATM   10  C1  UNL     1      13.501  11.493  11.965  1.00  0.00     0.197 C 
HETATM   11  N1  UNL     1      12.602  12.510  12.367  1.00  0.00    -0.067 NA
HETATM   12  N2  UNL     1      13.471  10.974  10.646  1.00  0.00    -0.067 NA
ATOM     13  H3  UNL     1      14.382  11.412  13.760  1.00  0.00     0.161 HD
ENDBRANCH   8   9
ENDBRANCH   7   8
ENDBRANCH   4   7
ENDBRANCH   3   4
ENDBRANCH   2   3
ENDBRANCH   1   2
BRANCH   1  14
HETATM   14  C7  UNL     1      16.813   7.824   9.493  1.00  0.00     0.057 C 
BRANCH  14  15
HETATM   15  C8  UNL     1      16.728   6.767   8.426  1.00  0.00     0.324 C 
HETATM   16  N5  UNL     1      16.149   7.263   7.214  1.00  0.00    -0.331 N 
HETATM   17  C9  UNL     1      16.599   6.843   5.921  1.00  0.00     0.225 C 
ATOM     18  H5  UNL     1      15.388   7.940   7.273  1.00  0.00     0.164 HD
HETATM   19  O1  UNL     1      15.754   6.786   4.999  1.00  0.00    -0.273 OA
HETATM   20  C10 UNL     1      18.030   6.502   5.752  1.00  0.00     0.106 C 
HETATM   21  C11 UNL     1      18.223   5.104   5.275  1.00  0.00     0.016 C 
HETATM   22  C15 UNL     1      18.723   6.724   7.089  1.00  0.00     0.289 C 
HETATM   23  C12 UNL     1      17.226   4.114   5.769  1.00  0.00     0.003 C 
HETATM   24  C13 UNL     1      16.940   4.135   7.225  1.00  0.00     0.030 C 
HETATM   25  C14 UNL     1      17.996   4.734   8.083  1.00  0.00     0.275 C 
HETATM   26  N6  UNL     1      18.007   6.145   8.176  1.00  0.00     0.112 N 
ENDBRANCH  14  15
ENDBRANCH   1  14
TORSDOF 8
ENDMDL
MODEL 5
REMARK VINA RESULT: -7.288149405      2.190      3.989
REMARK  8 active torsions:
REMARK  status: ('A' for Active; 'I' for Inactive)
REMARK    1  A    between atoms: N3_4  and  C2_6 
REMARK    2  A    between atoms: C2_6  and  C3_7 
REMARK    3  A    between atoms: C3_7  and  N4_8 
REMARK    4  A    between atoms: N4_8  and  C4_11 
REMARK    5  A    between atoms: C4_11  and  C5_12 
REMARK    6  A    between atoms: C5_12  and  C6_13 
REMARK    7  A    between atoms: C6_13  and  C7_14 
REMARK    8  A    between atoms: C7_14  and  C8_15 
ROOT
HETATM    1  C6  UNL     1      16.436   5.050  10.730  1.00  0.00     0.005 C 
ENDROOT
BRANCH   1   2
HETATM    2  C5  UNL     1      17.292   6.097  11.451  1.00  0.00     0.027 C 
BRANCH   2   3
HETATM    3  C4  UNL     1      16.317   6.946  12.230  1.00  0.00     0.232 C 
BRANCH   3   4
HETATM    4  N4  UNL     1      16.019   8.208  11.634  1.00  0.00    -0.074 N 
ATOM      5  H42 UNL     1      15.020   8.322  11.463  1.00  0.00     0.277 HD
ATOM      6  H41 UNL     1      16.343   8.258  10.667  1.00  0.00     0.277 HD
BRANCH   4   7
HETATM    7  C3  UNL     1      16.555   9.284  12.439  1.00  0.00     0.251 C 
BRANCH   7   8
HETATM    8  C2  UNL     1      16.319  10.576  11.703  1.00  0.00     0.149 C 
BRANCH   8   9
HETATM    9  N3  UNL     1      15.142  11.203  12.219  1.00  0.00    -0.365 N 
HETATM   10  C1  UNL     1      14.051  11.144  11.547  1.00  0.00     0.197 C 
HETATM   11  N1  UNL     1      12.888  11.766  12.062  1.00  0.00    -0.067 NA
HETATM   12  N2  UNL     1      14.022  10.464  10.304  1.00  0.00    -0.067 NA
ATOM     13  H3  UNL     1      15.170  11.693  13.113  1.00  0.00     0.161 HD
ENDBRANCH   8   9
ENDBRANCH   7   8
ENDBRANCH   4   7
ENDBRANCH   3   4
ENDBRANCH   2   3
ENDBRANCH   1   2
BRANCH   1  14
HETATM   14  C7  UNL     1      16.970   4.754   9.369  1.00  0.00     0.057 C 
BRANCH  14  15
HETATM   15  C8  UNL     1      17.458   6.016   8.713  1.00  0.00     0.324 C 
HETATM   16  N5  UNL     1      18.656   5.807   7.955  1.00  0.00    -0.331 N 
HETATM   17  C9  UNL     1      18.906   6.480   6.716  1.00  0.00     0.225 C 
ATOM     18  H5  UNL     1      19.356   5.156   8.311  1.00  0.00     0.164 HD
HETATM   19  O1  UNL     1      20.094   6.757   6.433  1.00  0.00    -0.273 OA
HETATM   20  C10 UNL     1      17.752   6.807   5.848  1.00  0.00     0.106 C 
HETATM   21  C11 UNL     1      17.647   8.268   5.579  1.00  0.00     0.016 C 
HETATM   22  C15 UNL     1      16.494   6.285   6.528  1.00  0.00     0.289 C 
HETATM   23  C12 UNL     1      18.079   9.159   6.691  1.00  0.00     0.003 C 
HETATM   24  C13 UNL     1      17.548   8.837   8.039  1.00  0.00     0.030 C 
HETATM   25  C14 UNL     1      16.294   8.038   8.067  1.00  0.00     0.275 C 
HETATM   26  N6  UNL     1      16.435   6.639   7.908  1.00  0.00     0.112 N 
ENDBRANCH  14  15
ENDBRANCH   1  14
TORSDOF 8
ENDMDL
