MODEL 1
REMARK VINA RESULT: -7.611974424      0.000      0.000
REMARK  4 active torsions:
REMARK  status: ('A' for Active; 'I' for Inactive)
REMARK    1  A    between atoms: C4_9  and  C5_10 
REMARK    2  A    between atoms: N3_11  and  O2_12 
REMARK    3  A    between atoms: N3_11  and  C6_14 
REMARK    4  A    between atoms: C6_14  and  C8_16 
ROOT
HETATM    1  C5  UNL     1      29.548  65.883   9.717  1.00  0.00     0.149 C 
HETATM    2  N3  UNL     1      28.616  66.555  10.223  1.00  0.00    -0.261 N 
ENDROOT
BRANCH   2   3
HETATM    3  O2  UNL     1      28.326  67.819   9.854  1.00  0.00    -0.287 OA
ATOM      4  H2  UNL     1      28.397  68.133   8.960  1.00  0.00     0.244 HD
ENDBRANCH   2   3
BRANCH   2   5
HETATM    5  C6  UNL     1      27.776  65.987  11.306  1.00  0.00     0.150 C 
HETATM    6  C7  UNL     1      26.998  67.113  11.956  1.00  0.00     0.040 C 
BRANCH   5   7
HETATM    7  C8  UNL     1      26.933  64.888  10.803  1.00  0.00     0.057 A 
HETATM    8  C9  UNL     1      27.013  63.597  11.328  1.00  0.00     0.023 A 
HETATM    9  C10 UNL     1      27.939  63.282  12.427  1.00  0.00     0.069 C 
HETATM   10  N4  UNL     1      26.260  62.590  10.865  1.00  0.00    -0.312 N 
HETATM   11  C11 UNL     1      25.375  62.784   9.850  1.00  0.00     0.327 A 
ATOM     12  H4  UNL     1      26.352  61.663  11.280  1.00  0.00     0.170 HD
HETATM   13  O3  UNL     1      24.697  61.811   9.455  1.00  0.00    -0.247 OA
HETATM   14  N5  UNL     1      25.260  64.006   9.308  1.00  0.00    -0.275 N 
HETATM   15  C12 UNL     1      26.023  65.015   9.782  1.00  0.00     0.259 A 
ATOM     16  H5  UNL     1      24.603  64.172   8.546  1.00  0.00     0.173 HD
HETATM   17  O4  UNL     1      25.868  66.132   9.230  1.00  0.00    -0.267 OA
ENDBRANCH   5   7
ENDBRANCH   2   5
BRANCH   1  18
HETATM   18  C4  UNL     1      30.434  66.358   8.677  1.00  0.00     0.076 A 
HETATM   19  C2  UNL     1      31.840  66.437   8.767  1.00  0.00     0.038 A 
HETATM   20  C1  UNL     1      32.630  66.050   9.955  1.00  0.00     0.070 C 
HETATM   21  N1  UNL     1      32.327  66.913   7.625  1.00  0.00    -0.310 N 
HETATM   22  C3  UNL     1      31.287  67.135   6.824  1.00  0.00     0.325 A 
ATOM     23  H1  UNL     1      33.310  67.076   7.406  1.00  0.00     0.170 HD
HETATM   24  O1  UNL     1      31.383  67.593   5.643  1.00  0.00    -0.247 OA
HETATM   25  N2  UNL     1      30.144  66.805   7.446  1.00  0.00    -0.306 N 
ATOM     26  H2  UNL     1      29.209  66.881   7.047  1.00  0.00     0.171 HD
ENDBRANCH   1  18
TORSDOF 4
ENDMDL
MODEL 2
REMARK VINA RESULT: -7.398089927      3.291      4.316
REMARK  4 active torsions:
REMARK  status: ('A' for Active; 'I' for Inactive)
REMARK    1  A    between atoms: C4_9  and  C5_10 
REMARK    2  A    between atoms: N3_11  and  O2_12 
REMARK    3  A    between atoms: N3_11  and  C6_14 
REMARK    4  A    between atoms: C6_14  and  C8_16 
ROOT
HETATM    1  C5  UNL     1      28.247  65.635  10.598  1.00  0.00     0.149 C 
HETATM    2  N3  UNL     1      27.766  64.522  10.924  1.00  0.00    -0.261 N 
ENDROOT
BRANCH   2   3
HETATM    3  O2  UNL     1      28.387  63.349  10.696  1.00  0.00    -0.287 OA
ATOM      4  H2  UNL     1      28.372  62.902   9.857  1.00  0.00     0.244 HD
ENDBRANCH   2   3
BRANCH   2   5
HETATM    5  C6  UNL     1      26.434  64.437  11.574  1.00  0.00     0.150 C 
HETATM    6  C7  UNL     1      25.766  63.148  11.139  1.00  0.00     0.040 C 
BRANCH   5   7
HETATM    7  C8  UNL     1      26.545  64.591  13.035  1.00  0.00     0.057 A 
HETATM    8  C9  UNL     1      25.971  65.671  13.708  1.00  0.00     0.023 A 
HETATM    9  C10 UNL     1      25.211  66.700  12.981  1.00  0.00     0.069 C 
HETATM   10  N4  UNL     1      26.082  65.824  15.035  1.00  0.00    -0.312 N 
HETATM   11  C11 UNL     1      26.766  64.925  15.792  1.00  0.00     0.327 A 
ATOM     12  H4  UNL     1      25.645  66.630  15.484  1.00  0.00     0.170 HD
HETATM   13  O3  UNL     1      26.839  65.115  17.025  1.00  0.00    -0.247 OA
HETATM   14  N5  UNL     1      27.338  63.870  15.194  1.00  0.00    -0.275 N 
HETATM   15  C12 UNL     1      27.222  63.722  13.856  1.00  0.00     0.259 A 
ATOM     16  H5  UNL     1      27.857  63.185  15.744  1.00  0.00     0.173 HD
HETATM   17  O4  UNL     1      27.782  62.715  13.360  1.00  0.00    -0.267 OA
ENDBRANCH   5   7
ENDBRANCH   2   5
BRANCH   1  18
HETATM   18  C4  UNL     1      29.522  65.819   9.939  1.00  0.00     0.076 A 
HETATM   19  C2  UNL     1      29.707  66.113   8.572  1.00  0.00     0.038 A 
HETATM   20  C1  UNL     1      28.613  66.272   7.590  1.00  0.00     0.070 C 
HETATM   21  N1  UNL     1      31.007  66.219   8.317  1.00  0.00    -0.310 N 
HETATM   22  C3  UNL     1      31.645  66.003   9.467  1.00  0.00     0.325 A 
ATOM     23  H1  UNL     1      31.435  66.425   7.415  1.00  0.00     0.170 HD
HETATM   24  O1  UNL     1      32.909  66.028   9.596  1.00  0.00    -0.247 OA
HETATM   25  N2  UNL     1      30.762  65.762  10.448  1.00  0.00    -0.306 N 
ATOM     26  H2  UNL     1      30.996  65.568  11.422  1.00  0.00     0.171 HD
ENDBRANCH   1  18
TORSDOF 4
ENDMDL
MODEL 3
REMARK VINA RESULT: -7.391719926      2.106      2.957
REMARK  4 active torsions:
REMARK  status: ('A' for Active; 'I' for Inactive)
REMARK    1  A    between atoms: C4_9  and  C5_10 
REMARK    2  A    between atoms: N3_11  and  O2_12 
REMARK    3  A    between atoms: N3_11  and  C6_14 
REMARK    4  A    between atoms: C6_14  and  C8_16 
ROOT
HETATM    1  C5  UNL     1      28.937  64.992   9.460  1.00  0.00     0.149 C 
HETATM    2  N3  UNL     1      28.890  64.812  10.701  1.00  0.00    -0.261 N 
ENDROOT
BRANCH   2   3
HETATM    3  O2  UNL     1      29.822  65.277  11.555  1.00  0.00    -0.287 OA
ATOM      4  H2  UNL     1      29.639  65.918  12.233  1.00  0.00     0.244 HD
ENDBRANCH   2   3
BRANCH   2   5
HETATM    5  C6  UNL     1      27.786  64.028  11.309  1.00  0.00     0.150 C 
HETATM    6  C7  UNL     1      28.191  63.633  12.715  1.00  0.00     0.040 C 
BRANCH   5   7
HETATM    7  C8  UNL     1      26.511  64.762  11.236  1.00  0.00     0.057 A 
HETATM    8  C9  UNL     1      25.367  64.199  10.670  1.00  0.00     0.023 A 
HETATM    9  C10 UNL     1      25.382  62.830  10.131  1.00  0.00     0.069 C 
HETATM   10  N4  UNL     1      24.208  64.868  10.587  1.00  0.00    -0.312 N 
HETATM   11  C11 UNL     1      24.096  66.140  11.057  1.00  0.00     0.327 A 
ATOM     12  H4  UNL     1      23.397  64.416  10.165  1.00  0.00     0.170 HD
HETATM   13  O3  UNL     1      22.993  66.718  10.956  1.00  0.00    -0.247 OA
HETATM   14  N5  UNL     1      25.167  66.729  11.610  1.00  0.00    -0.275 N 
HETATM   15  C12 UNL     1      26.331  66.047  11.690  1.00  0.00     0.259 A 
ATOM     16  H5  UNL     1      25.103  67.682  11.967  1.00  0.00     0.173 HD
HETATM   17  O4  UNL     1      27.293  66.656  12.215  1.00  0.00    -0.267 OA
ENDBRANCH   5   7
ENDBRANCH   2   5
BRANCH   1  18
HETATM   18  C4  UNL     1      29.983  65.718   8.773  1.00  0.00     0.076 A 
HETATM   19  C2  UNL     1      29.846  66.392   7.541  1.00  0.00     0.038 A 
HETATM   20  C1  UNL     1      28.598  66.452   6.750  1.00  0.00     0.070 C 
HETATM   21  N1  UNL     1      31.006  66.952   7.214  1.00  0.00    -0.310 N 
HETATM   22  C3  UNL     1      31.865  66.658   8.188  1.00  0.00     0.325 A 
ATOM     23  H1  UNL     1      31.201  67.501   6.377  1.00  0.00     0.170 HD
HETATM   24  O1  UNL     1      33.078  67.034   8.206  1.00  0.00    -0.247 OA
HETATM   25  N2  UNL     1      31.261  65.917   9.131  1.00  0.00    -0.306 N 
ATOM     26  H2  UNL     1      31.702  65.564   9.980  1.00  0.00     0.171 HD
ENDBRANCH   1  18
TORSDOF 4
ENDMDL
MODEL 4
REMARK VINA RESULT: -7.345070911      1.071      1.522
REMARK  4 active torsions:
REMARK  status: ('A' for Active; 'I' for Inactive)
REMARK    1  A    between atoms: C4_9  and  C5_10 
REMARK    2  A    between atoms: N3_11  and  O2_12 
REMARK    3  A    between atoms: N3_11  and  C6_14 
REMARK    4  A    between atoms: C6_14  and  C8_16 
ROOT
HETATM    1  C5  UNL     1      29.349  65.701   9.923  1.00  0.00     0.149 C 
HETATM    2  N3  UNL     1      28.440  66.481  10.298  1.00  0.00    -0.261 N 
ENDROOT
BRANCH   2   3
HETATM    3  O2  UNL     1      28.344  67.762   9.891  1.00  0.00    -0.287 OA
ATOM      4  H2  UNL     1      27.666  68.357  10.190  1.00  0.00     0.244 HD
ENDBRANCH   2   3
BRANCH   2   5
HETATM    5  C6  UNL     1      27.407  66.027  11.262  1.00  0.00     0.150 C 
HETATM    6  C7  UNL     1      26.562  67.220  11.662  1.00  0.00     0.040 C 
BRANCH   5   7
HETATM    7  C8  UNL     1      26.631  64.899  10.717  1.00  0.00     0.057 A 
HETATM    8  C9  UNL     1      26.677  63.627  11.289  1.00  0.00     0.023 A 
HETATM    9  C10 UNL     1      27.498  63.362  12.482  1.00  0.00     0.069 C 
HETATM   10  N4  UNL     1      25.986  62.594  10.789  1.00  0.00    -0.312 N 
HETATM   11  C11 UNL     1      25.199  62.741   9.688  1.00  0.00     0.327 A 
ATOM     12  H4  UNL     1      26.050  61.681  11.241  1.00  0.00     0.170 HD
HETATM   13  O3  UNL     1      24.576  61.746   9.263  1.00  0.00    -0.247 OA
HETATM   14  N5  UNL     1      25.121  63.943   9.099  1.00  0.00    -0.275 N 
HETATM   15  C12 UNL     1      25.821  64.980   9.610  1.00  0.00     0.259 A 
ATOM     16  H5  UNL     1      24.538  64.074   8.272  1.00  0.00     0.173 HD
HETATM   17  O4  UNL     1      25.704  66.075   9.009  1.00  0.00    -0.267 OA
ENDBRANCH   5   7
ENDBRANCH   2   5
BRANCH   1  18
HETATM   18  C4  UNL     1      30.412  66.057   9.008  1.00  0.00     0.076 A 
HETATM   19  C2  UNL     1      30.287  66.182   7.609  1.00  0.00     0.038 A 
HETATM   20  C1  UNL     1      29.037  65.956   6.852  1.00  0.00     0.070 C 
HETATM   21  N1  UNL     1      31.462  66.527   7.091  1.00  0.00    -0.310 N 
HETATM   22  C3  UNL     1      32.318  66.625   8.107  1.00  0.00     0.325 A 
ATOM     23  H1  UNL     1      31.668  66.687   6.105  1.00  0.00     0.170 HD
HETATM   24  O1  UNL     1      33.542  66.940   7.979  1.00  0.00    -0.247 OA
HETATM   25  N2  UNL     1      31.698  66.345   9.264  1.00  0.00    -0.306 N 
ATOM     26  H2  UNL     1      32.133  66.351  10.186  1.00  0.00     0.171 HD
ENDBRANCH   1  18
TORSDOF 4
ENDMDL
MODEL 5
REMARK VINA RESULT: -7.223958468      1.847      2.316
REMARK  4 active torsions:
REMARK  status: ('A' for Active; 'I' for Inactive)
REMARK    1  A    between atoms: C4_9  and  C5_10 
REMARK    2  A    between atoms: N3_11  and  O2_12 
REMARK    3  A    between atoms: N3_11  and  C6_14 
REMARK    4  A    between atoms: C6_14  and  C8_16 
ROOT
HETATM    1  C5  UNL     1      29.383  66.702   9.782  1.00  0.00     0.149 C 
HETATM    2  N3  UNL     1      28.131  66.642   9.724  1.00  0.00    -0.261 N 
ENDROOT
BRANCH   2   3
HETATM    3  O2  UNL     1      27.439  66.660   8.568  1.00  0.00    -0.287 OA
ATOM      4  H2  UNL     1      26.973  65.906   8.224  1.00  0.00     0.244 HD
ENDBRANCH   2   3
BRANCH   2   5
HETATM    5  C6  UNL     1      27.320  66.575  10.964  1.00  0.00     0.150 C 
HETATM    6  C7  UNL     1      25.871  66.844  10.610  1.00  0.00     0.040 C 
BRANCH   5   7
HETATM    7  C8  UNL     1      27.537  65.301  11.672  1.00  0.00     0.057 A 
HETATM    8  C9  UNL     1      28.134  65.249  12.932  1.00  0.00     0.023 A 
HETATM    9  C10 UNL     1      28.561  66.479  13.620  1.00  0.00     0.069 C 
HETATM   10  N4  UNL     1      28.348  64.092  13.574  1.00  0.00    -0.312 N 
HETATM   11  C11 UNL     1      27.988  62.903  13.019  1.00  0.00     0.327 A 
ATOM     12  H4  UNL     1      28.788  64.104  14.495  1.00  0.00     0.170 HD
HETATM   13  O3  UNL     1      28.210  61.854  13.660  1.00  0.00    -0.247 OA
HETATM   14  N5  UNL     1      27.412  62.897  11.808  1.00  0.00    -0.275 N 
HETATM   15  C12 UNL     1      27.199  64.068  11.168  1.00  0.00     0.259 A 
ATOM     16  H5  UNL     1      27.135  62.016  11.374  1.00  0.00     0.173 HD
HETATM   17  O4  UNL     1      26.658  63.991  10.039  1.00  0.00    -0.267 OA
ENDBRANCH   5   7
ENDBRANCH   2   5
BRANCH   1  18
HETATM   18  C4  UNL     1      30.257  66.796   8.632  1.00  0.00     0.076 A 
HETATM   19  C2  UNL     1      31.640  66.519   8.625  1.00  0.00     0.038 A 
HETATM   20  C1  UNL     1      32.420  66.095   9.807  1.00  0.00     0.070 C 
HETATM   21  N1  UNL     1      32.119  66.704   7.398  1.00  0.00    -0.310 N 
HETATM   22  C3  UNL     1      31.094  67.084   6.637  1.00  0.00     0.325 A 
ATOM     23  H1  UNL     1      33.086  66.578   7.098  1.00  0.00     0.170 HD
HETATM   24  O1  UNL     1      31.187  67.348   5.398  1.00  0.00    -0.247 OA
HETATM   25  N2  UNL     1      29.970  67.142   7.368  1.00  0.00    -0.306 N 
ATOM     26  H2  UNL     1      29.049  67.406   7.019  1.00  0.00     0.171 HD
ENDBRANCH   1  18
TORSDOF 4
ENDMDL
