MODEL 1
REMARK VINA RESULT: -8.180553908      0.000      0.000
REMARK  15 active torsions:
REMARK  status: ('A' for Active; 'I' for Inactive)
REMARK    1  A    between atoms: C2_2  and  C3_3 
REMARK    2  A    between atoms: C3_3  and  C4_4 
REMARK    3  A    between atoms: C4_4  and  C5_5 
REMARK    4  A    between atoms: C5_5  and  C6_6 
REMARK    5  A    between atoms: C6_6  and  N1_7 
REMARK    6  A    between atoms: C10_13  and  N3_14 
REMARK    7  A    between atoms: N3_14  and  C11_16 
REMARK    8  A    between atoms: C11_16  and  C12_17 
REMARK    9  A    between atoms: C12_17  and  O1_18 
REMARK   10  A    between atoms: N5_27  and  C18_28 
REMARK   11  A    between atoms: C18_28  and  C19_29 
REMARK   12  A    between atoms: C19_29  and  C20_30 
REMARK   13  A    between atoms: C20_30  and  N6_31 
REMARK       I    between atoms: N6_31  and  C21_33 
REMARK   14  A    between atoms: C21_33  and  O3_35 
REMARK   15  A    between atoms: O3_35  and  C22_36 
ROOT
HETATM    1  C4  UNL     1      17.482  30.975  15.611  1.00  0.00     0.002 C 
ENDROOT
BRANCH   1   2
HETATM    2  C3  UNL     1      17.147  32.224  14.866  1.00  0.00     0.009 C 
BRANCH   2   3
HETATM    3  C2  UNL     1      16.610  33.275  15.774  1.00  0.00    -0.041 C 
HETATM    4  C1  UNL     1      15.202  32.883  16.162  1.00  0.00     0.015 C 
HETATM    5  C16 UNL     1      17.519  33.293  17.007  1.00  0.00     0.039 C 
HETATM    6  C17 UNL     1      16.972  34.226  18.020  1.00  0.00     0.273 C 
HETATM    7  N5  UNL     1      16.795  35.600  17.547  1.00  0.00     0.088 N 
HETATM    8  C26 UNL     1      16.064  35.599  16.292  1.00  0.00     0.273 C 
HETATM    9  C27 UNL     1      16.604  34.667  15.254  1.00  0.00     0.039 C 
BRANCH   7  10
HETATM   10  C18 UNL     1      18.075  36.273  17.460  1.00  0.00     0.274 C 
BRANCH  10  11
HETATM   11  C19 UNL     1      18.775  36.124  18.812  1.00  0.00     0.050 C 
BRANCH  11  12
HETATM   12  C20 UNL     1      20.267  35.877  18.552  1.00  0.00     0.127 C 
BRANCH  12  13
HETATM   13  N6  UNL     1      20.552  34.526  18.229  1.00  0.00    -0.337 N 
HETATM   14  C21 UNL     1      21.779  34.123  17.670  1.00  0.00     0.361 C 
HETATM   15  O2  UNL     1      22.705  34.968  17.424  1.00  0.00    -0.238 OA
ATOM     16  H6  UNL     1      19.840  33.819  18.409  1.00  0.00     0.164 HD
BRANCH  14  17
HETATM   17  O3  UNL     1      22.028  32.801  17.363  1.00  0.00    -0.294 OA
BRANCH  17  18
HETATM   18  C22 UNL     1      21.658  32.290  16.121  1.00  0.00     0.061 C 
HETATM   19  C23 UNL     1      22.944  32.059  15.326  1.00  0.00     0.046 C 
HETATM   20  C24 UNL     1      20.954  30.967  16.258  1.00  0.00     0.046 C 
HETATM   21  C25 UNL     1      20.800  33.236  15.300  1.00  0.00     0.046 C 
ENDBRANCH  17  18
ENDBRANCH  14  17
ENDBRANCH  12  13
ENDBRANCH  11  12
ENDBRANCH  10  11
ENDBRANCH   7  10
ENDBRANCH   2   3
ENDBRANCH   1   2
BRANCH   1  22
HETATM   22  C5  UNL     1      17.826  29.886  14.585  1.00  0.00     0.030 C 
BRANCH  22  23
HETATM   23  C6  UNL     1      18.448  30.551  13.404  1.00  0.00     0.273 C 
BRANCH  23  24
HETATM   24  N1  UNL     1      19.516  29.780  12.824  1.00  0.00     0.094 N 
HETATM   25  C7  UNL     1      20.689  30.523  12.508  1.00  0.00     0.279 C 
HETATM   26  C8  UNL     1      21.923  29.688  12.524  1.00  0.00     0.089 C 
HETATM   27  C9  UNL     1      21.693  28.273  12.114  1.00  0.00     0.037 A 
HETATM   28  N2  UNL     1      22.507  27.602  11.282  1.00  0.00    -0.343 N 
HETATM   29  C14 UNL     1      20.559  27.678  12.658  1.00  0.00     0.060 A 
HETATM   30  C10 UNL     1      22.250  26.303  10.939  1.00  0.00     0.117 A 
ATOM     31  H2  UNL     1      23.330  28.068  10.900  1.00  0.00     0.167 HD
HETATM   32  C13 UNL     1      21.124  25.741  11.492  1.00  0.00     0.136 A 
HETATM   33  N4  UNL     1      20.295  26.422  12.337  1.00  0.00    -0.363 N 
ATOM     34  H4  UNL     1      19.470  25.961  12.722  1.00  0.00     0.165 HD
HETATM   35  C15 UNL     1      19.756  28.547  13.559  1.00  0.00     0.331 C 
BRANCH  30  36
HETATM   36  N3  UNL     1      23.060  25.714  10.141  1.00  0.00    -0.373 N 
ATOM     37  H3  UNL     1      22.819  25.734   9.150  1.00  0.00     0.161 HD
BRANCH  36  38
HETATM   38  C11 UNL     1      24.255  25.037  10.491  1.00  0.00     0.147 C 
BRANCH  38  39
HETATM   39  C12 UNL     1      25.305  26.044  10.923  1.00  0.00     0.183 C 
BRANCH  39  40
HETATM   40  O1  UNL     1      25.304  26.099  12.320  1.00  0.00    -0.399 OA
ATOM     41  H1  UNL     1      24.405  26.195  12.610  1.00  0.00     0.209 HD
ENDBRANCH  39  40
ENDBRANCH  38  39
ENDBRANCH  36  38
ENDBRANCH  30  36
ENDBRANCH  23  24
ENDBRANCH  22  23
ENDBRANCH   1  22
TORSDOF 15
ENDMDL
MODEL 2
REMARK VINA RESULT: -8.180408977      1.001      1.062
REMARK  15 active torsions:
REMARK  status: ('A' for Active; 'I' for Inactive)
REMARK    1  A    between atoms: C2_2  and  C3_3 
REMARK    2  A    between atoms: C3_3  and  C4_4 
REMARK    3  A    between atoms: C4_4  and  C5_5 
REMARK    4  A    between atoms: C5_5  and  C6_6 
REMARK    5  A    between atoms: C6_6  and  N1_7 
REMARK    6  A    between atoms: C10_13  and  N3_14 
REMARK    7  A    between atoms: N3_14  and  C11_16 
REMARK    8  A    between atoms: C11_16  and  C12_17 
REMARK    9  A    between atoms: C12_17  and  O1_18 
REMARK   10  A    between atoms: N5_27  and  C18_28 
REMARK   11  A    between atoms: C18_28  and  C19_29 
REMARK   12  A    between atoms: C19_29  and  C20_30 
REMARK   13  A    between atoms: C20_30  and  N6_31 
REMARK       I    between atoms: N6_31  and  C21_33 
REMARK   14  A    between atoms: C21_33  and  O3_35 
REMARK   15  A    between atoms: O3_35  and  C22_36 
ROOT
HETATM    1  C4  UNL     1      17.710  30.773  15.177  1.00  0.00     0.002 C 
ENDROOT
BRANCH   1   2
HETATM    2  C3  UNL     1      17.531  32.134  14.591  1.00  0.00     0.009 C 
BRANCH   2   3
HETATM    3  C2  UNL     1      16.836  33.049  15.538  1.00  0.00    -0.041 C 
HETATM    4  C1  UNL     1      15.487  32.450  15.863  1.00  0.00     0.015 C 
HETATM    5  C16 UNL     1      17.707  33.119  16.797  1.00  0.00     0.039 C 
HETATM    6  C17 UNL     1      17.015  33.911  17.841  1.00  0.00     0.273 C 
HETATM    7  N5  UNL     1      16.662  35.273  17.438  1.00  0.00     0.088 N 
HETATM    8  C26 UNL     1      15.967  35.245  16.163  1.00  0.00     0.273 C 
HETATM    9  C27 UNL     1      16.652  34.455  15.093  1.00  0.00     0.039 C 
BRANCH   7  10
HETATM   10  C18 UNL     1      17.841  36.116  17.425  1.00  0.00     0.274 C 
BRANCH  10  11
HETATM   11  C19 UNL     1      18.460  36.077  18.823  1.00  0.00     0.050 C 
BRANCH  11  12
HETATM   12  C20 UNL     1      19.987  36.051  18.668  1.00  0.00     0.127 C 
BRANCH  12  13
HETATM   13  N6  UNL     1      20.485  34.762  18.353  1.00  0.00    -0.337 N 
HETATM   14  C21 UNL     1      21.776  34.555  17.833  1.00  0.00     0.361 C 
HETATM   15  O2  UNL     1      22.569  35.532  17.617  1.00  0.00    -0.238 OA
ATOM     16  H6  UNL     1      19.885  33.952  18.510  1.00  0.00     0.164 HD
BRANCH  14  17
HETATM   17  O3  UNL     1      22.234  33.288  17.532  1.00  0.00    -0.294 OA
BRANCH  17  18
HETATM   18  C22 UNL     1      21.868  32.679  16.334  1.00  0.00     0.061 C 
HETATM   19  C23 UNL     1      23.159  32.339  15.587  1.00  0.00     0.046 C 
HETATM   20  C24 UNL     1      21.121  31.394  16.575  1.00  0.00     0.046 C 
HETATM   21  C25 UNL     1      21.053  33.572  15.416  1.00  0.00     0.046 C 
ENDBRANCH  17  18
ENDBRANCH  14  17
ENDBRANCH  12  13
ENDBRANCH  11  12
ENDBRANCH  10  11
ENDBRANCH   7  10
ENDBRANCH   2   3
ENDBRANCH   1   2
BRANCH   1  22
HETATM   22  C5  UNL     1      18.045  29.803  14.035  1.00  0.00     0.030 C 
BRANCH  22  23
HETATM   23  C6  UNL     1      19.020  30.480  13.132  1.00  0.00     0.273 C 
BRANCH  23  24
HETATM   24  N1  UNL     1      20.172  29.668  12.840  1.00  0.00     0.094 N 
HETATM   25  C7  UNL     1      21.425  30.316  13.027  1.00  0.00     0.279 C 
HETATM   26  C8  UNL     1      22.527  29.362  13.339  1.00  0.00     0.089 C 
HETATM   27  C9  UNL     1      22.363  28.027  12.695  1.00  0.00     0.037 A 
HETATM   28  N2  UNL     1      23.367  27.365  12.097  1.00  0.00    -0.343 N 
HETATM   29  C14 UNL     1      21.077  27.498  12.753  1.00  0.00     0.060 A 
HETATM   30  C10 UNL     1      23.162  26.142  11.522  1.00  0.00     0.117 A 
ATOM     31  H2  UNL     1      24.298  27.782  12.071  1.00  0.00     0.167 HD
HETATM   32  C13 UNL     1      21.883  25.643  11.595  1.00  0.00     0.136 A 
HETATM   33  N4  UNL     1      20.860  26.316  12.202  1.00  0.00    -0.363 N 
ATOM     34  H4  UNL     1      19.927  25.904  12.230  1.00  0.00     0.165 HD
HETATM   35  C15 UNL     1      20.072  28.348  13.445  1.00  0.00     0.331 C 
BRANCH  30  36
HETATM   36  N3  UNL     1      24.157  25.558  10.965  1.00  0.00    -0.373 N 
ATOM     37  H3  UNL     1      24.610  24.818  11.501  1.00  0.00     0.161 HD
BRANCH  36  38
HETATM   38  C11 UNL     1      24.693  25.832   9.682  1.00  0.00     0.147 C 
BRANCH  38  39
HETATM   39  C12 UNL     1      24.114  24.863   8.668  1.00  0.00     0.183 C 
BRANCH  39  40
HETATM   40  O1  UNL     1      24.259  23.568   9.176  1.00  0.00    -0.399 OA
ATOM     41  H1  UNL     1      24.781  23.067   8.561  1.00  0.00     0.209 HD
ENDBRANCH  39  40
ENDBRANCH  38  39
ENDBRANCH  36  38
ENDBRANCH  30  36
ENDBRANCH  23  24
ENDBRANCH  22  23
ENDBRANCH   1  22
TORSDOF 15
ENDMDL
MODEL 3
REMARK VINA RESULT: -7.877539184      1.386      1.927
REMARK  15 active torsions:
REMARK  status: ('A' for Active; 'I' for Inactive)
REMARK    1  A    between atoms: C2_2  and  C3_3 
REMARK    2  A    between atoms: C3_3  and  C4_4 
REMARK    3  A    between atoms: C4_4  and  C5_5 
REMARK    4  A    between atoms: C5_5  and  C6_6 
REMARK    5  A    between atoms: C6_6  and  N1_7 
REMARK    6  A    between atoms: C10_13  and  N3_14 
REMARK    7  A    between atoms: N3_14  and  C11_16 
REMARK    8  A    between atoms: C11_16  and  C12_17 
REMARK    9  A    between atoms: C12_17  and  O1_18 
REMARK   10  A    between atoms: N5_27  and  C18_28 
REMARK   11  A    between atoms: C18_28  and  C19_29 
REMARK   12  A    between atoms: C19_29  and  C20_30 
REMARK   13  A    between atoms: C20_30  and  N6_31 
REMARK       I    between atoms: N6_31  and  C21_33 
REMARK   14  A    between atoms: C21_33  and  O3_35 
REMARK   15  A    between atoms: O3_35  and  C22_36 
ROOT
HETATM    1  C4  UNL     1      17.970  31.502  14.098  1.00  0.00     0.002 C 
ENDROOT
BRANCH   1   2
HETATM    2  C3  UNL     1      17.393  31.388  15.470  1.00  0.00     0.009 C 
BRANCH   2   3
HETATM    3  C2  UNL     1      16.745  32.658  15.897  1.00  0.00    -0.041 C 
HETATM    4  C1  UNL     1      15.253  32.426  15.957  1.00  0.00     0.015 C 
HETATM    5  C16 UNL     1      17.292  32.979  17.293  1.00  0.00     0.039 C 
HETATM    6  C17 UNL     1      16.594  34.164  17.844  1.00  0.00     0.273 C 
HETATM    7  N5  UNL     1      16.690  35.367  17.014  1.00  0.00     0.088 N 
HETATM    8  C26 UNL     1      16.323  35.051  15.645  1.00  0.00     0.273 C 
HETATM    9  C27 UNL     1      17.020  33.860  15.068  1.00  0.00     0.039 C 
BRANCH   7  10
HETATM   10  C18 UNL     1      18.010  35.954  17.129  1.00  0.00     0.274 C 
BRANCH  10  11
HETATM   11  C19 UNL     1      18.306  36.154  18.616  1.00  0.00     0.050 C 
BRANCH  11  12
HETATM   12  C20 UNL     1      19.813  35.955  18.833  1.00  0.00     0.127 C 
BRANCH  12  13
HETATM   13  N6  UNL     1      20.256  34.662  18.456  1.00  0.00    -0.337 N 
HETATM   14  C21 UNL     1      21.555  34.416  17.976  1.00  0.00     0.361 C 
HETATM   15  O2  UNL     1      22.408  35.360  17.855  1.00  0.00    -0.238 OA
ATOM     16  H6  UNL     1      19.607  33.879  18.536  1.00  0.00     0.164 HD
BRANCH  14  17
HETATM   17  O3  UNL     1      21.958  33.147  17.613  1.00  0.00    -0.294 OA
BRANCH  17  18
HETATM   18  C22 UNL     1      21.688  32.667  16.334  1.00  0.00     0.061 C 
HETATM   19  C23 UNL     1      20.911  31.359  16.496  1.00  0.00     0.046 C 
HETATM   20  C24 UNL     1      20.825  33.625  15.557  1.00  0.00     0.046 C 
HETATM   21  C25 UNL     1      22.932  32.340  15.527  1.00  0.00     0.046 C 
ENDBRANCH  17  18
ENDBRANCH  14  17
ENDBRANCH  12  13
ENDBRANCH  11  12
ENDBRANCH  10  11
ENDBRANCH   7  10
ENDBRANCH   2   3
ENDBRANCH   1   2
BRANCH   1  22
HETATM   22  C5  UNL     1      17.772  30.157  13.384  1.00  0.00     0.030 C 
BRANCH  22  23
HETATM   23  C6  UNL     1      18.547  29.124  14.132  1.00  0.00     0.273 C 
BRANCH  23  24
HETATM   24  N1  UNL     1      19.318  28.268  13.270  1.00  0.00     0.094 N 
HETATM   25  C7  UNL     1      18.553  27.500  12.348  1.00  0.00     0.279 C 
HETATM   26  C8  UNL     1      19.316  27.145  11.119  1.00  0.00     0.089 C 
HETATM   27  C9  UNL     1      20.777  26.957  11.356  1.00  0.00     0.037 A 
HETATM   28  N2  UNL     1      21.488  25.947  10.827  1.00  0.00    -0.343 N 
HETATM   29  C14 UNL     1      21.369  27.912  12.175  1.00  0.00     0.060 A 
HETATM   30  C10 UNL     1      22.827  25.821  11.076  1.00  0.00     0.117 A 
ATOM     31  H2  UNL     1      21.023  25.263  10.231  1.00  0.00     0.167 HD
HETATM   32  C13 UNL     1      23.386  26.779  11.888  1.00  0.00     0.136 A 
HETATM   33  N4  UNL     1      22.663  27.806  12.427  1.00  0.00    -0.363 N 
ATOM     34  H4  UNL     1      23.124  28.493  13.025  1.00  0.00     0.165 HD
HETATM   35  C15 UNL     1      20.454  28.967  12.686  1.00  0.00     0.331 C 
BRANCH  30  36
HETATM   36  N3  UNL     1      23.454  24.838  10.546  1.00  0.00    -0.373 N 
ATOM     37  H3  UNL     1      23.358  23.934  11.008  1.00  0.00     0.161 HD
BRANCH  36  38
HETATM   38  C11 UNL     1      24.267  24.876   9.385  1.00  0.00     0.147 C 
BRANCH  38  39
HETATM   39  C12 UNL     1      23.517  24.264   8.217  1.00  0.00     0.183 C 
BRANCH  39  40
HETATM   40  O1  UNL     1      23.290  25.271   7.273  1.00  0.00    -0.399 OA
ATOM     41  H1  UNL     1      22.362  25.283   7.072  1.00  0.00     0.209 HD
ENDBRANCH  39  40
ENDBRANCH  38  39
ENDBRANCH  36  38
ENDBRANCH  30  36
ENDBRANCH  23  24
ENDBRANCH  22  23
ENDBRANCH   1  22
TORSDOF 15
ENDMDL
MODEL 4
REMARK VINA RESULT: -7.847707344      2.477      9.472
REMARK  15 active torsions:
REMARK  status: ('A' for Active; 'I' for Inactive)
REMARK    1  A    between atoms: C2_2  and  C3_3 
REMARK    2  A    between atoms: C3_3  and  C4_4 
REMARK    3  A    between atoms: C4_4  and  C5_5 
REMARK    4  A    between atoms: C5_5  and  C6_6 
REMARK    5  A    between atoms: C6_6  and  N1_7 
REMARK    6  A    between atoms: C10_13  and  N3_14 
REMARK    7  A    between atoms: N3_14  and  C11_16 
REMARK    8  A    between atoms: C11_16  and  C12_17 
REMARK    9  A    between atoms: C12_17  and  O1_18 
REMARK   10  A    between atoms: N5_27  and  C18_28 
REMARK   11  A    between atoms: C18_28  and  C19_29 
REMARK   12  A    between atoms: C19_29  and  C20_30 
REMARK   13  A    between atoms: C20_30  and  N6_31 
REMARK       I    between atoms: N6_31  and  C21_33 
REMARK   14  A    between atoms: C21_33  and  O3_35 
REMARK   15  A    between atoms: O3_35  and  C22_36 
ROOT
HETATM    1  C4  UNL     1      22.298  30.689  14.016  1.00  0.00     0.002 C 
ENDROOT
BRANCH   1   2
HETATM    2  C3  UNL     1      21.108  30.928  13.147  1.00  0.00     0.009 C 
BRANCH   2   3
HETATM    3  C2  UNL     1      19.966  30.054  13.533  1.00  0.00    -0.041 C 
HETATM    4  C1  UNL     1      19.421  30.551  14.852  1.00  0.00     0.015 C 
HETATM    5  C16 UNL     1      18.911  30.202  12.430  1.00  0.00     0.039 C 
HETATM    6  C17 UNL     1      17.685  29.461  12.807  1.00  0.00     0.273 C 
HETATM    7  N5  UNL     1      17.892  28.036  13.071  1.00  0.00     0.088 N 
HETATM    8  C26 UNL     1      18.994  27.863  14.001  1.00  0.00     0.273 C 
HETATM    9  C27 UNL     1      20.244  28.598  13.635  1.00  0.00     0.039 C 
BRANCH   7  10
HETATM   10  C18 UNL     1      18.076  27.315  11.829  1.00  0.00     0.274 C 
BRANCH  10  11
HETATM   11  C19 UNL     1      18.245  25.833  12.167  1.00  0.00     0.050 C 
BRANCH  11  12
HETATM   12  C20 UNL     1      19.380  25.272  11.299  1.00  0.00     0.127 C 
BRANCH  12  13
HETATM   13  N6  UNL     1      20.663  25.500  11.858  1.00  0.00    -0.337 N 
HETATM   14  C21 UNL     1      21.847  25.393  11.106  1.00  0.00     0.361 C 
HETATM   15  O2  UNL     1      21.821  25.081   9.867  1.00  0.00    -0.238 OA
ATOM     16  H6  UNL     1      20.730  25.752  12.844  1.00  0.00     0.164 HD
BRANCH  14  17
HETATM   17  O3  UNL     1      23.083  25.618  11.677  1.00  0.00    -0.294 OA
BRANCH  17  18
HETATM   18  C22 UNL     1      23.846  26.715  11.285  1.00  0.00     0.061 C 
HETATM   19  C23 UNL     1      24.946  26.899  12.331  1.00  0.00     0.046 C 
HETATM   20  C24 UNL     1      24.508  26.477   9.954  1.00  0.00     0.046 C 
HETATM   21  C25 UNL     1      23.067  28.017  11.235  1.00  0.00     0.046 C 
ENDBRANCH  17  18
ENDBRANCH  14  17
ENDBRANCH  12  13
ENDBRANCH  11  12
ENDBRANCH  10  11
ENDBRANCH   7  10
ENDBRANCH   2   3
ENDBRANCH   1   2
BRANCH   1  22
HETATM   22  C5  UNL     1      22.898  32.053  14.388  1.00  0.00     0.030 C 
BRANCH  22  23
HETATM   23  C6  UNL     1      23.066  32.089  15.870  1.00  0.00     0.273 C 
BRANCH  23  24
HETATM   24  N1  UNL     1      22.044  32.856  16.532  1.00  0.00     0.094 N 
HETATM   25  C7  UNL     1      22.454  33.482  17.743  1.00  0.00     0.279 C 
HETATM   26  C8  UNL     1      21.666  34.707  18.055  1.00  0.00     0.089 C 
HETATM   27  C9  UNL     1      20.253  34.647  17.580  1.00  0.00     0.037 A 
HETATM   28  N2  UNL     1      19.206  35.052  18.318  1.00  0.00    -0.343 N 
HETATM   29  C14 UNL     1      20.083  34.135  16.298  1.00  0.00     0.060 A 
HETATM   30  C10 UNL     1      17.930  34.975  17.834  1.00  0.00     0.117 A 
ATOM     31  H2  UNL     1      19.366  35.421  19.256  1.00  0.00     0.167 HD
HETATM   32  C13 UNL     1      17.792  34.466  16.565  1.00  0.00     0.136 A 
HETATM   33  N4  UNL     1      18.856  34.054  15.813  1.00  0.00    -0.363 N 
ATOM     34  H4  UNL     1      18.702  33.682  14.875  1.00  0.00     0.165 HD
HETATM   35  C15 UNL     1      21.335  33.727  15.606  1.00  0.00     0.331 C 
BRANCH  30  36
HETATM   36  N3  UNL     1      16.971  35.375  18.583  1.00  0.00    -0.373 N 
ATOM     37  H3  UNL     1      17.007  35.089  19.562  1.00  0.00     0.161 HD
BRANCH  36  38
HETATM   38  C11 UNL     1      15.865  36.172  18.194  1.00  0.00     0.147 C 
BRANCH  38  39
HETATM   39  C12 UNL     1      14.599  35.336  18.220  1.00  0.00     0.183 C 
BRANCH  39  40
HETATM   40  O1  UNL     1      14.891  34.126  18.859  1.00  0.00    -0.399 OA
ATOM     41  H1  UNL     1      14.933  34.290  19.794  1.00  0.00     0.209 HD
ENDBRANCH  39  40
ENDBRANCH  38  39
ENDBRANCH  36  38
ENDBRANCH  30  36
ENDBRANCH  23  24
ENDBRANCH  22  23
ENDBRANCH   1  22
TORSDOF 15
ENDMDL
MODEL 5
REMARK VINA RESULT: -7.787154978      1.705      2.357
REMARK  15 active torsions:
REMARK  status: ('A' for Active; 'I' for Inactive)
REMARK    1  A    between atoms: C2_2  and  C3_3 
REMARK    2  A    between atoms: C3_3  and  C4_4 
REMARK    3  A    between atoms: C4_4  and  C5_5 
REMARK    4  A    between atoms: C5_5  and  C6_6 
REMARK    5  A    between atoms: C6_6  and  N1_7 
REMARK    6  A    between atoms: C10_13  and  N3_14 
REMARK    7  A    between atoms: N3_14  and  C11_16 
REMARK    8  A    between atoms: C11_16  and  C12_17 
REMARK    9  A    between atoms: C12_17  and  O1_18 
REMARK   10  A    between atoms: N5_27  and  C18_28 
REMARK   11  A    between atoms: C18_28  and  C19_29 
REMARK   12  A    between atoms: C19_29  and  C20_30 
REMARK   13  A    between atoms: C20_30  and  N6_31 
REMARK       I    between atoms: N6_31  and  C21_33 
REMARK   14  A    between atoms: C21_33  and  O3_35 
REMARK   15  A    between atoms: O3_35  and  C22_36 
ROOT
HETATM    1  C4  UNL     1      17.493  32.814  15.594  1.00  0.00     0.002 C 
ENDROOT
BRANCH   1   2
HETATM    2  C3  UNL     1      16.106  33.280  15.889  1.00  0.00     0.009 C 
BRANCH   2   3
HETATM    3  C2  UNL     1      16.106  34.446  16.815  1.00  0.00    -0.041 C 
HETATM    4  C1  UNL     1      14.824  34.408  17.615  1.00  0.00     0.015 C 
HETATM    5  C16 UNL     1      17.317  34.270  17.738  1.00  0.00     0.039 C 
HETATM    6  C17 UNL     1      17.312  35.326  18.778  1.00  0.00     0.273 C 
HETATM    7  N5  UNL     1      17.314  36.694  18.255  1.00  0.00     0.088 N 
HETATM    8  C26 UNL     1      16.267  36.842  17.259  1.00  0.00     0.273 C 
HETATM    9  C27 UNL     1      16.258  35.788  16.198  1.00  0.00     0.039 C 
BRANCH   7  10
HETATM   10  C18 UNL     1      18.629  37.040  17.754  1.00  0.00     0.274 C 
BRANCH  10  11
HETATM   11  C19 UNL     1      18.601  38.514  17.345  1.00  0.00     0.050 C 
BRANCH  11  12
HETATM   12  C20 UNL     1      20.026  38.924  16.946  1.00  0.00     0.127 C 
BRANCH  12  13
HETATM   13  N6  UNL     1      20.878  37.812  16.733  1.00  0.00    -0.337 N 
HETATM   14  C21 UNL     1      21.819  37.384  17.688  1.00  0.00     0.361 C 
HETATM   15  O2  UNL     1      21.950  37.987  18.807  1.00  0.00    -0.238 OA
ATOM     16  H6  UNL     1      20.808  37.302  15.853  1.00  0.00     0.164 HD
BRANCH  14  17
HETATM   17  O3  UNL     1      22.639  36.300  17.452  1.00  0.00    -0.294 OA
BRANCH  17  18
HETATM   18  C22 UNL     1      22.106  35.013  17.421  1.00  0.00     0.061 C 
HETATM   19  C23 UNL     1      23.282  34.035  17.424  1.00  0.00     0.046 C 
HETATM   20  C24 UNL     1      21.269  34.735  18.642  1.00  0.00     0.046 C 
HETATM   21  C25 UNL     1      21.292  34.717  16.174  1.00  0.00     0.046 C 
ENDBRANCH  17  18
ENDBRANCH  14  17
ENDBRANCH  12  13
ENDBRANCH  11  12
ENDBRANCH  10  11
ENDBRANCH   7  10
ENDBRANCH   2   3
ENDBRANCH   1   2
BRANCH   1  22
HETATM   22  C5  UNL     1      17.471  31.282  15.500  1.00  0.00     0.030 C 
BRANCH  22  23
HETATM   23  C6  UNL     1      18.706  30.767  16.160  1.00  0.00     0.273 C 
BRANCH  23  24
HETATM   24  N1  UNL     1      19.726  30.381  15.220  1.00  0.00     0.094 N 
HETATM   25  C7  UNL     1      20.778  31.325  15.057  1.00  0.00     0.279 C 
HETATM   26  C8  UNL     1      22.057  30.694  14.626  1.00  0.00     0.089 C 
HETATM   27  C9  UNL     1      21.871  29.490  13.765  1.00  0.00     0.037 A 
HETATM   28  N2  UNL     1      22.594  29.253  12.658  1.00  0.00    -0.343 N 
HETATM   29  C14 UNL     1      20.881  28.610  14.189  1.00  0.00     0.060 A 
HETATM   30  C10 UNL     1      22.383  28.132  11.905  1.00  0.00     0.117 A 
ATOM     31  H2  UNL     1      23.312  29.919  12.375  1.00  0.00     0.167 HD
HETATM   32  C13 UNL     1      21.399  27.279  12.347  1.00  0.00     0.136 A 
HETATM   33  N4  UNL     1      20.662  27.520  13.473  1.00  0.00    -0.363 N 
ATOM     34  H4  UNL     1      19.942  26.857  13.760  1.00  0.00     0.165 HD
HETATM   35  C15 UNL     1      20.165  29.009  15.430  1.00  0.00     0.331 C 
BRANCH  30  36
HETATM   36  N3  UNL     1      23.101  27.958  10.859  1.00  0.00    -0.373 N 
ATOM     37  H3  UNL     1      23.013  28.660  10.123  1.00  0.00     0.161 HD
BRANCH  36  38
HETATM   38  C11 UNL     1      24.004  26.893  10.616  1.00  0.00     0.147 C 
BRANCH  38  39
HETATM   39  C12 UNL     1      25.086  26.889  11.680  1.00  0.00     0.183 C 
BRANCH  39  40
HETATM   40  O1  UNL     1      25.019  25.668  12.361  1.00  0.00    -0.399 OA
ATOM     41  H1  UNL     1      25.280  25.819  13.261  1.00  0.00     0.209 HD
ENDBRANCH  39  40
ENDBRANCH  38  39
ENDBRANCH  36  38
ENDBRANCH  30  36
ENDBRANCH  23  24
ENDBRANCH  22  23
ENDBRANCH   1  22
TORSDOF 15
ENDMDL
