MODEL 1
REMARK VINA RESULT: -8.302516718      0.000      0.000
REMARK  12 active torsions:
REMARK  status: ('A' for Active; 'I' for Inactive)
REMARK    1  A    between atoms: C2_2  and  C3_3 
REMARK    2  A    between atoms: C3_3  and  C4_4 
REMARK    3  A    between atoms: C4_4  and  C5_6 
REMARK    4  A    between atoms: C6_9  and  C7_10 
REMARK       I    between atoms: C7_10  and  N2_12 
REMARK    5  A    between atoms: C8_14  and  C9_15 
REMARK    6  A    between atoms: C8_14  and  C13_21 
REMARK    7  A    between atoms: C9_15  and  C10_16 
REMARK    8  A    between atoms: C10_16  and  O4_18 
REMARK    9  A    between atoms: O4_18  and  C11_19 
REMARK   10  A    between atoms: C21_33  and  C22_34 
REMARK   11  A    between atoms: C22_34  and  C23_35 
REMARK   12  A    between atoms: C23_35  and  C24_36 
ROOT
HETATM    1  C7  UNL     1      17.202  32.795  16.828  1.00  0.00     0.272 C 
HETATM    2  O2  UNL     1      15.954  32.848  16.829  1.00  0.00    -0.266 OA
HETATM    3  N2  UNL     1      18.043  33.461  17.678  1.00  0.00    -0.328 N 
ATOM      4  H2  UNL     1      18.941  32.991  17.787  1.00  0.00     0.168 HD
HETATM    5  C8  UNL     1      17.966  34.531  18.362  1.00  0.00     0.006 C 
ENDROOT
BRANCH   1   6
HETATM    6  C6  UNL     1      17.826  31.919  15.798  1.00  0.00     0.108 A 
HETATM    7  N1  UNL     1      17.919  30.590  15.859  1.00  0.00    -0.348 N 
HETATM    8  C5  UNL     1      18.562  30.084  14.747  1.00  0.00     0.086 A 
ATOM      9  H1  UNL     1      17.562  30.022  16.627  1.00  0.00     0.166 HD
HETATM   10  C21 UNL     1      18.890  31.142  13.940  1.00  0.00    -0.016 A 
HETATM   11  C19 UNL     1      18.422  32.287  14.622  1.00  0.00    -0.021 A 
HETATM   12  C20 UNL     1      18.587  33.687  14.180  1.00  0.00     0.051 C 
BRANCH   8  13
HETATM   13  C4  UNL     1      18.808  28.667  14.656  1.00  0.00     0.176 C 
HETATM   14  O1  UNL     1      19.891  28.222  15.217  1.00  0.00    -0.291 OA
BRANCH  13  15
HETATM   15  C3  UNL     1      17.970  27.683  13.995  1.00  0.00     0.085 C 
BRANCH  15  16
HETATM   16  C2  UNL     1      18.209  27.688  12.468  1.00  0.00     0.003 C 
HETATM   17  C1  UNL     1      17.179  28.511  11.768  1.00  0.00     0.005 C 
ENDBRANCH  15  16
ENDBRANCH  13  15
ENDBRANCH   8  13
BRANCH  10  18
HETATM   18  C22 UNL     1      19.582  31.201  12.666  1.00  0.00     0.074 C 
BRANCH  18  19
HETATM   19  C23 UNL     1      20.979  30.791  12.561  1.00  0.00     0.048 C 
BRANCH  19  20
HETATM   20  C24 UNL     1      21.950  31.089  13.593  1.00  0.00     0.251 C 
HETATM   21  N4  UNL     1      22.387  32.472  13.708  1.00  0.00    -0.058 NA
HETATM   22  O6  UNL     1      22.435  30.285  14.377  1.00  0.00    -0.272 OA
ENDBRANCH  19  20
ENDBRANCH  18  19
ENDBRANCH  10  18
ENDBRANCH   1   6
BRANCH   5  23
HETATM   23  C9  UNL     1      19.173  34.880  19.171  1.00  0.00     0.164 C 
BRANCH  23  24
HETATM   24  C10 UNL     1      20.327  35.125  18.273  1.00  0.00     0.264 C 
HETATM   25  O3  UNL     1      20.229  35.504  17.073  1.00  0.00    -0.265 OA
BRANCH  24  26
HETATM   26  O4  UNL     1      21.639  34.945  18.715  1.00  0.00    -0.322 OA
BRANCH  26  27
HETATM   27  C11 UNL     1      22.744  35.191  17.889  1.00  0.00     0.174 C 
HETATM   28  C12 UNL     1      23.478  33.986  17.435  1.00  0.00     0.034 C 
ENDBRANCH  26  27
ENDBRANCH  24  26
ENDBRANCH  23  24
ENDBRANCH   5  23
BRANCH   5  29
HETATM   29  C13 UNL     1      16.743  35.336  18.314  1.00  0.00     0.071 A 
HETATM   30  C14 UNL     1      16.653  36.413  17.371  1.00  0.00     0.109 A 
HETATM   31  N3  UNL     1      17.666  37.239  16.812  1.00  0.00    -0.355 N 
HETATM   32  C18 UNL     1      16.759  36.675  18.891  1.00  0.00     0.082 A 
HETATM   33  C15 UNL     1      17.634  38.680  16.962  1.00  0.00     0.218 C 
ATOM     34  H3  UNL     1      18.432  36.808  16.294  1.00  0.00     0.162 HD
HETATM   35  O5  UNL     1      18.454  39.316  16.252  1.00  0.00    -0.274 OA
HETATM   36  C16 UNL     1      16.791  39.554  17.817  1.00  0.00     0.113 C 
HETATM   37  C17 UNL     1      15.373  39.021  17.990  1.00  0.00     0.083 C 
HETATM   38  S1  UNL     1      15.336  37.695  19.269  1.00  0.00    -0.161 SA
ENDBRANCH   5  29
TORSDOF 12
ENDMDL
MODEL 2
REMARK VINA RESULT: -7.731668641      2.820      8.612
REMARK  12 active torsions:
REMARK  status: ('A' for Active; 'I' for Inactive)
REMARK    1  A    between atoms: C2_2  and  C3_3 
REMARK    2  A    between atoms: C3_3  and  C4_4 
REMARK    3  A    between atoms: C4_4  and  C5_6 
REMARK    4  A    between atoms: C6_9  and  C7_10 
REMARK       I    between atoms: C7_10  and  N2_12 
REMARK    5  A    between atoms: C8_14  and  C9_15 
REMARK    6  A    between atoms: C8_14  and  C13_21 
REMARK    7  A    between atoms: C9_15  and  C10_16 
REMARK    8  A    between atoms: C10_16  and  O4_18 
REMARK    9  A    between atoms: O4_18  and  C11_19 
REMARK   10  A    between atoms: C21_33  and  C22_34 
REMARK   11  A    between atoms: C22_34  and  C23_35 
REMARK   12  A    between atoms: C23_35  and  C24_36 
ROOT
HETATM    1  C7  UNL     1      18.422  31.578  14.829  1.00  0.00     0.272 C 
HETATM    2  O2  UNL     1      17.626  31.731  13.878  1.00  0.00    -0.266 OA
HETATM    3  N2  UNL     1      19.276  30.525  15.012  1.00  0.00    -0.328 N 
ATOM      4  H2  UNL     1      20.088  30.774  15.578  1.00  0.00     0.168 HD
HETATM    5  C8  UNL     1      19.295  29.308  14.641  1.00  0.00     0.006 C 
ENDROOT
BRANCH   1   6
HETATM    6  C6  UNL     1      18.434  32.654  15.860  1.00  0.00     0.108 A 
HETATM    7  N1  UNL     1      19.514  33.304  16.294  1.00  0.00    -0.348 N 
HETATM    8  C5  UNL     1      19.182  34.234  17.259  1.00  0.00     0.086 A 
ATOM      9  H1  UNL     1      20.462  33.136  15.958  1.00  0.00     0.166 HD
HETATM   10  C21 UNL     1      17.825  34.174  17.443  1.00  0.00    -0.016 A 
HETATM   11  C19 UNL     1      17.375  33.172  16.556  1.00  0.00    -0.021 A 
HETATM   12  C20 UNL     1      15.983  32.694  16.421  1.00  0.00     0.051 C 
BRANCH   8  13
HETATM   13  C4  UNL     1      20.225  35.001  17.892  1.00  0.00     0.176 C 
HETATM   14  O1  UNL     1      20.208  35.056  19.189  1.00  0.00    -0.291 OA
BRANCH  13  15
HETATM   15  C3  UNL     1      21.293  35.724  17.227  1.00  0.00     0.085 C 
BRANCH  15  16
HETATM   16  C2  UNL     1      22.662  35.408  17.873  1.00  0.00     0.003 C 
HETATM   17  C1  UNL     1      23.116  34.032  17.516  1.00  0.00     0.005 C 
ENDBRANCH  15  16
ENDBRANCH  13  15
ENDBRANCH   8  13
BRANCH  10  18
HETATM   18  C22 UNL     1      16.943  34.905  18.333  1.00  0.00     0.074 C 
BRANCH  18  19
HETATM   19  C23 UNL     1      16.331  36.159  17.905  1.00  0.00     0.048 C 
BRANCH  19  20
HETATM   20  C24 UNL     1      17.119  37.327  17.569  1.00  0.00     0.251 C 
HETATM   21  N4  UNL     1      18.048  37.809  18.579  1.00  0.00    -0.058 NA
HETATM   22  O6  UNL     1      17.076  37.942  16.512  1.00  0.00    -0.272 OA
ENDBRANCH  19  20
ENDBRANCH  18  19
ENDBRANCH  10  18
ENDBRANCH   1   6
BRANCH   5  23
HETATM   23  C9  UNL     1      20.468  28.502  15.095  1.00  0.00     0.164 C 
BRANCH  23  24
HETATM   24  C10 UNL     1      21.672  28.887  14.322  1.00  0.00     0.264 C 
HETATM   25  O3  UNL     1      22.194  28.182  13.414  1.00  0.00    -0.265 OA
BRANCH  24  26
HETATM   26  O4  UNL     1      22.327  30.098  14.557  1.00  0.00    -0.322 OA
BRANCH  26  27
HETATM   27  C11 UNL     1      22.322  31.142  13.621  1.00  0.00     0.174 C 
HETATM   28  C12 UNL     1      22.354  32.508  14.195  1.00  0.00     0.034 C 
ENDBRANCH  26  27
ENDBRANCH  24  26
ENDBRANCH  23  24
ENDBRANCH   5  23
BRANCH   5  29
HETATM   29  C13 UNL     1      18.198  28.783  13.825  1.00  0.00     0.071 A 
HETATM   30  C14 UNL     1      18.360  27.519  13.167  1.00  0.00     0.109 A 
HETATM   31  N3  UNL     1      19.530  26.875  12.680  1.00  0.00    -0.355 N 
HETATM   32  C18 UNL     1      18.308  28.844  12.373  1.00  0.00     0.082 A 
HETATM   33  C15 UNL     1      19.660  26.499  11.285  1.00  0.00     0.218 C 
ATOM     34  H3  UNL     1      20.295  26.673  13.324  1.00  0.00     0.162 HD
HETATM   35  O5  UNL     1      20.635  25.752  11.015  1.00  0.00    -0.274 OA
HETATM   36  C16 UNL     1      18.833  26.842  10.101  1.00  0.00     0.113 C 
HETATM   37  C17 UNL     1      17.350  26.961  10.430  1.00  0.00     0.083 C 
HETATM   38  S1  UNL     1      16.988  28.603  11.187  1.00  0.00    -0.161 SA
ENDBRANCH   5  29
TORSDOF 12
ENDMDL
MODEL 3
REMARK VINA RESULT: -7.699427143      3.472      5.145
REMARK  12 active torsions:
REMARK  status: ('A' for Active; 'I' for Inactive)
REMARK    1  A    between atoms: C2_2  and  C3_3 
REMARK    2  A    between atoms: C3_3  and  C4_4 
REMARK    3  A    between atoms: C4_4  and  C5_6 
REMARK    4  A    between atoms: C6_9  and  C7_10 
REMARK       I    between atoms: C7_10  and  N2_12 
REMARK    5  A    between atoms: C8_14  and  C9_15 
REMARK    6  A    between atoms: C8_14  and  C13_21 
REMARK    7  A    between atoms: C9_15  and  C10_16 
REMARK    8  A    between atoms: C10_16  and  O4_18 
REMARK    9  A    between atoms: O4_18  and  C11_19 
REMARK   10  A    between atoms: C21_33  and  C22_34 
REMARK   11  A    between atoms: C22_34  and  C23_35 
REMARK   12  A    between atoms: C23_35  and  C24_36 
ROOT
HETATM    1  C7  UNL     1      19.973  29.902  15.065  1.00  0.00     0.272 C 
HETATM    2  O2  UNL     1      19.337  29.465  16.048  1.00  0.00    -0.266 OA
HETATM    3  N2  UNL     1      20.568  31.130  14.964  1.00  0.00    -0.328 N 
ATOM      4  H2  UNL     1      21.344  31.134  14.303  1.00  0.00     0.168 HD
HETATM    5  C8  UNL     1      20.378  32.267  15.501  1.00  0.00     0.006 C 
ENDROOT
BRANCH   1   6
HETATM    6  C6  UNL     1      20.089  28.988  13.894  1.00  0.00     0.108 A 
HETATM    7  N1  UNL     1      21.166  28.273  13.569  1.00  0.00    -0.348 N 
HETATM    8  C5  UNL     1      20.948  27.536  12.422  1.00  0.00     0.086 A 
ATOM      9  H1  UNL     1      22.038  28.270  14.098  1.00  0.00     0.166 HD
HETATM   10  C21 UNL     1      19.669  27.794  12.001  1.00  0.00    -0.016 A 
HETATM   11  C19 UNL     1      19.148  28.712  12.939  1.00  0.00    -0.021 A 
HETATM   12  C20 UNL     1      17.812  29.340  12.888  1.00  0.00     0.051 C 
BRANCH   8  13
HETATM   13  C4  UNL     1      22.018  26.738  11.878  1.00  0.00     0.176 C 
HETATM   14  O1  UNL     1      21.902  25.449  11.987  1.00  0.00    -0.291 OA
BRANCH  13  15
HETATM   15  C3  UNL     1      23.217  27.228  11.224  1.00  0.00     0.085 C 
BRANCH  15  16
HETATM   16  C2  UNL     1      24.472  26.941  12.080  1.00  0.00     0.003 C 
HETATM   17  C1  UNL     1      25.557  26.339  11.251  1.00  0.00     0.005 C 
ENDBRANCH  15  16
ENDBRANCH  13  15
ENDBRANCH   8  13
BRANCH  10  18
HETATM   18  C22 UNL     1      18.919  27.313  10.856  1.00  0.00     0.074 C 
BRANCH  18  19
HETATM   19  C23 UNL     1      18.515  25.913  10.769  1.00  0.00     0.048 C 
BRANCH  19  20
HETATM   20  C24 UNL     1      18.909  25.064   9.664  1.00  0.00     0.251 C 
HETATM   21  N4  UNL     1      17.841  24.501   8.851  1.00  0.00    -0.058 NA
HETATM   22  O6  UNL     1      20.057  24.779   9.350  1.00  0.00    -0.272 OA
ENDBRANCH  19  20
ENDBRANCH  18  19
ENDBRANCH  10  18
ENDBRANCH   1   6
BRANCH   5  23
HETATM   23  C9  UNL     1      21.303  33.358  15.071  1.00  0.00     0.164 C 
BRANCH  23  24
HETATM   24  C10 UNL     1      22.709  32.929  15.257  1.00  0.00     0.264 C 
HETATM   25  O3  UNL     1      23.388  32.310  14.391  1.00  0.00    -0.265 OA
BRANCH  24  26
HETATM   26  O4  UNL     1      23.395  33.192  16.445  1.00  0.00    -0.322 OA
BRANCH  26  27
HETATM   27  C11 UNL     1      22.754  33.723  17.573  1.00  0.00     0.174 C 
HETATM   28  C12 UNL     1      22.943  35.178  17.785  1.00  0.00     0.034 C 
ENDBRANCH  26  27
ENDBRANCH  24  26
ENDBRANCH  23  24
ENDBRANCH   5  23
BRANCH   5  29
HETATM   29  C13 UNL     1      19.295  32.438  16.472  1.00  0.00     0.071 A 
HETATM   30  C14 UNL     1      17.988  32.798  16.005  1.00  0.00     0.109 A 
HETATM   31  N3  UNL     1      17.588  33.546  14.863  1.00  0.00    -0.355 N 
HETATM   32  C18 UNL     1      18.859  33.788  16.811  1.00  0.00     0.082 A 
HETATM   33  C15 UNL     1      16.792  34.751  14.991  1.00  0.00     0.218 C 
ATOM     34  H3  UNL     1      17.868  33.229  13.935  1.00  0.00     0.162 HD
HETATM   35  O5  UNL     1      16.323  35.206  13.917  1.00  0.00    -0.274 OA
HETATM   36  C16 UNL     1      16.426  35.556  16.184  1.00  0.00     0.113 C 
HETATM   37  C17 UNL     1      16.211  34.704  17.429  1.00  0.00     0.083 C 
HETATM   38  S1  UNL     1      17.829  34.265  18.195  1.00  0.00    -0.161 SA
ENDBRANCH   5  29
TORSDOF 12
ENDMDL
MODEL 4
REMARK VINA RESULT: -7.637919441      2.981      8.540
REMARK  12 active torsions:
REMARK  status: ('A' for Active; 'I' for Inactive)
REMARK    1  A    between atoms: C2_2  and  C3_3 
REMARK    2  A    between atoms: C3_3  and  C4_4 
REMARK    3  A    between atoms: C4_4  and  C5_6 
REMARK    4  A    between atoms: C6_9  and  C7_10 
REMARK       I    between atoms: C7_10  and  N2_12 
REMARK    5  A    between atoms: C8_14  and  C9_15 
REMARK    6  A    between atoms: C8_14  and  C13_21 
REMARK    7  A    between atoms: C9_15  and  C10_16 
REMARK    8  A    between atoms: C10_16  and  O4_18 
REMARK    9  A    between atoms: O4_18  and  C11_19 
REMARK   10  A    between atoms: C21_33  and  C22_34 
REMARK   11  A    between atoms: C22_34  and  C23_35 
REMARK   12  A    between atoms: C23_35  and  C24_36 
ROOT
HETATM    1  C7  UNL     1      17.945  31.433  14.916  1.00  0.00     0.272 C 
HETATM    2  O2  UNL     1      17.200  31.555  13.920  1.00  0.00    -0.266 OA
HETATM    3  N2  UNL     1      18.876  30.451  15.118  1.00  0.00    -0.328 N 
ATOM      4  H2  UNL     1      19.625  30.745  15.745  1.00  0.00     0.168 HD
HETATM    5  C8  UNL     1      19.026  29.256  14.706  1.00  0.00     0.006 C 
ENDROOT
BRANCH   1   6
HETATM    6  C6  UNL     1      17.796  32.462  15.983  1.00  0.00     0.108 A 
HETATM    7  N1  UNL     1      16.643  32.969  16.420  1.00  0.00    -0.348 N 
HETATM    8  C5  UNL     1      16.854  33.909  17.409  1.00  0.00     0.086 A 
ATOM      9  H1  UNL     1      15.724  32.699  16.069  1.00  0.00     0.166 HD
HETATM   10  C21 UNL     1      18.207  34.000  17.612  1.00  0.00    -0.016 A 
HETATM   11  C19 UNL     1      18.780  33.084  16.702  1.00  0.00    -0.021 A 
HETATM   12  C20 UNL     1      20.225  32.855  16.497  1.00  0.00     0.051 C 
BRANCH   8  13
HETATM   13  C4  UNL     1      15.728  34.612  17.970  1.00  0.00     0.176 C 
HETATM   14  O1  UNL     1      15.154  34.071  19.002  1.00  0.00    -0.291 OA
BRANCH  13  15
HETATM   15  C3  UNL     1      15.165  35.863  17.498  1.00  0.00     0.085 C 
BRANCH  15  16
HETATM   16  C2  UNL     1      14.707  36.746  18.681  1.00  0.00     0.003 C 
HETATM   17  C1  UNL     1      15.818  37.624  19.154  1.00  0.00     0.005 C 
ENDBRANCH  15  16
ENDBRANCH  13  15
ENDBRANCH   8  13
BRANCH  10  18
HETATM   18  C22 UNL     1      18.990  34.828  18.509  1.00  0.00     0.074 C 
BRANCH  18  19
HETATM   19  C23 UNL     1      19.183  36.248  18.230  1.00  0.00     0.048 C 
BRANCH  19  20
HETATM   20  C24 UNL     1      20.475  36.795  17.871  1.00  0.00     0.251 C 
HETATM   21  N4  UNL     1      20.936  37.950  18.627  1.00  0.00    -0.058 NA
HETATM   22  O6  UNL     1      21.214  36.373  16.993  1.00  0.00    -0.272 OA
ENDBRANCH  19  20
ENDBRANCH  18  19
ENDBRANCH  10  18
ENDBRANCH   1   6
BRANCH   5  23
HETATM   23  C9  UNL     1      20.235  28.537  15.208  1.00  0.00     0.164 C 
BRANCH  23  24
HETATM   24  C10 UNL     1      21.439  29.011  14.486  1.00  0.00     0.264 C 
HETATM   25  O3  UNL     1      22.035  28.357  13.585  1.00  0.00    -0.265 OA
BRANCH  24  26
HETATM   26  O4  UNL     1      22.008  30.255  14.767  1.00  0.00    -0.322 OA
BRANCH  26  27
HETATM   27  C11 UNL     1      22.187  31.232  13.778  1.00  0.00     0.174 C 
HETATM   28  C12 UNL     1      22.994  32.407  14.186  1.00  0.00     0.034 C 
ENDBRANCH  26  27
ENDBRANCH  24  26
ENDBRANCH  23  24
ENDBRANCH   5  23
BRANCH   5  29
HETATM   29  C13 UNL     1      18.034  28.672  13.801  1.00  0.00     0.071 A 
HETATM   30  C14 UNL     1      18.331  27.431  13.147  1.00  0.00     0.109 A 
HETATM   31  N3  UNL     1      19.576  26.871  12.749  1.00  0.00    -0.355 N 
HETATM   32  C18 UNL     1      18.254  28.761  12.363  1.00  0.00     0.082 A 
HETATM   33  C15 UNL     1      19.840  26.524  11.366  1.00  0.00     0.218 C 
ATOM     34  H3  UNL     1      20.299  26.711  13.450  1.00  0.00     0.162 HD
HETATM   35  O5  UNL     1      20.881  25.846  11.168  1.00  0.00    -0.274 OA
HETATM   36  C16 UNL     1      19.088  26.830  10.122  1.00  0.00     0.113 C 
HETATM   37  C17 UNL     1      17.579  26.847  10.333  1.00  0.00     0.083 C 
HETATM   38  S1  UNL     1      17.051  28.451  11.073  1.00  0.00    -0.161 SA
ENDBRANCH   5  29
TORSDOF 12
ENDMDL
MODEL 5
REMARK VINA RESULT: -7.605733408      1.120      1.217
REMARK  12 active torsions:
REMARK  status: ('A' for Active; 'I' for Inactive)
REMARK    1  A    between atoms: C2_2  and  C3_3 
REMARK    2  A    between atoms: C3_3  and  C4_4 
REMARK    3  A    between atoms: C4_4  and  C5_6 
REMARK    4  A    between atoms: C6_9  and  C7_10 
REMARK       I    between atoms: C7_10  and  N2_12 
REMARK    5  A    between atoms: C8_14  and  C9_15 
REMARK    6  A    between atoms: C8_14  and  C13_21 
REMARK    7  A    between atoms: C9_15  and  C10_16 
REMARK    8  A    between atoms: C10_16  and  O4_18 
REMARK    9  A    between atoms: O4_18  and  C11_19 
REMARK   10  A    between atoms: C21_33  and  C22_34 
REMARK   11  A    between atoms: C22_34  and  C23_35 
REMARK   12  A    between atoms: C23_35  and  C24_36 
ROOT
HETATM    1  C7  UNL     1      17.328  33.051  16.740  1.00  0.00     0.272 C 
HETATM    2  O2  UNL     1      16.081  33.112  16.708  1.00  0.00    -0.266 OA
HETATM    3  N2  UNL     1      18.147  33.658  17.653  1.00  0.00    -0.328 N 
ATOM      4  H2  UNL     1      19.039  33.175  17.760  1.00  0.00     0.168 HD
HETATM    5  C8  UNL     1      18.055  34.684  18.401  1.00  0.00     0.006 C 
ENDROOT
BRANCH   1   6
HETATM    6  C6  UNL     1      17.978  32.236  15.676  1.00  0.00     0.108 A 
HETATM    7  N1  UNL     1      17.500  31.102  15.163  1.00  0.00    -0.348 N 
HETATM    8  C5  UNL     1      18.350  30.594  14.201  1.00  0.00     0.086 A 
ATOM      9  H1  UNL     1      16.622  30.668  15.443  1.00  0.00     0.166 HD
HETATM   10  C21 UNL     1      19.417  31.447  14.097  1.00  0.00    -0.016 A 
HETATM   11  C19 UNL     1      19.165  32.471  15.036  1.00  0.00    -0.021 A 
HETATM   12  C20 UNL     1      20.060  33.607  15.342  1.00  0.00     0.051 C 
BRANCH   8  13
HETATM   13  C4  UNL     1      18.031  29.339  13.567  1.00  0.00     0.176 C 
HETATM   14  O1  UNL     1      18.225  28.262  14.267  1.00  0.00    -0.291 OA
BRANCH  13  15
HETATM   15  C3  UNL     1      17.519  29.154  12.222  1.00  0.00     0.085 C 
BRANCH  15  16
HETATM   16  C2  UNL     1      18.369  28.124  11.442  1.00  0.00     0.003 C 
HETATM   17  C1  UNL     1      17.565  27.470  10.369  1.00  0.00     0.005 C 
ENDBRANCH  15  16
ENDBRANCH  13  15
ENDBRANCH   8  13
BRANCH  10  18
HETATM   18  C22 UNL     1      20.606  31.402  13.267  1.00  0.00     0.074 C 
BRANCH  18  19
HETATM   19  C23 UNL     1      21.769  30.623  13.678  1.00  0.00     0.048 C 
BRANCH  19  20
HETATM   20  C24 UNL     1      21.809  29.179  13.566  1.00  0.00     0.251 C 
HETATM   21  N4  UNL     1      22.208  28.627  12.281  1.00  0.00    -0.058 NA
HETATM   22  O6  UNL     1      21.541  28.382  14.455  1.00  0.00    -0.272 OA
ENDBRANCH  19  20
ENDBRANCH  18  19
ENDBRANCH  10  18
ENDBRANCH   1   6
BRANCH   5  23
HETATM   23  C9  UNL     1      19.239  34.974  19.264  1.00  0.00     0.164 C 
BRANCH  23  24
HETATM   24  C10 UNL     1      20.380  35.408  18.423  1.00  0.00     0.264 C 
HETATM   25  O3  UNL     1      20.281  36.177  17.427  1.00  0.00    -0.265 OA
BRANCH  24  26
HETATM   26  O4  UNL     1      21.681  34.978  18.691  1.00  0.00    -0.322 OA
BRANCH  26  27
HETATM   27  C11 UNL     1      22.730  35.165  17.780  1.00  0.00     0.174 C 
HETATM   28  C12 UNL     1      23.470  33.937  17.404  1.00  0.00     0.034 C 
ENDBRANCH  26  27
ENDBRANCH  24  26
ENDBRANCH  23  24
ENDBRANCH   5  23
BRANCH   5  29
HETATM   29  C13 UNL     1      16.838  35.498  18.367  1.00  0.00     0.071 A 
HETATM   30  C14 UNL     1      16.729  36.552  17.401  1.00  0.00     0.109 A 
HETATM   31  N3  UNL     1      17.733  37.355  16.792  1.00  0.00    -0.355 N 
HETATM   32  C18 UNL     1      16.880  36.850  18.910  1.00  0.00     0.082 A 
HETATM   33  C15 UNL     1      17.716  38.800  16.908  1.00  0.00     0.218 C 
ATOM     34  H3  UNL     1      18.480  36.904  16.264  1.00  0.00     0.162 HD
HETATM   35  O5  UNL     1      18.521  39.411  16.159  1.00  0.00    -0.274 OA
HETATM   36  C16 UNL     1      16.905  39.702  17.764  1.00  0.00     0.113 C 
HETATM   37  C17 UNL     1      15.489  39.186  17.991  1.00  0.00     0.083 C 
HETATM   38  S1  UNL     1      15.477  37.891  19.303  1.00  0.00    -0.161 SA
ENDBRANCH   5  29
TORSDOF 12
ENDMDL
