MODEL 1
REMARK VINA RESULT: -6.508403380      0.000      0.000
REMARK  10 active torsions:
REMARK  status: ('A' for Active; 'I' for Inactive)
REMARK    1  A    between atoms: N1_1  and  C1_5 
REMARK    2  A    between atoms: C2_6  and  O1_7 
REMARK    3  A    between atoms: C3_9  and  O2_10 
REMARK    4  A    between atoms: C4_12  and  O3_13 
REMARK    5  A    between atoms: C5_15  and  O4_16 
REMARK    6  A    between atoms: O4_16  and  C6_17 
REMARK    7  A    between atoms: C6_17  and  C7_18 
REMARK    8  A    between atoms: C10_21  and  O5_22 
REMARK    9  A    between atoms: O5_22  and  C11_23 
REMARK   10  A    between atoms: C11_23  and  C12_24 
ROOT
HETATM    1  C1  UNL     1      -1.266  -5.385  -3.354  1.00  0.00     0.245 C 
HETATM    2  C2  UNL     1      -1.388  -3.857  -3.244  1.00  0.00     0.182 C 
HETATM    3  C3  UNL     1      -2.802  -3.595  -3.699  1.00  0.00     0.180 C 
HETATM    4  C4  UNL     1      -2.994  -3.973  -5.112  1.00  0.00     0.180 C 
HETATM    5  C5  UNL     1      -2.360  -5.223  -5.589  1.00  0.00     0.183 C 
HETATM    6  C10 UNL     1      -1.121  -5.691  -4.810  1.00  0.00     0.186 C 
ENDROOT
BRANCH   5   7
HETATM    7  O4  UNL     1      -2.017  -5.025  -6.911  1.00  0.00    -0.380 OA
BRANCH   7   8
HETATM    8  C6  UNL     1      -2.522  -5.908  -7.818  1.00  0.00     0.173 C 
BRANCH   8   9
HETATM    9  C7  UNL     1      -3.946  -5.770  -8.198  1.00  0.00     0.009 A 
HETATM   10  C8  UNL     1      -4.636  -6.640  -9.147  1.00  0.00     0.007 A 
HETATM   11  C9  UNL     1      -4.864  -6.897  -7.691  1.00  0.00     0.007 A 
ENDBRANCH   8   9
ENDBRANCH   7   8
ENDBRANCH   5   7
BRANCH   4  12
HETATM   12  O3  UNL     1      -2.626  -2.867  -5.896  1.00  0.00    -0.390 OA
ATOM     13  H3  UNL     1      -1.965  -3.162  -6.511  1.00  0.00     0.210 HD
ENDBRANCH   4  12
BRANCH   6  14
HETATM   14  O5  UNL     1      -0.974  -7.032  -4.975  1.00  0.00    -0.381 OA
BRANCH  14  15
HETATM   15  C11 UNL     1      -1.944  -7.906  -4.729  1.00  0.00     0.172 C 
BRANCH  15  16
HETATM   16  C12 UNL     1      -1.817  -9.123  -3.918  1.00  0.00     0.009 A 
HETATM   17  C13 UNL     1      -2.939 -10.028  -3.535  1.00  0.00     0.007 A 
HETATM   18  C14 UNL     1      -2.076 -10.453  -4.637  1.00  0.00     0.007 A 
ENDBRANCH  15  16
ENDBRANCH  14  15
ENDBRANCH   6  14
BRANCH   3  19
HETATM   19  O2  UNL     1      -3.638  -4.362  -2.858  1.00  0.00    -0.390 OA
ATOM     20  H2  UNL     1      -3.594  -5.255  -3.180  1.00  0.00     0.210 HD
ENDBRANCH   3  19
BRANCH   1  21
HETATM   21  N1  UNL     1      -0.174  -5.808  -2.568  1.00  0.00    -0.070 N 
ATOM     22  H13 UNL     1       0.082  -5.124  -1.856  1.00  0.00     0.274 HD
ATOM     23  H12 UNL     1      -0.417  -6.577  -1.944  1.00  0.00     0.274 HD
ATOM     24  H11 UNL     1       0.603  -6.038  -3.187  1.00  0.00     0.274 HD
ENDBRANCH   1  21
BRANCH   2  25
HETATM   25  O1  UNL     1      -1.180  -3.528  -1.926  1.00  0.00    -0.391 OA
ATOM     26  H1  UNL     1      -1.319  -2.592  -1.847  1.00  0.00     0.210 HD
ENDBRANCH   2  25
TORSDOF 10
ENDMDL
MODEL 2
REMARK VINA RESULT: -6.260000539      7.621      9.917
REMARK  10 active torsions:
REMARK  status: ('A' for Active; 'I' for Inactive)
REMARK    1  A    between atoms: N1_1  and  C1_5 
REMARK    2  A    between atoms: C2_6  and  O1_7 
REMARK    3  A    between atoms: C3_9  and  O2_10 
REMARK    4  A    between atoms: C4_12  and  O3_13 
REMARK    5  A    between atoms: C5_15  and  O4_16 
REMARK    6  A    between atoms: O4_16  and  C6_17 
REMARK    7  A    between atoms: C6_17  and  C7_18 
REMARK    8  A    between atoms: C10_21  and  O5_22 
REMARK    9  A    between atoms: O5_22  and  C11_23 
REMARK   10  A    between atoms: C11_23  and  C12_24 
ROOT
HETATM    1  C1  UNL     1     -11.598  -8.992  -9.285  1.00  0.00     0.245 C 
HETATM    2  C2  UNL     1     -11.654  -8.454 -10.724  1.00  0.00     0.182 C 
HETATM    3  C3  UNL     1     -10.474  -9.124 -11.384  1.00  0.00     0.180 C 
HETATM    4  C4  UNL     1      -9.200  -8.693 -10.778  1.00  0.00     0.180 C 
HETATM    5  C5  UNL     1      -9.146  -8.543  -9.306  1.00  0.00     0.183 C 
HETATM    6  C10 UNL     1     -10.484  -8.262  -8.607  1.00  0.00     0.186 C 
ENDROOT
BRANCH   5   7
HETATM    7  O4  UNL     1      -8.267  -7.514  -9.035  1.00  0.00    -0.380 OA
BRANCH   7   8
HETATM    8  C6  UNL     1      -7.080  -7.854  -8.459  1.00  0.00     0.173 C 
BRANCH   8   9
HETATM    9  C7  UNL     1      -6.136  -6.763  -8.124  1.00  0.00     0.009 A 
HETATM   10  C8  UNL     1      -5.239  -6.772  -6.971  1.00  0.00     0.007 A 
HETATM   11  C9  UNL     1      -4.648  -7.118  -8.301  1.00  0.00     0.007 A 
ENDBRANCH   8   9
ENDBRANCH   7   8
ENDBRANCH   5   7
BRANCH   4  12
HETATM   12  O3  UNL     1      -8.797  -7.520 -11.439  1.00  0.00    -0.390 OA
ATOM     13  H3  UNL     1      -8.699  -7.734 -12.359  1.00  0.00     0.210 HD
ENDBRANCH   4  12
BRANCH   6  14
HETATM   14  O5  UNL     1     -10.402  -8.670  -7.312  1.00  0.00    -0.381 OA
BRANCH  14  15
HETATM   15  C11 UNL     1     -10.452  -9.947  -6.948  1.00  0.00     0.172 C 
BRANCH  15  16
HETATM   16  C12 UNL     1     -11.018 -10.460  -5.695  1.00  0.00     0.009 A 
HETATM   17  C13 UNL     1     -11.520 -11.847  -5.477  1.00  0.00     0.007 A 
HETATM   18  C14 UNL     1     -10.192 -11.521  -4.956  1.00  0.00     0.007 A 
ENDBRANCH  15  16
ENDBRANCH  14  15
ENDBRANCH   6  14
BRANCH   3  19
HETATM   19  O2  UNL     1     -10.663 -10.514 -11.217  1.00  0.00    -0.390 OA
ATOM     20  H2  UNL     1      -9.927 -10.823 -10.702  1.00  0.00     0.210 HD
ENDBRANCH   3  19
BRANCH   1  21
HETATM   21  N1  UNL     1     -12.859  -8.801  -8.683  1.00  0.00    -0.070 N 
ATOM     22  H13 UNL     1     -13.503  -8.285  -9.282  1.00  0.00     0.274 HD
ATOM     23  H12 UNL     1     -13.394  -9.668  -8.615  1.00  0.00     0.274 HD
ATOM     24  H11 UNL     1     -12.723  -8.354  -7.777  1.00  0.00     0.274 HD
ENDBRANCH   1  21
BRANCH   2  25
HETATM   25  O1  UNL     1     -12.859  -8.846 -11.256  1.00  0.00    -0.391 OA
ATOM     26  H1  UNL     1     -13.404  -9.131 -10.532  1.00  0.00     0.210 HD
ENDBRANCH   2  25
TORSDOF 10
ENDMDL
MODEL 3
REMARK VINA RESULT: -6.100373589      1.862      2.592
REMARK  10 active torsions:
REMARK  status: ('A' for Active; 'I' for Inactive)
REMARK    1  A    between atoms: N1_1  and  C1_5 
REMARK    2  A    between atoms: C2_6  and  O1_7 
REMARK    3  A    between atoms: C3_9  and  O2_10 
REMARK    4  A    between atoms: C4_12  and  O3_13 
REMARK    5  A    between atoms: C5_15  and  O4_16 
REMARK    6  A    between atoms: O4_16  and  C6_17 
REMARK    7  A    between atoms: C6_17  and  C7_18 
REMARK    8  A    between atoms: C10_21  and  O5_22 
REMARK    9  A    between atoms: O5_22  and  C11_23 
REMARK   10  A    between atoms: C11_23  and  C12_24 
ROOT
HETATM    1  C1  UNL     1      -1.954  -6.718  -4.912  1.00  0.00     0.245 C 
HETATM    2  C2  UNL     1      -1.443  -5.463  -5.637  1.00  0.00     0.182 C 
HETATM    3  C3  UNL     1      -2.681  -4.606  -5.748  1.00  0.00     0.180 C 
HETATM    4  C4  UNL     1      -3.706  -5.245  -6.595  1.00  0.00     0.180 C 
HETATM    5  C5  UNL     1      -3.914  -6.704  -6.453  1.00  0.00     0.183 C 
HETATM    6  C10 UNL     1      -2.717  -7.508  -5.926  1.00  0.00     0.186 C 
ENDROOT
BRANCH   5   7
HETATM    7  O4  UNL     1      -4.272  -7.185  -7.696  1.00  0.00    -0.380 OA
BRANCH   7   8
HETATM    8  C6  UNL     1      -5.603  -7.204  -7.990  1.00  0.00     0.173 C 
BRANCH   8   9
HETATM    9  C7  UNL     1      -6.018  -6.793  -9.350  1.00  0.00     0.009 A 
HETATM   10  C8  UNL     1      -6.616  -7.688 -10.338  1.00  0.00     0.007 A 
HETATM   11  C9  UNL     1      -7.539  -6.781  -9.587  1.00  0.00     0.007 A 
ENDBRANCH   8   9
ENDBRANCH   7   8
ENDBRANCH   5   7
BRANCH   4  12
HETATM   12  O3  UNL     1      -3.436  -4.881  -7.925  1.00  0.00    -0.390 OA
ATOM     13  H3  UNL     1      -4.160  -4.344  -8.224  1.00  0.00     0.210 HD
ENDBRANCH   4  12
BRANCH   6  14
HETATM   14  O5  UNL     1      -3.170  -8.655  -5.353  1.00  0.00    -0.381 OA
BRANCH  14  15
HETATM   15  C11 UNL     1      -2.409  -9.441  -4.599  1.00  0.00     0.172 C 
BRANCH  15  16
HETATM   16  C12 UNL     1      -2.349 -10.905  -4.674  1.00  0.00     0.009 A 
HETATM   17  C13 UNL     1      -1.160 -11.701  -5.097  1.00  0.00     0.007 A 
HETATM   18  C14 UNL     1      -1.431 -11.604  -3.663  1.00  0.00     0.007 A 
ENDBRANCH  15  16
ENDBRANCH  14  15
ENDBRANCH   6  14
BRANCH   3  19
HETATM   19  O2  UNL     1      -3.159  -4.429  -4.431  1.00  0.00    -0.390 OA
ATOM     20  H2  UNL     1      -2.539  -3.855  -3.997  1.00  0.00     0.210 HD
ENDBRANCH   3  19
BRANCH   1  21
HETATM   21  N1  UNL     1      -0.851  -7.402  -4.362  1.00  0.00    -0.070 N 
ATOM     22  H13 UNL     1      -1.097  -8.332  -4.025  1.00  0.00     0.274 HD
ATOM     23  H12 UNL     1      -0.173  -7.684  -5.072  1.00  0.00     0.274 HD
ATOM     24  H11 UNL     1      -0.435  -6.819  -3.636  1.00  0.00     0.274 HD
ENDBRANCH   1  21
BRANCH   2  25
HETATM   25  O1  UNL     1      -0.474  -4.902  -4.842  1.00  0.00    -0.391 OA
ATOM     26  H1  UNL     1       0.015  -5.617  -4.451  1.00  0.00     0.210 HD
ENDBRANCH   2  25
TORSDOF 10
ENDMDL
MODEL 4
REMARK VINA RESULT: -6.044807747      2.005      5.123
REMARK  10 active torsions:
REMARK  status: ('A' for Active; 'I' for Inactive)
REMARK    1  A    between atoms: N1_1  and  C1_5 
REMARK    2  A    between atoms: C2_6  and  O1_7 
REMARK    3  A    between atoms: C3_9  and  O2_10 
REMARK    4  A    between atoms: C4_12  and  O3_13 
REMARK    5  A    between atoms: C5_15  and  O4_16 
REMARK    6  A    between atoms: O4_16  and  C6_17 
REMARK    7  A    between atoms: C6_17  and  C7_18 
REMARK    8  A    between atoms: C10_21  and  O5_22 
REMARK    9  A    between atoms: O5_22  and  C11_23 
REMARK   10  A    between atoms: C11_23  and  C12_24 
ROOT
HETATM    1  C1  UNL     1      -2.555  -5.219  -6.261  1.00  0.00     0.245 C 
HETATM    2  C2  UNL     1      -2.353  -4.698  -4.828  1.00  0.00     0.182 C 
HETATM    3  C3  UNL     1      -1.140  -5.461  -4.357  1.00  0.00     0.180 C 
HETATM    4  C4  UNL     1      -1.406  -6.911  -4.289  1.00  0.00     0.180 C 
HETATM    5  C5  UNL     1      -2.198  -7.524  -5.379  1.00  0.00     0.183 C 
HETATM    6  C10 UNL     1      -3.151  -6.583  -6.131  1.00  0.00     0.186 C 
ENDROOT
BRANCH   5   7
HETATM    7  O4  UNL     1      -2.925  -8.556  -4.821  1.00  0.00    -0.380 OA
BRANCH   7   8
HETATM    8  C6  UNL     1      -2.305  -9.766  -4.730  1.00  0.00     0.173 C 
BRANCH   8   9
HETATM    9  C7  UNL     1      -2.669 -10.647  -3.597  1.00  0.00     0.009 A 
HETATM   10  C8  UNL     1      -2.553 -12.102  -3.610  1.00  0.00     0.007 A 
HETATM   11  C9  UNL     1      -1.480 -11.335  -2.904  1.00  0.00     0.007 A 
ENDBRANCH   8   9
ENDBRANCH   7   8
ENDBRANCH   5   7
BRANCH   4  12
HETATM   12  O3  UNL     1      -1.960  -7.176  -3.025  1.00  0.00    -0.390 OA
ATOM     13  H3  UNL     1      -2.595  -7.873  -3.135  1.00  0.00     0.210 HD
ENDBRANCH   4  12
BRANCH   6  14
HETATM   14  O5  UNL     1      -3.387  -7.090  -7.371  1.00  0.00    -0.381 OA
BRANCH  14  15
HETATM   15  C11 UNL     1      -4.604  -7.382  -7.817  1.00  0.00     0.172 C 
BRANCH  15  16
HETATM   16  C12 UNL     1      -5.377  -6.590  -8.782  1.00  0.00     0.009 A 
HETATM   17  C13 UNL     1      -6.074  -7.132  -9.983  1.00  0.00     0.007 A 
HETATM   18  C14 UNL     1      -6.891  -6.834  -8.808  1.00  0.00     0.007 A 
ENDBRANCH  15  16
ENDBRANCH  14  15
ENDBRANCH   6  14
BRANCH   3  19
HETATM   19  O2  UNL     1      -0.111  -5.184  -5.285  1.00  0.00    -0.390 OA
ATOM     20  H2  UNL     1       0.420  -4.498  -4.898  1.00  0.00     0.210 HD
ENDBRANCH   3  19
BRANCH   1  21
HETATM   21  N1  UNL     1      -3.364  -4.303  -6.963  1.00  0.00    -0.070 N 
ATOM     22  H13 UNL     1      -4.330  -4.622  -7.049  1.00  0.00     0.274 HD
ATOM     23  H12 UNL     1      -3.544  -3.452  -6.430  1.00  0.00     0.274 HD
ATOM     24  H11 UNL     1      -2.933  -4.113  -7.867  1.00  0.00     0.274 HD
ENDBRANCH   1  21
BRANCH   2  25
HETATM   25  O1  UNL     1      -2.133  -3.345  -4.917  1.00  0.00    -0.391 OA
ATOM     26  H1  UNL     1      -1.628  -3.094  -4.153  1.00  0.00     0.210 HD
ENDBRANCH   2  25
TORSDOF 10
ENDMDL
MODEL 5
REMARK VINA RESULT: -6.014183108      1.404      1.776
REMARK  10 active torsions:
REMARK  status: ('A' for Active; 'I' for Inactive)
REMARK    1  A    between atoms: N1_1  and  C1_5 
REMARK    2  A    between atoms: C2_6  and  O1_7 
REMARK    3  A    between atoms: C3_9  and  O2_10 
REMARK    4  A    between atoms: C4_12  and  O3_13 
REMARK    5  A    between atoms: C5_15  and  O4_16 
REMARK    6  A    between atoms: O4_16  and  C6_17 
REMARK    7  A    between atoms: C6_17  and  C7_18 
REMARK    8  A    between atoms: C10_21  and  O5_22 
REMARK    9  A    between atoms: O5_22  and  C11_23 
REMARK   10  A    between atoms: C11_23  and  C12_24 
ROOT
HETATM    1  C1  UNL     1      -1.701  -6.772  -3.793  1.00  0.00     0.245 C 
HETATM    2  C2  UNL     1      -0.921  -5.483  -4.098  1.00  0.00     0.182 C 
HETATM    3  C3  UNL     1      -2.002  -4.529  -4.544  1.00  0.00     0.180 C 
HETATM    4  C4  UNL     1      -2.645  -4.987  -5.790  1.00  0.00     0.180 C 
HETATM    5  C5  UNL     1      -2.929  -6.432  -5.936  1.00  0.00     0.183 C 
HETATM    6  C10 UNL     1      -2.042  -7.380  -5.115  1.00  0.00     0.186 C 
ENDROOT
BRANCH   5   7
HETATM    7  O4  UNL     1      -2.802  -6.737  -7.276  1.00  0.00    -0.380 OA
BRANCH   7   8
HETATM    8  C6  UNL     1      -3.879  -7.311  -7.882  1.00  0.00     0.173 C 
BRANCH   8   9
HETATM    9  C7  UNL     1      -4.941  -6.418  -8.397  1.00  0.00     0.009 A 
HETATM   10  C8  UNL     1      -5.798  -6.725  -9.539  1.00  0.00     0.007 A 
HETATM   11  C9  UNL     1      -6.377  -6.926  -8.174  1.00  0.00     0.007 A 
ENDBRANCH   8   9
ENDBRANCH   7   8
ENDBRANCH   5   7
BRANCH   4  12
HETATM   12  O3  UNL     1      -1.883  -4.491  -6.861  1.00  0.00    -0.390 OA
ATOM     13  H3  UNL     1      -2.377  -4.648  -7.657  1.00  0.00     0.210 HD
ENDBRANCH   4  12
BRANCH   6  14
HETATM   14  O5  UNL     1      -2.707  -8.548  -4.914  1.00  0.00    -0.381 OA
BRANCH  14  15
HETATM   15  C11 UNL     1      -2.116  -9.737  -4.954  1.00  0.00     0.172 C 
BRANCH  15  16
HETATM   16  C12 UNL     1      -2.447 -10.888  -4.105  1.00  0.00     0.009 A 
HETATM   17  C13 UNL     1      -2.855 -12.235  -4.595  1.00  0.00     0.007 A 
HETATM   18  C14 UNL     1      -1.472 -12.072  -4.149  1.00  0.00     0.007 A 
ENDBRANCH  15  16
ENDBRANCH  14  15
ENDBRANCH   6  14
BRANCH   3  19
HETATM   19  O2  UNL     1      -2.939  -4.471  -3.489  1.00  0.00    -0.390 OA
ATOM     20  H2  UNL     1      -3.529  -3.755  -3.695  1.00  0.00     0.210 HD
ENDBRANCH   3  19
BRANCH   1  21
HETATM   21  N1  UNL     1      -0.905  -7.596  -2.971  1.00  0.00    -0.070 N 
ATOM     22  H13 UNL     1      -0.680  -8.487  -3.413  1.00  0.00     0.274 HD
ATOM     23  H12 UNL     1       0.048  -7.244  -2.870  1.00  0.00     0.274 HD
ATOM     24  H11 UNL     1      -1.375  -7.712  -2.073  1.00  0.00     0.274 HD
ENDBRANCH   1  21
BRANCH   2  25
HETATM   25  O1  UNL     1      -0.311  -5.093  -2.930  1.00  0.00    -0.391 OA
ATOM     26  H1  UNL     1      -0.312  -4.143  -2.919  1.00  0.00     0.210 HD
ENDBRANCH   2  25
TORSDOF 10
ENDMDL
