MODEL 1
REMARK VINA RESULT: -6.609366119      0.000      0.000
REMARK  7 active torsions:
REMARK  status: ('A' for Active; 'I' for Inactive)
REMARK    1  A    between atoms: C3_3  and  O1_4 
REMARK    2  A    between atoms: C4_6  and  O2_7 
REMARK    3  A    between atoms: C5_9  and  C6_10 
REMARK    4  A    between atoms: C6_10  and  O3_11 
REMARK    5  A    between atoms: N1_14  and  C8_15 
REMARK    6  A    between atoms: C8_15  and  C9_16 
REMARK    7  A    between atoms: C9_16  and  C10_17 
ROOT
HETATM    1  C1  UNL     1      -2.789  -5.325  -8.527  1.00  0.00     0.045 C 
HETATM    2  C2  UNL     1      -3.390  -5.049  -7.200  1.00  0.00     0.250 C 
HETATM    3  C3  UNL     1      -2.389  -4.793  -6.130  1.00  0.00     0.180 C 
HETATM    4  C4  UNL     1      -1.531  -6.032  -5.965  1.00  0.00     0.156 C 
HETATM    5  C5  UNL     1      -2.421  -7.255  -5.990  1.00  0.00     0.069 C 
HETATM    6  C7  UNL     1      -3.862  -6.902  -5.760  1.00  0.00     0.282 C 
HETATM    7  N1  UNL     1      -4.390  -5.983  -6.736  1.00  0.00     0.096 N 
ENDROOT
BRANCH   7   8
HETATM    8  C8  UNL     1      -5.049  -6.677  -7.814  1.00  0.00     0.273 C 
BRANCH   8   9
HETATM    9  C9  UNL     1      -6.518  -6.831  -7.636  1.00  0.00     0.034 C 
BRANCH   9  10
HETATM   10  C10 UNL     1      -7.259  -7.024  -8.936  1.00  0.00    -0.013 A 
HETATM   11  C11 UNL     1      -6.523  -7.347 -10.188  1.00  0.00     0.005 A 
HETATM   12  C12 UNL     1      -7.551  -8.306  -9.554  1.00  0.00     0.005 A 
ENDBRANCH   9  10
ENDBRANCH   8   9
ENDBRANCH   7   8
BRANCH   3  13
HETATM   13  O1  UNL     1      -1.599  -3.670  -6.328  1.00  0.00    -0.391 OA
ATOM     14  H1  UNL     1      -1.127  -3.374  -5.558  1.00  0.00     0.210 HD
ENDBRANCH   3  13
BRANCH   5  15
HETATM   15  C6  UNL     1      -1.998  -8.175  -4.867  1.00  0.00     0.173 C 
BRANCH  15  16
HETATM   16  O3  UNL     1      -3.113  -8.599  -4.129  1.00  0.00    -0.400 OA
ATOM     17  H3  UNL     1      -2.958  -9.456  -3.751  1.00  0.00     0.209 HD
ENDBRANCH  15  16
ENDBRANCH   5  15
BRANCH   4  18
HETATM   18  O2  UNL     1      -0.851  -5.925  -4.750  1.00  0.00    -0.392 OA
ATOM     19  H2  UNL     1      -0.002  -6.337  -4.853  1.00  0.00     0.210 HD
ENDBRANCH   4  18
TORSDOF 7
ENDMDL
MODEL 2
REMARK VINA RESULT: -6.525319229      1.481      3.208
REMARK  7 active torsions:
REMARK  status: ('A' for Active; 'I' for Inactive)
REMARK    1  A    between atoms: C3_3  and  O1_4 
REMARK    2  A    between atoms: C4_6  and  O2_7 
REMARK    3  A    between atoms: C5_9  and  C6_10 
REMARK    4  A    between atoms: C6_10  and  O3_11 
REMARK    5  A    between atoms: N1_14  and  C8_15 
REMARK    6  A    between atoms: C8_15  and  C9_16 
REMARK    7  A    between atoms: C9_16  and  C10_17 
ROOT
HETATM    1  C1  UNL     1      -3.126  -7.336  -5.316  1.00  0.00     0.045 C 
HETATM    2  C2  UNL     1      -2.150  -6.660  -6.204  1.00  0.00     0.250 C 
HETATM    3  C3  UNL     1      -0.930  -6.182  -5.500  1.00  0.00     0.180 C 
HETATM    4  C4  UNL     1      -1.342  -5.162  -4.458  1.00  0.00     0.156 C 
HETATM    5  C5  UNL     1      -2.368  -4.228  -5.060  1.00  0.00     0.069 C 
HETATM    6  C7  UNL     1      -2.381  -4.304  -6.560  1.00  0.00     0.282 C 
HETATM    7  N1  UNL     1      -2.670  -5.622  -7.065  1.00  0.00     0.096 N 
ENDROOT
BRANCH   7   8
HETATM    8  C8  UNL     1      -4.073  -5.784  -7.350  1.00  0.00     0.273 C 
BRANCH   8   9
HETATM    9  C9  UNL     1      -4.382  -6.045  -8.782  1.00  0.00     0.034 C 
BRANCH   9  10
HETATM   10  C10 UNL     1      -5.497  -7.043  -8.978  1.00  0.00    -0.013 A 
HETATM   11  C11 UNL     1      -6.767  -6.923  -8.212  1.00  0.00     0.005 A 
HETATM   12  C12 UNL     1      -6.706  -6.810  -9.749  1.00  0.00     0.005 A 
ENDBRANCH   9  10
ENDBRANCH   8   9
ENDBRANCH   7   8
BRANCH   3  13
HETATM   13  O1  UNL     1      -0.156  -7.182  -4.931  1.00  0.00    -0.391 OA
ATOM     14  H1  UNL     1       0.566  -6.873  -4.396  1.00  0.00     0.210 HD
ENDBRANCH   3  13
BRANCH   5  15
HETATM   15  C6  UNL     1      -2.002  -2.810  -4.684  1.00  0.00     0.173 C 
BRANCH  15  16
HETATM   16  O3  UNL     1      -2.006  -1.982  -5.816  1.00  0.00    -0.400 OA
ATOM     17  H3  UNL     1      -2.664  -1.302  -5.731  1.00  0.00     0.209 HD
ENDBRANCH  15  16
ENDBRANCH   5  15
BRANCH   4  18
HETATM   18  O2  UNL     1      -0.198  -4.467  -4.060  1.00  0.00    -0.392 OA
ATOM     19  H2  UNL     1      -0.476  -3.675  -3.617  1.00  0.00     0.210 HD
ENDBRANCH   4  18
TORSDOF 7
ENDMDL
MODEL 3
REMARK VINA RESULT: -6.505118829      0.889      1.170
REMARK  7 active torsions:
REMARK  status: ('A' for Active; 'I' for Inactive)
REMARK    1  A    between atoms: C3_3  and  O1_4 
REMARK    2  A    between atoms: C4_6  and  O2_7 
REMARK    3  A    between atoms: C5_9  and  C6_10 
REMARK    4  A    between atoms: C6_10  and  O3_11 
REMARK    5  A    between atoms: N1_14  and  C8_15 
REMARK    6  A    between atoms: C8_15  and  C9_16 
REMARK    7  A    between atoms: C9_16  and  C10_17 
ROOT
HETATM    1  C1  UNL     1      -1.608  -5.164  -8.128  1.00  0.00     0.045 C 
HETATM    2  C2  UNL     1      -2.724  -4.966  -7.173  1.00  0.00     0.250 C 
HETATM    3  C3  UNL     1      -2.284  -4.563  -5.810  1.00  0.00     0.180 C 
HETATM    4  C4  UNL     1      -1.416  -5.664  -5.236  1.00  0.00     0.156 C 
HETATM    5  C5  UNL     1      -2.056  -7.002  -5.536  1.00  0.00     0.069 C 
HETATM    6  C7  UNL     1      -3.499  -6.857  -5.925  1.00  0.00     0.282 C 
HETATM    7  N1  UNL     1      -3.699  -6.031  -7.088  1.00  0.00     0.096 N 
ENDROOT
BRANCH   7   8
HETATM    8  C8  UNL     1      -3.770  -6.819  -8.292  1.00  0.00     0.273 C 
BRANCH   8   9
HETATM    9  C9  UNL     1      -4.833  -6.393  -9.242  1.00  0.00     0.034 C 
BRANCH   9  10
HETATM   10  C10 UNL     1      -6.067  -7.258  -9.184  1.00  0.00    -0.013 A 
HETATM   11  C11 UNL     1      -7.115  -7.019  -8.155  1.00  0.00     0.005 A 
HETATM   12  C12 UNL     1      -7.384  -6.877  -9.668  1.00  0.00     0.005 A 
ENDBRANCH   9  10
ENDBRANCH   8   9
ENDBRANCH   7   8
BRANCH   3  13
HETATM   13  O1  UNL     1      -1.632  -3.340  -5.748  1.00  0.00    -0.391 OA
ATOM     14  H1  UNL     1      -0.688  -3.386  -5.844  1.00  0.00     0.210 HD
ENDBRANCH   3  13
BRANCH   5  15
HETATM   15  C6  UNL     1      -2.010  -7.844  -4.281  1.00  0.00     0.173 C 
BRANCH  15  16
HETATM   16  O3  UNL     1      -3.148  -8.660  -4.191  1.00  0.00    -0.400 OA
ATOM     17  H3  UNL     1      -2.939  -9.554  -4.433  1.00  0.00     0.209 HD
ENDBRANCH  15  16
ENDBRANCH   5  15
BRANCH   4  18
HETATM   18  O2  UNL     1      -1.306  -5.453  -3.861  1.00  0.00    -0.392 OA
ATOM     19  H2  UNL     1      -0.404  -5.611  -3.611  1.00  0.00     0.210 HD
ENDBRANCH   4  18
TORSDOF 7
ENDMDL
MODEL 4
REMARK VINA RESULT: -6.363434943      1.316      1.471
REMARK  7 active torsions:
REMARK  status: ('A' for Active; 'I' for Inactive)
REMARK    1  A    between atoms: C3_3  and  O1_4 
REMARK    2  A    between atoms: C4_6  and  O2_7 
REMARK    3  A    between atoms: C5_9  and  C6_10 
REMARK    4  A    between atoms: C6_10  and  O3_11 
REMARK    5  A    between atoms: N1_14  and  C8_15 
REMARK    6  A    between atoms: C8_15  and  C9_16 
REMARK    7  A    between atoms: C9_16  and  C10_17 
ROOT
HETATM    1  C1  UNL     1      -3.123  -6.939  -8.867  1.00  0.00     0.045 C 
HETATM    2  C2  UNL     1      -3.348  -5.703  -8.080  1.00  0.00     0.250 C 
HETATM    3  C3  UNL     1      -2.100  -5.095  -7.545  1.00  0.00     0.180 C 
HETATM    4  C4  UNL     1      -1.442  -6.088  -6.608  1.00  0.00     0.156 C 
HETATM    5  C5  UNL     1      -2.502  -6.710  -5.726  1.00  0.00     0.069 C 
HETATM    6  C7  UNL     1      -3.774  -5.913  -5.733  1.00  0.00     0.282 C 
HETATM    7  N1  UNL     1      -4.355  -5.770  -7.044  1.00  0.00     0.096 N 
ENDROOT
BRANCH   7   8
HETATM    8  C8  UNL     1      -5.348  -6.783  -7.296  1.00  0.00     0.273 C 
BRANCH   8   9
HETATM    9  C9  UNL     1      -6.308  -6.444  -8.381  1.00  0.00     0.034 C 
BRANCH   9  10
HETATM   10  C10 UNL     1      -6.980  -7.654  -8.981  1.00  0.00    -0.013 A 
HETATM   11  C11 UNL     1      -8.387  -7.582  -9.461  1.00  0.00     0.005 A 
HETATM   12  C12 UNL     1      -7.200  -7.874 -10.401  1.00  0.00     0.005 A 
ENDBRANCH   9  10
ENDBRANCH   8   9
ENDBRANCH   7   8
BRANCH   3  13
HETATM   13  O1  UNL     1      -1.204  -4.662  -8.511  1.00  0.00    -0.391 OA
ATOM     14  H1  UNL     1      -1.578  -4.098  -9.178  1.00  0.00     0.210 HD
ENDBRANCH   3  13
BRANCH   5  15
HETATM   15  C6  UNL     1      -1.989  -6.727  -4.304  1.00  0.00     0.173 C 
BRANCH  15  16
HETATM   16  O3  UNL     1      -2.411  -5.582  -3.613  1.00  0.00    -0.400 OA
ATOM     17  H3  UNL     1      -1.672  -5.023  -3.408  1.00  0.00     0.209 HD
ENDBRANCH  15  16
ENDBRANCH   5  15
BRANCH   4  18
HETATM   18  O2  UNL     1      -0.493  -5.400  -5.850  1.00  0.00    -0.392 OA
ATOM     19  H2  UNL     1      -0.322  -5.907  -5.065  1.00  0.00     0.210 HD
ENDBRANCH   4  18
TORSDOF 7
ENDMDL
MODEL 5
REMARK VINA RESULT: -6.328379466      1.456      1.944
REMARK  7 active torsions:
REMARK  status: ('A' for Active; 'I' for Inactive)
REMARK    1  A    between atoms: C3_3  and  O1_4 
REMARK    2  A    between atoms: C4_6  and  O2_7 
REMARK    3  A    between atoms: C5_9  and  C6_10 
REMARK    4  A    between atoms: C6_10  and  O3_11 
REMARK    5  A    between atoms: N1_14  and  C8_15 
REMARK    6  A    between atoms: C8_15  and  C9_16 
REMARK    7  A    between atoms: C9_16  and  C10_17 
ROOT
HETATM    1  C1  UNL     1      -1.690  -4.175  -6.588  1.00  0.00     0.045 C 
HETATM    2  C2  UNL     1      -2.972  -4.771  -6.144  1.00  0.00     0.250 C 
HETATM    3  C3  UNL     1      -3.142  -4.797  -4.666  1.00  0.00     0.180 C 
HETATM    4  C4  UNL     1      -2.041  -5.649  -4.068  1.00  0.00     0.156 C 
HETATM    5  C5  UNL     1      -1.876  -6.899  -4.902  1.00  0.00     0.069 C 
HETATM    6  C7  UNL     1      -3.062  -7.138  -5.792  1.00  0.00     0.282 C 
HETATM    7  N1  UNL     1      -3.318  -6.057  -6.709  1.00  0.00     0.096 N 
ENDROOT
BRANCH   7   8
HETATM    8  C8  UNL     1      -2.698  -6.289  -7.988  1.00  0.00     0.273 C 
BRANCH   8   9
HETATM    9  C9  UNL     1      -3.586  -6.935  -8.992  1.00  0.00     0.034 C 
BRANCH   9  10
HETATM   10  C10 UNL     1      -4.971  -6.340  -9.032  1.00  0.00    -0.013 A 
HETATM   11  C11 UNL     1      -6.010  -6.895  -9.941  1.00  0.00     0.005 A 
HETATM   12  C12 UNL     1      -6.150  -6.914  -8.405  1.00  0.00     0.005 A 
ENDBRANCH   9  10
ENDBRANCH   8   9
ENDBRANCH   7   8
BRANCH   3  13
HETATM   13  O1  UNL     1      -3.181  -3.548  -4.063  1.00  0.00    -0.391 OA
ATOM     14  H1  UNL     1      -2.659  -3.470  -3.273  1.00  0.00     0.210 HD
ENDBRANCH   3  13
BRANCH   5  15
HETATM   15  C6  UNL     1      -1.768  -8.084  -3.969  1.00  0.00     0.173 C 
BRANCH  15  16
HETATM   16  O3  UNL     1      -3.003  -8.740  -3.858  1.00  0.00    -0.400 OA
ATOM     17  H3  UNL     1      -2.986  -9.568  -4.324  1.00  0.00     0.209 HD
ENDBRANCH  15  16
ENDBRANCH   5  15
BRANCH   4  18
HETATM   18  O2  UNL     1      -2.403  -5.960  -2.755  1.00  0.00    -0.392 OA
ATOM     19  H2  UNL     1      -1.765  -5.562  -2.174  1.00  0.00     0.210 HD
ENDBRANCH   4  18
TORSDOF 7
ENDMDL
