MODEL 1
REMARK VINA RESULT: -7.323944903      0.000      0.000
REMARK  2 active torsions:
REMARK  status: ('A' for Active; 'I' for Inactive)
REMARK    1  A    between atoms: C2_2  and  C3_3 
REMARK    2  A    between atoms: C3_3  and  C4_4 
ROOT
HETATM    1  C4  UNL     1      36.378   0.726  33.535  1.00  0.00     0.020 C 
HETATM    2  C5  UNL     1      37.029   0.823  34.899  1.00  0.00    -0.006 C 
HETATM    3  C6  UNL     1      35.999   1.229  35.929  1.00  0.00     0.010 C 
HETATM    4  C7  UNL     1      34.874   0.217  35.908  1.00  0.00    -0.010 C 
HETATM    5  C8  UNL     1      35.462  -1.103  36.386  1.00  0.00     0.037 C 
HETATM    6  C9  UNL     1      36.509  -1.512  35.391  1.00  0.00     0.187 C 
HETATM    7  C10 UNL     1      37.624  -0.481  35.324  1.00  0.00     0.038 C 
HETATM    8  N1  UNL     1      35.988  -1.636  34.041  1.00  0.00    -0.066 N 
ATOM      9  H11 UNL     1      35.343  -2.422  33.959  1.00  0.00     0.278 HD
ATOM     10  H12 UNL     1      36.705  -1.954  33.390  1.00  0.00     0.278 HD
HETATM   11  C11 UNL     1      35.372  -0.389  33.595  1.00  0.00     0.191 C 
HETATM   12  C12 UNL     1      34.277   0.036  34.554  1.00  0.00     0.038 C 
ENDROOT
BRANCH   1  13
HETATM   13  C3  UNL     1      37.389   0.601  32.448  1.00  0.00     0.007 C 
BRANCH  13  14
HETATM   14  C2  UNL     1      36.740   0.649  31.096  1.00  0.00    -0.004 C 
HETATM   15  C1  UNL     1      35.892   1.889  30.915  1.00  0.00     0.005 C 
ENDBRANCH  13  14
ENDBRANCH   1  13
TORSDOF 2
ENDMDL
MODEL 2
REMARK VINA RESULT: -7.318178712      2.347      4.590
REMARK  2 active torsions:
REMARK  status: ('A' for Active; 'I' for Inactive)
REMARK    1  A    between atoms: C2_2  and  C3_3 
REMARK    2  A    between atoms: C3_3  and  C4_4 
ROOT
HETATM    1  C4  UNL     1      33.506  -0.676  36.393  1.00  0.00     0.020 C 
HETATM    2  C5  UNL     1      34.865  -0.793  37.053  1.00  0.00    -0.006 C 
HETATM    3  C6  UNL     1      35.891  -1.236  36.036  1.00  0.00     0.010 C 
HETATM    4  C7  UNL     1      35.899  -0.240  34.898  1.00  0.00    -0.010 C 
HETATM    5  C8  UNL     1      36.402   1.078  35.470  1.00  0.00     0.037 C 
HETATM    6  C9  UNL     1      35.410   1.523  36.505  1.00  0.00     0.187 C 
HETATM    7  C10 UNL     1      35.314   0.509  37.633  1.00  0.00     0.038 C 
HETATM    8  N1  UNL     1      34.066   1.669  35.974  1.00  0.00    -0.066 N 
ATOM      9  H11 UNL     1      34.005   2.448  35.318  1.00  0.00     0.278 HD
ATOM     10  H12 UNL     1      33.418   2.011  36.683  1.00  0.00     0.278 HD
HETATM   11  C11 UNL     1      33.597   0.423  35.372  1.00  0.00     0.191 C 
HETATM   12  C12 UNL     1      34.553  -0.038  34.289  1.00  0.00     0.038 C 
ENDROOT
BRANCH   1  13
HETATM   13  C3  UNL     1      32.417  -0.513  37.395  1.00  0.00     0.007 C 
BRANCH  13  14
HETATM   14  C2  UNL     1      31.068  -0.692  36.763  1.00  0.00    -0.004 C 
HETATM   15  C1  UNL     1      31.002  -1.935  35.902  1.00  0.00     0.005 C 
ENDBRANCH  13  14
ENDBRANCH   1  13
TORSDOF 2
ENDMDL
MODEL 3
REMARK VINA RESULT: -7.268584026      1.719      2.861
REMARK  2 active torsions:
REMARK  status: ('A' for Active; 'I' for Inactive)
REMARK    1  A    between atoms: C2_2  and  C3_3 
REMARK    2  A    between atoms: C3_3  and  C4_4 
ROOT
HETATM    1  C4  UNL     1      35.891   0.669  35.399  1.00  0.00     0.020 C 
HETATM    2  C5  UNL     1      35.520  -0.791  35.245  1.00  0.00    -0.006 C 
HETATM    3  C6  UNL     1      35.652  -1.495  36.576  1.00  0.00     0.010 C 
HETATM    4  C7  UNL     1      34.769  -0.789  37.582  1.00  0.00    -0.010 C 
HETATM    5  C8  UNL     1      33.331  -0.996  37.126  1.00  0.00     0.037 C 
HETATM    6  C9  UNL     1      33.185  -0.328  35.790  1.00  0.00     0.187 C 
HETATM    7  C10 UNL     1      34.114  -0.959  34.766  1.00  0.00     0.038 C 
HETATM    8  N1  UNL     1      33.518   1.085  35.826  1.00  0.00    -0.066 N 
ATOM      9  H11 UNL     1      32.838   1.617  36.370  1.00  0.00     0.278 HD
ATOM     10  H12 UNL     1      33.373   1.527  34.919  1.00  0.00     0.278 HD
HETATM   11  C11 UNL     1      34.878   1.296  36.315  1.00  0.00     0.191 C 
HETATM   12  C12 UNL     1      35.054   0.671  37.685  1.00  0.00     0.038 C 
ENDROOT
BRANCH   1  13
HETATM   13  C3  UNL     1      36.045   1.342  34.079  1.00  0.00     0.007 C 
BRANCH  13  14
HETATM   14  C2  UNL     1      37.424   1.136  33.523  1.00  0.00    -0.004 C 
HETATM   15  C1  UNL     1      37.397   0.498  32.151  1.00  0.00     0.005 C 
ENDBRANCH  13  14
ENDBRANCH   1  13
TORSDOF 2
ENDMDL
MODEL 4
REMARK VINA RESULT: -7.254093860      1.433      4.099
REMARK  2 active torsions:
REMARK  status: ('A' for Active; 'I' for Inactive)
REMARK    1  A    between atoms: C2_2  and  C3_3 
REMARK    2  A    between atoms: C3_3  and  C4_4 
ROOT
HETATM    1  C4  UNL     1      35.385  -0.736  35.638  1.00  0.00     0.020 C 
HETATM    2  C5  UNL     1      35.322   0.771  35.498  1.00  0.00    -0.006 C 
HETATM    3  C6  UNL     1      36.723   1.338  35.448  1.00  0.00     0.010 C 
HETATM    4  C7  UNL     1      37.460   0.693  34.295  1.00  0.00    -0.010 C 
HETATM    5  C8  UNL     1      36.766   1.147  33.019  1.00  0.00     0.037 C 
HETATM    6  C9  UNL     1      35.362   0.618  33.061  1.00  0.00     0.187 C 
HETATM    7  C10 UNL     1      34.606   1.183  34.253  1.00  0.00     0.038 C 
HETATM    8  N1  UNL     1      35.307  -0.828  33.194  1.00  0.00    -0.066 N 
ATOM      9  H11 UNL     1      35.652  -1.294  32.355  1.00  0.00     0.278 HD
ATOM     10  H12 UNL     1      34.346  -1.169  33.180  1.00  0.00     0.278 HD
HETATM   11  C11 UNL     1      36.019  -1.277  34.388  1.00  0.00     0.191 C 
HETATM   12  C12 UNL     1      37.458  -0.797  34.361  1.00  0.00     0.038 C 
ENDROOT
BRANCH   1  13
HETATM   13  C3  UNL     1      34.053  -1.316  35.968  1.00  0.00     0.007 C 
BRANCH  13  14
HETATM   14  C2  UNL     1      33.635  -0.954  37.363  1.00  0.00    -0.004 C 
HETATM   15  C1  UNL     1      32.194  -0.497  37.425  1.00  0.00     0.005 C 
ENDBRANCH  13  14
ENDBRANCH   1  13
TORSDOF 2
ENDMDL
MODEL 5
REMARK VINA RESULT: -7.079308582      1.594      2.919
REMARK  2 active torsions:
REMARK  status: ('A' for Active; 'I' for Inactive)
REMARK    1  A    between atoms: C2_2  and  C3_3 
REMARK    2  A    between atoms: C3_3  and  C4_4 
ROOT
HETATM    1  C4  UNL     1      36.259   0.016  36.131  1.00  0.00     0.020 C 
HETATM    2  C5  UNL     1      35.511  -1.299  36.208  1.00  0.00    -0.006 C 
HETATM    3  C6  UNL     1      34.638  -1.318  37.442  1.00  0.00     0.010 C 
HETATM    4  C7  UNL     1      33.698  -0.134  37.383  1.00  0.00    -0.010 C 
HETATM    5  C8  UNL     1      32.772  -0.366  36.197  1.00  0.00     0.037 C 
HETATM    6  C9  UNL     1      33.623  -0.379  34.961  1.00  0.00     0.187 C 
HETATM    7  C10 UNL     1      34.637  -1.510  35.014  1.00  0.00     0.038 C 
HETATM    8  N1  UNL     1      34.388   0.845  34.789  1.00  0.00    -0.066 N 
ATOM      9  H11 UNL     1      33.782   1.639  34.584  1.00  0.00     0.278 HD
ATOM     10  H12 UNL     1      34.927   0.831  33.924  1.00  0.00     0.278 HD
HETATM   11  C11 UNL     1      35.239   1.104  35.948  1.00  0.00     0.191 C 
HETATM   12  C12 UNL     1      34.408   1.167  37.215  1.00  0.00     0.038 C 
ENDROOT
BRANCH   1  13
HETATM   13  C3  UNL     1      37.332  -0.018  35.097  1.00  0.00     0.007 C 
BRANCH  13  14
HETATM   14  C2  UNL     1      37.564   1.344  34.513  1.00  0.00    -0.004 C 
HETATM   15  C1  UNL     1      37.522   1.331  33.000  1.00  0.00     0.005 C 
ENDBRANCH  13  14
ENDBRANCH   1  13
TORSDOF 2
ENDMDL
