MODEL 1
REMARK VINA RESULT: -6.378284995      0.000      0.000
REMARK  2 active torsions:
REMARK  status: ('A' for Active; 'I' for Inactive)
REMARK    1  A    between atoms: C4_4  and  C5_5 
REMARK    2  A    between atoms: C5_5  and  C6_6 
ROOT
HETATM    1  C5  UNL     1      33.051   0.185  34.577  1.00  0.00     0.012 C 
ENDROOT
BRANCH   1   2
HETATM    2  C4  UNL     1      34.488   0.252  34.130  1.00  0.00    -0.014 C 
HETATM    3  C3  UNL     1      34.957  -1.175  33.871  1.00  0.00     0.005 C 
HETATM    4  C2  UNL     1      36.111  -1.538  34.786  1.00  0.00     0.000 C 
HETATM    5  C1  UNL     1      37.261  -0.606  34.554  1.00  0.00     0.000 C 
HETATM    6  C10 UNL     1      36.807   0.817  34.635  1.00  0.00     0.000 C 
HETATM    7  C9  UNL     1      35.382   0.955  35.112  1.00  0.00     0.005 C 
ENDBRANCH   1   2
BRANCH   1   8
HETATM    8  C6  UNL     1      32.811  -0.798  35.673  1.00  0.00     0.037 C 
HETATM    9  C7  UNL     1      31.338  -1.146  35.748  1.00  0.00     0.238 C 
HETATM   10  N1  UNL     1      31.183  -0.103  36.737  1.00  0.00    -0.074 N 
HETATM   11  C8  UNL     1      32.593  -0.261  37.044  1.00  0.00     0.238 C 
ATOM     12  H12 UNL     1      30.800   0.807  36.484  1.00  0.00     0.277 HD
ATOM     13  H11 UNL     1      30.475  -0.175  37.468  1.00  0.00     0.277 HD
ENDBRANCH   1   8
TORSDOF 2
ENDMDL
MODEL 2
REMARK VINA RESULT: -6.376644488      2.956      4.495
REMARK  2 active torsions:
REMARK  status: ('A' for Active; 'I' for Inactive)
REMARK    1  A    between atoms: C4_4  and  C5_5 
REMARK    2  A    between atoms: C5_5  and  C6_6 
ROOT
HETATM    1  C5  UNL     1      34.622  -0.206  33.091  1.00  0.00     0.012 C 
ENDROOT
BRANCH   1   2
HETATM    2  C4  UNL     1      34.169  -0.225  34.528  1.00  0.00    -0.014 C 
HETATM    3  C3  UNL     1      34.017   1.222  34.982  1.00  0.00     0.005 C 
HETATM    4  C2  UNL     1      34.955   1.528  36.134  1.00  0.00     0.000 C 
HETATM    5  C1  UNL     1      34.652   0.627  37.293  1.00  0.00     0.000 C 
HETATM    6  C10 UNL     1      34.628  -0.802  36.854  1.00  0.00     0.000 C 
HETATM    7  C9  UNL     1      35.095  -0.990  35.431  1.00  0.00     0.005 C 
ENDBRANCH   1   2
BRANCH   1   8
HETATM    8  C6  UNL     1      35.648   0.837  32.801  1.00  0.00     0.037 C 
HETATM    9  C7  UNL     1      35.727   1.090  31.309  1.00  0.00     0.238 C 
HETATM   10  N1  UNL     1      36.792   0.116  31.241  1.00  0.00    -0.074 N 
HETATM   11  C8  UNL     1      37.059   0.389  32.641  1.00  0.00     0.238 C 
ATOM     12  H12 UNL     1      36.614  -0.835  30.917  1.00  0.00     0.277 HD
ATOM     13  H11 UNL     1      37.531   0.194  30.541  1.00  0.00     0.277 HD
ENDBRANCH   1   8
TORSDOF 2
ENDMDL
MODEL 3
REMARK VINA RESULT: -6.266171108      3.132      4.570
REMARK  2 active torsions:
REMARK  status: ('A' for Active; 'I' for Inactive)
REMARK    1  A    between atoms: C4_4  and  C5_5 
REMARK    2  A    between atoms: C5_5  and  C6_6 
ROOT
HETATM    1  C5  UNL     1      35.063   0.709  33.209  1.00  0.00     0.012 C 
ENDROOT
BRANCH   1   2
HETATM    2  C4  UNL     1      35.276   0.893  34.690  1.00  0.00    -0.014 C 
HETATM    3  C3  UNL     1      35.882  -0.396  35.230  1.00  0.00     0.005 C 
HETATM    4  C2  UNL     1      34.972  -1.028  36.267  1.00  0.00     0.000 C 
HETATM    5  C1  UNL     1      34.762  -0.080  37.409  1.00  0.00     0.000 C 
HETATM    6  C10 UNL     1      34.322   1.258  36.905  1.00  0.00     0.000 C 
HETATM    7  C9  UNL     1      34.019   1.261  35.427  1.00  0.00     0.005 C 
ENDBRANCH   1   2
BRANCH   1   8
HETATM    8  C6  UNL     1      36.107   1.366  32.369  1.00  0.00     0.037 C 
HETATM    9  C7  UNL     1      35.768   1.209  30.901  1.00  0.00     0.238 C 
HETATM   10  N1  UNL     1      36.592   0.021  30.879  1.00  0.00    -0.074 N 
HETATM   11  C8  UNL     1      37.311   0.565  32.016  1.00  0.00     0.238 C 
ATOM     12  H12 UNL     1      36.173  -0.908  30.919  1.00  0.00     0.277 HD
ATOM     13  H11 UNL     1      37.085  -0.260  30.032  1.00  0.00     0.277 HD
ENDBRANCH   1   8
TORSDOF 2
ENDMDL
MODEL 4
REMARK VINA RESULT: -6.260124390      0.805      1.552
REMARK  2 active torsions:
REMARK  status: ('A' for Active; 'I' for Inactive)
REMARK    1  A    between atoms: C4_4  and  C5_5 
REMARK    2  A    between atoms: C5_5  and  C6_6 
ROOT
HETATM    1  C5  UNL     1      33.310  -1.000  34.928  1.00  0.00     0.012 C 
ENDROOT
BRANCH   1   2
HETATM    2  C4  UNL     1      34.640  -0.399  35.301  1.00  0.00    -0.014 C 
HETATM    3  C3  UNL     1      34.747   0.951  34.602  1.00  0.00     0.005 C 
HETATM    4  C2  UNL     1      35.926   0.973  33.647  1.00  0.00     0.000 C 
HETATM    5  C1  UNL     1      37.198   0.719  34.399  1.00  0.00     0.000 C 
HETATM    6  C10 UNL     1      37.076  -0.517  35.233  1.00  0.00     0.000 C 
HETATM    7  C9  UNL     1      35.806  -1.286  34.966  1.00  0.00     0.005 C 
ENDBRANCH   1   2
BRANCH   1   8
HETATM    8  C6  UNL     1      32.536  -1.511  36.097  1.00  0.00     0.037 C 
HETATM    9  C7  UNL     1      31.063  -1.200  35.922  1.00  0.00     0.238 C 
HETATM   10  N1  UNL     1      31.272   0.016  36.676  1.00  0.00    -0.074 N 
HETATM   11  C8  UNL     1      32.421  -0.626  37.288  1.00  0.00     0.238 C 
ATOM     12  H12 UNL     1      31.363   0.916  36.206  1.00  0.00     0.277 HD
ATOM     13  H11 UNL     1      30.526   0.413  37.248  1.00  0.00     0.277 HD
ENDBRANCH   1   8
TORSDOF 2
ENDMDL
MODEL 5
REMARK VINA RESULT: -6.159066702      1.460      1.933
REMARK  2 active torsions:
REMARK  status: ('A' for Active; 'I' for Inactive)
REMARK    1  A    between atoms: C4_4  and  C5_5 
REMARK    2  A    between atoms: C5_5  and  C6_6 
ROOT
HETATM    1  C5  UNL     1      33.922  -1.014  34.671  1.00  0.00     0.012 C 
ENDROOT
BRANCH   1   2
HETATM    2  C4  UNL     1      34.989  -0.748  33.641  1.00  0.00    -0.014 C 
HETATM    3  C3  UNL     1      36.339  -0.862  34.338  1.00  0.00     0.005 C 
HETATM    4  C2  UNL     1      37.095   0.451  34.270  1.00  0.00     0.000 C 
HETATM    5  C1  UNL     1      37.324   0.837  32.840  1.00  0.00     0.000 C 
HETATM    6  C10 UNL     1      36.039   0.801  32.075  1.00  0.00     0.000 C 
HETATM    7  C9  UNL     1      34.834   0.581  32.957  1.00  0.00     0.005 C 
ENDBRANCH   1   2
BRANCH   1   8
HETATM    8  C6  UNL     1      34.290  -0.562  36.044  1.00  0.00     0.037 C 
HETATM    9  C7  UNL     1      33.279  -1.075  37.050  1.00  0.00     0.238 C 
HETATM   10  N1  UNL     1      32.562   0.172  36.903  1.00  0.00    -0.074 N 
HETATM   11  C8  UNL     1      33.811   0.778  36.481  1.00  0.00     0.238 C 
ATOM     12  H12 UNL     1      31.726   0.231  36.321  1.00  0.00     0.277 HD
ATOM     13  H11 UNL     1      32.025   0.562  37.678  1.00  0.00     0.277 HD
ENDBRANCH   1   8
TORSDOF 2
ENDMDL
