MODEL 1
REMARK VINA RESULT: -6.575515680      0.000      0.000
REMARK  1 active torsions:
REMARK  status: ('A' for Active; 'I' for Inactive)
REMARK    1  A    between atoms: C1_2  and  C2_4 
ROOT
HETATM    1  C2  UNL     1      26.990  18.274   5.877  1.00  0.00     0.255 C 
HETATM    2  O1  UNL     1      28.347  18.173   5.519  1.00  0.00    -0.285 OA
HETATM    3  C3  UNL     1      28.360  16.941   4.876  1.00  0.00     0.491 C 
HETATM    4  F3  UNL     1      29.627  16.455   4.753  1.00  0.00    -0.148 F 
HETATM    5  F4  UNL     1      27.730  17.105   3.642  1.00  0.00    -0.148 F 
HETATM    6  O2  UNL     1      27.642  16.101   5.708  1.00  0.00    -0.263 OA
HETATM    7  C4  UNL     1      26.732  16.884   6.409  1.00  0.00     0.350 C 
HETATM    8  F5  UNL     1      25.473  16.426   6.112  1.00  0.00    -0.216 F 
ENDROOT
BRANCH   1   9
HETATM    9  C1  UNL     1      26.918  19.333   6.942  1.00  0.00     0.387 C 
HETATM   10  F1  UNL     1      28.056  20.097   6.914  1.00  0.00    -0.211 F 
HETATM   11  F2  UNL     1      26.620  18.815   8.165  1.00  0.00    -0.211 F 
ENDBRANCH   1   9
TORSDOF 1
ENDMDL
MODEL 2
REMARK VINA RESULT: -6.519796288      0.469      1.001
REMARK  1 active torsions:
REMARK  status: ('A' for Active; 'I' for Inactive)
REMARK    1  A    between atoms: C1_2  and  C2_4 
ROOT
HETATM    1  C2  UNL     1      27.102  18.354   5.931  1.00  0.00     0.255 C 
HETATM    2  O1  UNL     1      28.417  18.162   5.469  1.00  0.00    -0.285 OA
HETATM    3  C3  UNL     1      28.292  16.940   4.817  1.00  0.00     0.491 C 
HETATM    4  F3  UNL     1      29.508  16.367   4.594  1.00  0.00    -0.148 F 
HETATM    5  F4  UNL     1      27.583  17.164   3.637  1.00  0.00    -0.148 F 
HETATM    6  O2  UNL     1      27.581  16.143   5.696  1.00  0.00    -0.263 OA
HETATM    7  C4  UNL     1      26.786  16.979   6.471  1.00  0.00     0.350 C 
HETATM    8  F5  UNL     1      25.479  16.616   6.269  1.00  0.00    -0.216 F 
ENDROOT
BRANCH   1   9
HETATM    9  C1  UNL     1      27.189  19.401   7.007  1.00  0.00     0.387 C 
HETATM   10  F1  UNL     1      26.593  18.941   8.152  1.00  0.00    -0.211 F 
HETATM   11  F2  UNL     1      26.732  20.612   6.585  1.00  0.00    -0.211 F 
ENDBRANCH   1   9
TORSDOF 1
ENDMDL
MODEL 3
REMARK VINA RESULT: -6.147208558      1.407      2.499
REMARK  1 active torsions:
REMARK  status: ('A' for Active; 'I' for Inactive)
REMARK    1  A    between atoms: C1_2  and  C2_4 
ROOT
HETATM    1  C2  UNL     1      27.177  17.731   6.189  1.00  0.00     0.255 C 
HETATM    2  O1  UNL     1      25.923  17.094   6.160  1.00  0.00    -0.285 OA
HETATM    3  C3  UNL     1      26.123  16.162   5.149  1.00  0.00     0.491 C 
HETATM    4  F3  UNL     1      24.942  15.664   4.687  1.00  0.00    -0.148 F 
HETATM    5  F4  UNL     1      26.959  15.167   5.655  1.00  0.00    -0.148 F 
HETATM    6  O2  UNL     1      26.734  16.871   4.130  1.00  0.00    -0.263 OA
HETATM    7  C4  UNL     1      27.434  17.921   4.713  1.00  0.00     0.350 C 
HETATM    8  F5  UNL     1      28.757  17.775   4.381  1.00  0.00    -0.216 F 
ENDROOT
BRANCH   1   9
HETATM    9  C1  UNL     1      26.967  19.029   6.920  1.00  0.00     0.387 C 
HETATM   10  F1  UNL     1      28.063  19.836   6.757  1.00  0.00    -0.211 F 
HETATM   11  F2  UNL     1      26.601  18.836   8.217  1.00  0.00    -0.211 F 
ENDBRANCH   1   9
TORSDOF 1
ENDMDL
MODEL 4
REMARK VINA RESULT: -6.134979132      1.439      2.672
REMARK  1 active torsions:
REMARK  status: ('A' for Active; 'I' for Inactive)
REMARK    1  A    between atoms: C1_2  and  C2_4 
ROOT
HETATM    1  C2  UNL     1      27.159  17.784   6.495  1.00  0.00     0.255 C 
HETATM    2  O1  UNL     1      25.888  17.200   6.348  1.00  0.00    -0.285 OA
HETATM    3  C3  UNL     1      26.114  16.339   5.280  1.00  0.00     0.491 C 
HETATM    4  F3  UNL     1      24.945  15.923   4.717  1.00  0.00    -0.148 F 
HETATM    5  F4  UNL     1      26.885  15.277   5.753  1.00  0.00    -0.148 F 
HETATM    6  O2  UNL     1      26.806  17.099   4.355  1.00  0.00    -0.263 OA
HETATM    7  C4  UNL     1      27.507  18.074   5.054  1.00  0.00     0.350 C 
HETATM    8  F5  UNL     1      28.842  17.902   4.785  1.00  0.00    -0.216 F 
ENDROOT
BRANCH   1   9
HETATM    9  C1  UNL     1      26.952  19.030   7.312  1.00  0.00     0.387 C 
HETATM   10  F1  UNL     1      25.622  19.361   7.325  1.00  0.00    -0.211 F 
HETATM   11  F2  UNL     1      27.778  20.041   6.927  1.00  0.00    -0.211 F 
ENDBRANCH   1   9
TORSDOF 1
ENDMDL
MODEL 5
REMARK VINA RESULT: -6.131834624      1.556      2.658
REMARK  1 active torsions:
REMARK  status: ('A' for Active; 'I' for Inactive)
REMARK    1  A    between atoms: C1_2  and  C2_4 
ROOT
HETATM    1  C2  UNL     1      27.428  17.595   5.901  1.00  0.00     0.255 C 
HETATM    2  O1  UNL     1      26.183  17.432   5.266  1.00  0.00    -0.285 OA
HETATM    3  C3  UNL     1      26.575  16.869   4.058  1.00  0.00     0.491 C 
HETATM    4  F3  UNL     1      25.585  16.948   3.125  1.00  0.00    -0.148 F 
HETATM    5  F4  UNL     1      26.962  15.553   4.313  1.00  0.00    -0.148 F 
HETATM    6  O2  UNL     1      27.643  17.641   3.637  1.00  0.00    -0.263 OA
HETATM    7  C4  UNL     1      28.252  18.165   4.771  1.00  0.00     0.350 C 
HETATM    8  F5  UNL     1      29.552  17.727   4.786  1.00  0.00    -0.216 F 
ENDROOT
BRANCH   1   9
HETATM    9  C1  UNL     1      27.201  18.579   7.016  1.00  0.00     0.387 C 
HETATM   10  F1  UNL     1      25.858  18.689   7.271  1.00  0.00    -0.211 F 
HETATM   11  F2  UNL     1      27.828  19.766   6.793  1.00  0.00    -0.211 F 
ENDBRANCH   1   9
TORSDOF 1
ENDMDL
