MODEL 1
REMARK VINA RESULT: -6.117355781      0.000      0.000
REMARK  1 active torsions:
REMARK  status: ('A' for Active; 'I' for Inactive)
REMARK    1  A    between atoms: C1_2  and  C2_4 
ROOT
HETATM    1  C2  UNL     1      26.585  17.408   5.986  1.00  0.00     0.292 C 
HETATM    2  F3  UNL     1      25.385  16.914   6.527  1.00  0.00    -0.203 F 
HETATM    3  C3  UNL     1      27.659  16.480   6.357  1.00  0.00     0.312 C 
HETATM    4  N1  UNL     1      28.618  16.161   5.359  1.00  0.00    -0.061 N 
ATOM      5  H11 UNL     1      29.099  15.292   5.593  1.00  0.00     0.277 HD
ATOM      6  H12 UNL     1      29.402  16.811   5.399  1.00  0.00     0.277 HD
HETATM    7  C4  UNL     1      28.088  16.097   4.021  1.00  0.00     0.344 C 
HETATM    8  C5  UNL     1      27.317  17.369   3.778  1.00  0.00     0.381 C 
HETATM    9  F4  UNL     1      26.721  17.235   2.518  1.00  0.00    -0.174 F 
HETATM   10  F5  UNL     1      28.227  18.413   3.694  1.00  0.00    -0.174 F 
HETATM   11  O1  UNL     1      26.358  17.646   4.676  1.00  0.00    -0.276 OA
ENDROOT
BRANCH   1  12
HETATM   12  C1  UNL     1      26.777  18.767   6.680  1.00  0.00     0.421 C 
HETATM   13  F1  UNL     1      28.088  19.169   6.459  1.00  0.00    -0.208 F 
HETATM   14  F2  UNL     1      26.674  18.502   8.038  1.00  0.00    -0.208 F 
ENDBRANCH   1  12
TORSDOF 1
ENDMDL
MODEL 2
REMARK VINA RESULT: -6.078056428      1.741      3.461
REMARK  1 active torsions:
REMARK  status: ('A' for Active; 'I' for Inactive)
REMARK    1  A    between atoms: C1_2  and  C2_4 
ROOT
HETATM    1  C2  UNL     1      27.898  16.988   5.274  1.00  0.00     0.292 C 
HETATM    2  F3  UNL     1      29.022  16.148   5.359  1.00  0.00    -0.203 F 
HETATM    3  C3  UNL     1      26.802  16.346   6.008  1.00  0.00     0.312 C 
HETATM    4  N1  UNL     1      25.996  17.177   6.833  1.00  0.00    -0.061 N 
ATOM      5  H11 UNL     1      25.506  16.616   7.530  1.00  0.00     0.277 HD
ATOM      6  H12 UNL     1      25.201  17.535   6.305  1.00  0.00     0.277 HD
HETATM    7  C4  UNL     1      26.706  18.258   7.466  1.00  0.00     0.344 C 
HETATM    8  C5  UNL     1      27.477  18.983   6.393  1.00  0.00     0.381 C 
HETATM    9  F4  UNL     1      28.243  19.956   7.047  1.00  0.00    -0.174 F 
HETATM   10  F5  UNL     1      26.565  19.651   5.587  1.00  0.00    -0.174 F 
HETATM   11  O1  UNL     1      28.297  18.221   5.653  1.00  0.00    -0.276 OA
ENDROOT
BRANCH   1  12
HETATM   12  C1  UNL     1      27.585  17.043   3.770  1.00  0.00     0.421 C 
HETATM   13  F1  UNL     1      28.046  18.262   3.289  1.00  0.00    -0.208 F 
HETATM   14  F2  UNL     1      26.201  17.090   3.686  1.00  0.00    -0.208 F 
ENDBRANCH   1  12
TORSDOF 1
ENDMDL
MODEL 3
REMARK VINA RESULT: -6.057439254      1.744      3.622
REMARK  1 active torsions:
REMARK  status: ('A' for Active; 'I' for Inactive)
REMARK    1  A    between atoms: C1_2  and  C2_4 
ROOT
HETATM    1  C2  UNL     1      27.297  17.224   4.466  1.00  0.00     0.292 C 
HETATM    2  F3  UNL     1      26.752  17.550   3.212  1.00  0.00    -0.203 F 
HETATM    3  C3  UNL     1      27.989  18.413   4.977  1.00  0.00     0.312 C 
HETATM    4  N1  UNL     1      27.820  18.723   6.353  1.00  0.00    -0.061 N 
ATOM      5  H11 UNL     1      28.047  19.703   6.527  1.00  0.00     0.277 HD
ATOM      6  H12 UNL     1      28.548  18.275   6.910  1.00  0.00     0.277 HD
HETATM    7  C4  UNL     1      26.518  18.408   6.881  1.00  0.00     0.344 C 
HETATM    8  C5  UNL     1      26.213  16.979   6.510  1.00  0.00     0.381 C 
HETATM    9  F4  UNL     1      24.902  16.732   6.936  1.00  0.00    -0.174 F 
HETATM   10  F5  UNL     1      27.049  16.156   7.252  1.00  0.00    -0.174 F 
HETATM   11  O1  UNL     1      26.299  16.689   5.202  1.00  0.00    -0.276 OA
ENDROOT
BRANCH   1  12
HETATM   12  C1  UNL     1      28.301  16.101   4.158  1.00  0.00     0.421 C 
HETATM   13  F1  UNL     1      27.639  14.891   4.318  1.00  0.00    -0.208 F 
HETATM   14  F2  UNL     1      29.244  16.165   5.174  1.00  0.00    -0.208 F 
ENDBRANCH   1  12
TORSDOF 1
ENDMDL
MODEL 4
REMARK VINA RESULT: -5.888626921      2.054      2.987
REMARK  1 active torsions:
REMARK  status: ('A' for Active; 'I' for Inactive)
REMARK    1  A    between atoms: C1_2  and  C2_4 
ROOT
HETATM    1  C2  UNL     1      26.777  16.513   6.184  1.00  0.00     0.292 C 
HETATM    2  F3  UNL     1      26.838  15.739   7.355  1.00  0.00    -0.203 F 
HETATM    3  C3  UNL     1      26.458  17.891   6.574  1.00  0.00     0.312 C 
HETATM    4  N1  UNL     1      27.166  18.934   5.918  1.00  0.00    -0.061 N 
ATOM      5  H11 UNL     1      27.126  19.792   6.469  1.00  0.00     0.277 HD
ATOM      6  H12 UNL     1      26.660  19.238   5.086  1.00  0.00     0.277 HD
HETATM    7  C4  UNL     1      28.530  18.613   5.587  1.00  0.00     0.344 C 
HETATM    8  C5  UNL     1      28.521  17.295   4.857  1.00  0.00     0.381 C 
HETATM    9  F4  UNL     1      29.861  16.952   4.644  1.00  0.00    -0.174 F 
HETATM   10  F5  UNL     1      27.946  17.499   3.610  1.00  0.00    -0.174 F 
HETATM   11  O1  UNL     1      27.917  16.281   5.497  1.00  0.00    -0.276 OA
ENDROOT
BRANCH   1  12
HETATM   12  C1  UNL     1      25.619  15.893   5.385  1.00  0.00     0.421 C 
HETATM   13  F1  UNL     1      26.073  14.694   4.850  1.00  0.00    -0.208 F 
HETATM   14  F2  UNL     1      25.419  16.747   4.310  1.00  0.00    -0.208 F 
ENDBRANCH   1  12
TORSDOF 1
ENDMDL
MODEL 5
REMARK VINA RESULT: -5.857229897      1.482      3.133
REMARK  1 active torsions:
REMARK  status: ('A' for Active; 'I' for Inactive)
REMARK    1  A    between atoms: C1_2  and  C2_4 
ROOT
HETATM    1  C2  UNL     1      26.515  16.843   4.258  1.00  0.00     0.292 C 
HETATM    2  F3  UNL     1      25.868  17.211   3.065  1.00  0.00    -0.203 F 
HETATM    3  C3  UNL     1      27.800  16.234   3.900  1.00  0.00     0.312 C 
HETATM    4  N1  UNL     1      28.931  16.592   4.683  1.00  0.00    -0.061 N 
ATOM      5  H11 UNL     1      29.792  16.396   4.172  1.00  0.00     0.277 HD
ATOM      6  H12 UNL     1      29.040  15.946   5.464  1.00  0.00     0.277 HD
HETATM    7  C4  UNL     1      28.924  17.952   5.153  1.00  0.00     0.344 C 
HETATM    8  C5  UNL     1      27.592  18.197   5.813  1.00  0.00     0.381 C 
HETATM    9  F4  UNL     1      27.567  19.553   6.162  1.00  0.00    -0.174 F 
HETATM   10  F5  UNL     1      27.558  17.468   6.994  1.00  0.00    -0.174 F 
HETATM   11  O1  UNL     1      26.514  17.930   5.059  1.00  0.00    -0.276 OA
ENDROOT
BRANCH   1  12
HETATM   12  C1  UNL     1      25.576  15.801   4.887  1.00  0.00     0.421 C 
HETATM   13  F1  UNL     1      25.161  16.298   6.116  1.00  0.00    -0.208 F 
HETATM   14  F2  UNL     1      26.379  14.704   5.163  1.00  0.00    -0.208 F 
ENDBRANCH   1  12
TORSDOF 1
ENDMDL
