MODEL 1
REMARK VINA RESULT: -6.582693471      0.000      0.000
REMARK  12 active torsions:
REMARK  status: ('A' for Active; 'I' for Inactive)
REMARK    1  A    between atoms: C2_2  and  C3_3 
REMARK    2  A    between atoms: C4_4  and  C5_5 
REMARK    3  A    between atoms: C6_6  and  C7_7 
REMARK    4  A    between atoms: C14_14  and  S1_15 
REMARK    5  A    between atoms: S1_15  and  N1_18 
REMARK    6  A    between atoms: N3_26  and  C20_27 
REMARK    7  A    between atoms: C20_27  and  C21_28 
REMARK    8  A    between atoms: C21_28  and  C22_29 
REMARK    9  A    between atoms: C22_29  and  C23_30 
REMARK   10  A    between atoms: C23_30  and  C24_31 
REMARK   11  A    between atoms: C24_31  and  N4_32 
REMARK   12  A    between atoms: C27_37  and  N6_38 
ROOT
HETATM    1  C3  UNL     1      79.050  64.578  12.788  1.00  0.00     0.048 A 
HETATM    2  C4  UNL     1      80.289  64.481  12.161  1.00  0.00     0.111 A 
HETATM    3  N2  UNL     1      80.222  65.281  11.099  1.00  0.00    -0.344 N 
ATOM      4  H2  UNL     1      80.970  65.439  10.423  1.00  0.00     0.167 HD
HETATM    5  C19 UNL     1      79.021  65.838  11.069  1.00  0.00     0.184 A 
HETATM    6  N3  UNL     1      78.250  65.439  12.093  1.00  0.00    -0.344 N 
ENDROOT
BRANCH   2   7
HETATM    7  C5  UNL     1      81.409  63.677  12.581  1.00  0.00    -0.041 C 
HETATM    8  C6  UNL     1      82.351  62.994  12.957  1.00  0.00    -0.058 C 
BRANCH   8   9
HETATM    9  C7  UNL     1      83.455  62.197  13.434  1.00  0.00     0.042 A 
HETATM   10  C8  UNL     1      84.128  62.600  14.598  1.00  0.00     0.029 A 
HETATM   11  C9  UNL     1      85.188  61.857  15.066  1.00  0.00    -0.060 A 
HETATM   12  C10 UNL     1      85.867  62.324  16.298  1.00  0.00     0.048 C 
HETATM   13  C11 UNL     1      85.576  60.723  14.386  1.00  0.00     0.015 A 
HETATM   14  C12 UNL     1      84.937  60.300  13.241  1.00  0.00    -0.037 A 
HETATM   15  C13 UNL     1      85.379  59.067  12.550  1.00  0.00     0.050 C 
HETATM   16  C14 UNL     1      83.864  61.076  12.789  1.00  0.00     0.099 A 
BRANCH  16  17
HETATM   17  S1  UNL     1      83.068  60.511  11.363  1.00  0.00     0.245 S 
HETATM   18  O1  UNL     1      82.621  61.606  10.435  1.00  0.00    -0.206 OA
HETATM   19  O2  UNL     1      84.029  59.610  10.604  1.00  0.00    -0.206 OA
BRANCH  17  20
HETATM   20  N1  UNL     1      81.660  59.647  11.807  1.00  0.00    -0.206 NA
HETATM   21  C15 UNL     1      81.379  59.632  13.222  1.00  0.00     0.107 C 
HETATM   22  C16 UNL     1      79.930  59.147  13.310  1.00  0.00     0.017 C 
HETATM   23  C17 UNL     1      79.302  59.614  12.014  1.00  0.00     0.017 C 
HETATM   24  C18 UNL     1      80.451  60.125  11.170  1.00  0.00     0.107 C 
ENDBRANCH  17  20
ENDBRANCH  16  17
ENDBRANCH   8   9
ENDBRANCH   2   7
BRANCH   1  25
HETATM   25  C2  UNL     1      78.695  63.846  14.010  1.00  0.00     0.056 C 
HETATM   26  C1  UNL     1      78.026  62.514  13.738  1.00  0.00     0.011 C 
ENDBRANCH   1  25
BRANCH   6  27
HETATM   27  C20 UNL     1      76.888  65.781  12.450  1.00  0.00     0.130 C 
BRANCH  27  28
HETATM   28  C21 UNL     1      76.794  66.960  13.350  1.00  0.00     0.020 C 
BRANCH  28  29
HETATM   29  C22 UNL     1      76.327  66.694  14.742  1.00  0.00     0.003 C 
BRANCH  29  30
HETATM   30  C23 UNL     1      75.467  65.473  14.892  1.00  0.00     0.020 C 
BRANCH  30  31
HETATM   31  C24 UNL     1      74.923  65.394  16.268  1.00  0.00     0.128 C 
BRANCH  31  32
HETATM   32  N4  UNL     1      75.694  64.729  17.251  1.00  0.00    -0.362 N 
HETATM   33  C25 UNL     1      76.498  63.718  16.876  1.00  0.00     0.107 A 
HETATM   34  C26 UNL     1      77.266  63.050  17.838  1.00  0.00     0.107 A 
HETATM   35  N5  UNL     1      77.202  63.416  19.131  1.00  0.00    -0.350 N 
HETATM   36  C27 UNL     1      76.402  64.426  19.519  1.00  0.00     0.114 A 
ATOM     37  H5  UNL     1      77.765  62.923  19.824  1.00  0.00     0.166 HD
HETATM   38  C28 UNL     1      75.654  65.070  18.556  1.00  0.00     0.138 A 
BRANCH  36  39
HETATM   39  N6  UNL     1      76.338  64.776  20.744  1.00  0.00    -0.384 N 
ATOM     40  H62 UNL     1      76.729  65.664  21.059  1.00  0.00     0.157 HD
ATOM     41  H61 UNL     1      75.895  64.173  21.437  1.00  0.00     0.157 HD
ENDBRANCH  36  39
ENDBRANCH  31  32
ENDBRANCH  30  31
ENDBRANCH  29  30
ENDBRANCH  28  29
ENDBRANCH  27  28
ENDBRANCH   6  27
TORSDOF 12
ENDMDL
MODEL 2
REMARK VINA RESULT: -6.505700366      4.836     10.619
REMARK  12 active torsions:
REMARK  status: ('A' for Active; 'I' for Inactive)
REMARK    1  A    between atoms: C2_2  and  C3_3 
REMARK    2  A    between atoms: C4_4  and  C5_5 
REMARK    3  A    between atoms: C6_6  and  C7_7 
REMARK    4  A    between atoms: C14_14  and  S1_15 
REMARK    5  A    between atoms: S1_15  and  N1_18 
REMARK    6  A    between atoms: N3_26  and  C20_27 
REMARK    7  A    between atoms: C20_27  and  C21_28 
REMARK    8  A    between atoms: C21_28  and  C22_29 
REMARK    9  A    between atoms: C22_29  and  C23_30 
REMARK   10  A    between atoms: C23_30  and  C24_31 
REMARK   11  A    between atoms: C24_31  and  N4_32 
REMARK   12  A    between atoms: C27_37  and  N6_38 
ROOT
HETATM    1  C3  UNL     1      84.745  61.796  13.924  1.00  0.00     0.048 A 
HETATM    2  C4  UNL     1      83.646  61.772  13.070  1.00  0.00     0.111 A 
HETATM    3  N2  UNL     1      83.777  60.667  12.340  1.00  0.00    -0.344 N 
ATOM      4  H2  UNL     1      83.134  60.352  11.613  1.00  0.00     0.167 HD
HETATM    5  C19 UNL     1      84.885  60.045  12.715  1.00  0.00     0.184 A 
HETATM    6  N3  UNL     1      85.527  60.699  13.695  1.00  0.00    -0.344 N 
ENDROOT
BRANCH   2   7
HETATM    7  C5  UNL     1      82.588  62.748  12.998  1.00  0.00    -0.041 C 
HETATM    8  C6  UNL     1      81.691  63.576  12.915  1.00  0.00    -0.058 C 
BRANCH   8   9
HETATM    9  C7  UNL     1      80.643  64.558  12.785  1.00  0.00     0.042 A 
HETATM   10  C8  UNL     1      80.898  65.727  12.050  1.00  0.00     0.029 A 
HETATM   11  C9  UNL     1      79.913  66.680  11.919  1.00  0.00    -0.060 A 
HETATM   12  C10 UNL     1      80.231  67.896  11.135  1.00  0.00     0.048 C 
HETATM   13  C11 UNL     1      78.686  66.475  12.512  1.00  0.00     0.015 A 
HETATM   14  C12 UNL     1      78.404  65.340  13.239  1.00  0.00    -0.037 A 
HETATM   15  C13 UNL     1      77.066  65.155  13.848  1.00  0.00     0.050 C 
HETATM   16  C14 UNL     1      79.424  64.389  13.356  1.00  0.00     0.099 A 
BRANCH  16  17
HETATM   17  S1  UNL     1      79.035  62.966  14.256  1.00  0.00     0.245 S 
HETATM   18  O1  UNL     1      80.221  62.309  14.907  1.00  0.00    -0.206 OA
HETATM   19  O2  UNL     1      78.048  63.347  15.348  1.00  0.00    -0.206 OA
BRANCH  17  20
HETATM   20  N1  UNL     1      78.351  61.803  13.206  1.00  0.00    -0.206 NA
HETATM   21  C15 UNL     1      79.120  60.592  13.057  1.00  0.00     0.107 C 
HETATM   22  C16 UNL     1      78.147  59.609  12.402  1.00  0.00     0.017 C 
HETATM   23  C17 UNL     1      76.784  60.059  12.884  1.00  0.00     0.017 C 
HETATM   24  C18 UNL     1      77.019  61.381  13.584  1.00  0.00     0.107 C 
ENDBRANCH  17  20
ENDBRANCH  16  17
ENDBRANCH   8   9
ENDBRANCH   2   7
BRANCH   1  25
HETATM   25  C2  UNL     1      84.992  62.858  14.907  1.00  0.00     0.056 C 
HETATM   26  C1  UNL     1      84.929  62.373  16.341  1.00  0.00     0.011 C 
ENDBRANCH   1  25
BRANCH   6  27
HETATM   27  C20 UNL     1      86.757  60.395  14.397  1.00  0.00     0.130 C 
BRANCH  27  28
HETATM   28  C21 UNL     1      87.731  59.630  13.574  1.00  0.00     0.020 C 
BRANCH  28  29
HETATM   29  C22 UNL     1      88.851  60.413  12.977  1.00  0.00     0.003 C 
BRANCH  29  30
HETATM   30  C23 UNL     1      90.048  59.597  12.587  1.00  0.00     0.020 C 
BRANCH  30  31
HETATM   31  C24 UNL     1      90.846  60.312  11.563  1.00  0.00     0.128 C 
BRANCH  31  32
HETATM   32  N4  UNL     1      91.617  61.424  11.976  1.00  0.00    -0.362 N 
HETATM   33  C25 UNL     1      92.422  61.298  13.046  1.00  0.00     0.107 A 
HETATM   34  C26 UNL     1      93.191  62.390  13.468  1.00  0.00     0.107 A 
HETATM   35  N5  UNL     1      93.126  63.561  12.808  1.00  0.00    -0.350 N 
HETATM   36  C27 UNL     1      92.324  63.699  11.737  1.00  0.00     0.114 A 
ATOM     37  H5  UNL     1      93.690  64.350  13.123  1.00  0.00     0.166 HD
HETATM   38  C28 UNL     1      91.576  62.612  11.338  1.00  0.00     0.138 A 
BRANCH  36  39
HETATM   39  N6  UNL     1      92.260  64.808  11.108  1.00  0.00    -0.384 N 
ATOM     40  H62 UNL     1      91.778  65.613  11.508  1.00  0.00     0.157 HD
ATOM     41  H61 UNL     1      92.691  64.913  10.190  1.00  0.00     0.157 HD
ENDBRANCH  36  39
ENDBRANCH  31  32
ENDBRANCH  30  31
ENDBRANCH  29  30
ENDBRANCH  28  29
ENDBRANCH  27  28
ENDBRANCH   6  27
TORSDOF 12
ENDMDL
MODEL 3
REMARK VINA RESULT: -6.448222372      4.159      9.548
REMARK  12 active torsions:
REMARK  status: ('A' for Active; 'I' for Inactive)
REMARK    1  A    between atoms: C2_2  and  C3_3 
REMARK    2  A    between atoms: C4_4  and  C5_5 
REMARK    3  A    between atoms: C6_6  and  C7_7 
REMARK    4  A    between atoms: C14_14  and  S1_15 
REMARK    5  A    between atoms: S1_15  and  N1_18 
REMARK    6  A    between atoms: N3_26  and  C20_27 
REMARK    7  A    between atoms: C20_27  and  C21_28 
REMARK    8  A    between atoms: C21_28  and  C22_29 
REMARK    9  A    between atoms: C22_29  and  C23_30 
REMARK   10  A    between atoms: C23_30  and  C24_31 
REMARK   11  A    between atoms: C24_31  and  N4_32 
REMARK   12  A    between atoms: C27_37  and  N6_38 
ROOT
HETATM    1  C3  UNL     1      78.544  64.842  13.087  1.00  0.00     0.048 A 
HETATM    2  C4  UNL     1      77.418  65.644  13.250  1.00  0.00     0.111 A 
HETATM    3  N2  UNL     1      77.792  66.872  12.898  1.00  0.00    -0.344 N 
ATOM      4  H2  UNL     1      77.199  67.701  12.903  1.00  0.00     0.167 HD
HETATM    5  C19 UNL     1      79.067  66.834  12.540  1.00  0.00     0.184 A 
HETATM    6  N3  UNL     1      79.587  65.601  12.637  1.00  0.00    -0.344 N 
ENDROOT
BRANCH   2   7
HETATM    7  C5  UNL     1      76.117  65.224  13.707  1.00  0.00    -0.041 C 
HETATM    8  C6  UNL     1      75.022  64.861  14.112  1.00  0.00    -0.058 C 
BRANCH   8   9
HETATM    9  C7  UNL     1      73.745  64.414  14.616  1.00  0.00     0.042 A 
HETATM   10  C8  UNL     1      72.878  63.731  13.749  1.00  0.00     0.029 A 
HETATM   11  C9  UNL     1      71.653  63.302  14.208  1.00  0.00    -0.060 A 
HETATM   12  C10 UNL     1      70.772  62.586  13.255  1.00  0.00     0.048 C 
HETATM   13  C11 UNL     1      71.292  63.548  15.515  1.00  0.00     0.015 A 
HETATM   14  C12 UNL     1      72.120  64.215  16.391  1.00  0.00    -0.037 A 
HETATM   15  C13 UNL     1      71.698  64.445  17.792  1.00  0.00     0.050 C 
HETATM   16  C14 UNL     1      73.359  64.640  15.896  1.00  0.00     0.099 A 
BRANCH  16  17
HETATM   17  S1  UNL     1      74.385  65.456  17.022  1.00  0.00     0.245 S 
HETATM   18  O1  UNL     1      75.400  66.362  16.381  1.00  0.00    -0.206 OA
HETATM   19  O2  UNL     1      73.513  66.297  17.940  1.00  0.00    -0.206 OA
BRANCH  17  20
HETATM   20  N1  UNL     1      75.267  64.300  17.922  1.00  0.00    -0.206 NA
HETATM   21  C15 UNL     1      76.457  63.805  17.275  1.00  0.00     0.107 C 
HETATM   22  C16 UNL     1      77.231  63.109  18.397  1.00  0.00     0.017 C 
HETATM   23  C17 UNL     1      76.824  63.857  19.649  1.00  0.00     0.017 C 
HETATM   24  C18 UNL     1      75.691  64.768  19.225  1.00  0.00     0.107 C 
ENDBRANCH  17  20
ENDBRANCH  16  17
ENDBRANCH   8   9
ENDBRANCH   2   7
BRANCH   1  25
HETATM   25  C2  UNL     1      78.567  63.401  13.370  1.00  0.00     0.056 C 
HETATM   26  C1  UNL     1      79.064  63.072  14.763  1.00  0.00     0.011 C 
ENDBRANCH   1  25
BRANCH   6  27
HETATM   27  C20 UNL     1      80.918  65.102  12.359  1.00  0.00     0.130 C 
BRANCH  27  28
HETATM   28  C21 UNL     1      80.972  64.192  11.185  1.00  0.00     0.020 C 
BRANCH  28  29
HETATM   29  C22 UNL     1      81.624  62.868  11.405  1.00  0.00     0.003 C 
BRANCH  29  30
HETATM   30  C23 UNL     1      82.382  62.749  12.695  1.00  0.00     0.020 C 
BRANCH  30  31
HETATM   31  C24 UNL     1      83.295  61.583  12.649  1.00  0.00     0.128 C 
BRANCH  31  32
HETATM   32  N4  UNL     1      84.360  61.534  13.579  1.00  0.00    -0.362 N 
HETATM   33  C25 UNL     1      85.294  60.574  13.450  1.00  0.00     0.107 A 
HETATM   34  C26 UNL     1      86.353  60.511  14.364  1.00  0.00     0.107 A 
HETATM   35  N5  UNL     1      86.439  61.404  15.367  1.00  0.00    -0.350 N 
HETATM   36  C27 UNL     1      85.510  62.368  15.507  1.00  0.00     0.114 A 
ATOM     37  H5  UNL     1      87.214  61.350  16.027  1.00  0.00     0.166 HD
HETATM   38  C28 UNL     1      84.476  62.413  14.596  1.00  0.00     0.138 A 
BRANCH  36  39
HETATM   39  N6  UNL     1      85.588  63.217  16.456  1.00  0.00    -0.384 N 
ATOM     40  H62 UNL     1      86.393  63.235  17.082  1.00  0.00     0.157 HD
ATOM     41  H61 UNL     1      84.844  63.898  16.610  1.00  0.00     0.157 HD
ENDBRANCH  36  39
ENDBRANCH  31  32
ENDBRANCH  30  31
ENDBRANCH  29  30
ENDBRANCH  28  29
ENDBRANCH  27  28
ENDBRANCH   6  27
TORSDOF 12
ENDMDL
MODEL 4
REMARK VINA RESULT: -6.437664157      1.057      1.591
REMARK  12 active torsions:
REMARK  status: ('A' for Active; 'I' for Inactive)
REMARK    1  A    between atoms: C2_2  and  C3_3 
REMARK    2  A    between atoms: C4_4  and  C5_5 
REMARK    3  A    between atoms: C6_6  and  C7_7 
REMARK    4  A    between atoms: C14_14  and  S1_15 
REMARK    5  A    between atoms: S1_15  and  N1_18 
REMARK    6  A    between atoms: N3_26  and  C20_27 
REMARK    7  A    between atoms: C20_27  and  C21_28 
REMARK    8  A    between atoms: C21_28  and  C22_29 
REMARK    9  A    between atoms: C22_29  and  C23_30 
REMARK   10  A    between atoms: C23_30  and  C24_31 
REMARK   11  A    between atoms: C24_31  and  N4_32 
REMARK   12  A    between atoms: C27_37  and  N6_38 
ROOT
HETATM    1  C3  UNL     1      79.008  65.240  13.032  1.00  0.00     0.048 A 
HETATM    2  C4  UNL     1      79.329  63.894  13.182  1.00  0.00     0.111 A 
HETATM    3  N2  UNL     1      78.172  63.237  13.139  1.00  0.00    -0.344 N 
ATOM      4  H2  UNL     1      78.056  62.227  13.220  1.00  0.00     0.167 HD
HETATM    5  C19 UNL     1      77.196  64.118  12.974  1.00  0.00     0.184 A 
HETATM    6  N3  UNL     1      77.655  65.377  12.900  1.00  0.00    -0.344 N 
ENDROOT
BRANCH   2   7
HETATM    7  C5  UNL     1      80.647  63.334  13.349  1.00  0.00    -0.041 C 
HETATM    8  C6  UNL     1      81.760  62.855  13.511  1.00  0.00    -0.058 C 
BRANCH   8   9
HETATM    9  C7  UNL     1      83.069  62.292  13.736  1.00  0.00     0.042 A 
HETATM   10  C8  UNL     1      83.781  62.672  14.885  1.00  0.00     0.029 A 
HETATM   11  C9  UNL     1      85.035  62.152  15.115  1.00  0.00    -0.060 A 
HETATM   12  C10 UNL     1      85.746  62.585  16.341  1.00  0.00     0.048 C 
HETATM   13  C11 UNL     1      85.577  61.261  14.214  1.00  0.00     0.015 A 
HETATM   14  C12 UNL     1      84.905  60.867  13.078  1.00  0.00    -0.037 A 
HETATM   15  C13 UNL     1      85.520  59.896  12.143  1.00  0.00     0.050 C 
HETATM   16  C14 UNL     1      83.633  61.413  12.870  1.00  0.00     0.099 A 
BRANCH  16  17
HETATM   17  S1  UNL     1      82.805  60.886  11.448  1.00  0.00     0.245 S 
HETATM   18  O1  UNL     1      82.139  61.994  10.679  1.00  0.00    -0.206 OA
HETATM   19  O2  UNL     1      83.813  60.213  10.530  1.00  0.00    -0.206 OA
BRANCH  17  20
HETATM   20  N1  UNL     1      81.569  59.790  11.889  1.00  0.00    -0.206 NA
HETATM   21  C15 UNL     1      80.256  60.122  11.392  1.00  0.00     0.107 C 
HETATM   22  C16 UNL     1      79.444  58.841  11.593  1.00  0.00     0.017 C 
HETATM   23  C17 UNL     1      80.470  57.732  11.491  1.00  0.00     0.017 C 
HETATM   24  C18 UNL     1      81.815  58.426  11.470  1.00  0.00     0.107 C 
ENDBRANCH  17  20
ENDBRANCH  16  17
ENDBRANCH   8   9
ENDBRANCH   2   7
BRANCH   1  25
HETATM   25  C2  UNL     1      80.002  66.320  13.025  1.00  0.00     0.056 C 
HETATM   26  C1  UNL     1      80.450  66.713  11.632  1.00  0.00     0.011 C 
ENDBRANCH   1  25
BRANCH   6  27
HETATM   27  C20 UNL     1      76.960  66.636  12.729  1.00  0.00     0.130 C 
BRANCH  27  28
HETATM   28  C21 UNL     1      76.595  67.286  14.016  1.00  0.00     0.020 C 
BRANCH  28  29
HETATM   29  C22 UNL     1      75.269  66.916  14.590  1.00  0.00     0.003 C 
BRANCH  29  30
HETATM   30  C23 UNL     1      75.215  66.911  16.090  1.00  0.00     0.020 C 
BRANCH  30  31
HETATM   31  C24 UNL     1      74.730  65.601  16.583  1.00  0.00     0.128 C 
BRANCH  31  32
HETATM   32  N4  UNL     1      75.608  64.818  17.370  1.00  0.00    -0.362 N 
HETATM   33  C25 UNL     1      76.379  63.897  16.764  1.00  0.00     0.107 A 
HETATM   34  C26 UNL     1      77.252  63.113  17.530  1.00  0.00     0.107 A 
HETATM   35  N5  UNL     1      77.320  63.278  18.863  1.00  0.00    -0.350 N 
HETATM   36  C27 UNL     1      76.553  64.196  19.480  1.00  0.00     0.114 A 
ATOM     37  H5  UNL     1      77.959  62.703  19.412  1.00  0.00     0.166 HD
HETATM   38  C28 UNL     1      75.701  64.957  18.708  1.00  0.00     0.138 A 
BRANCH  36  39
HETATM   39  N6  UNL     1      76.615  64.355  20.745  1.00  0.00    -0.384 N 
ATOM     40  H62 UNL     1      77.237  63.785  21.317  1.00  0.00     0.157 HD
ATOM     41  H61 UNL     1      76.041  65.058  21.211  1.00  0.00     0.157 HD
ENDBRANCH  36  39
ENDBRANCH  31  32
ENDBRANCH  30  31
ENDBRANCH  29  30
ENDBRANCH  28  29
ENDBRANCH  27  28
ENDBRANCH   6  27
TORSDOF 12
ENDMDL
MODEL 5
REMARK VINA RESULT: -6.414166517      1.324      1.717
REMARK  12 active torsions:
REMARK  status: ('A' for Active; 'I' for Inactive)
REMARK    1  A    between atoms: C2_2  and  C3_3 
REMARK    2  A    between atoms: C4_4  and  C5_5 
REMARK    3  A    between atoms: C6_6  and  C7_7 
REMARK    4  A    between atoms: C14_14  and  S1_15 
REMARK    5  A    between atoms: S1_15  and  N1_18 
REMARK    6  A    between atoms: N3_26  and  C20_27 
REMARK    7  A    between atoms: C20_27  and  C21_28 
REMARK    8  A    between atoms: C21_28  and  C22_29 
REMARK    9  A    between atoms: C22_29  and  C23_30 
REMARK   10  A    between atoms: C23_30  and  C24_31 
REMARK   11  A    between atoms: C24_31  and  N4_32 
REMARK   12  A    between atoms: C27_37  and  N6_38 
ROOT
HETATM    1  C3  UNL     1      79.315  64.616  12.106  1.00  0.00     0.048 A 
HETATM    2  C4  UNL     1      79.935  63.390  11.881  1.00  0.00     0.111 A 
HETATM    3  N2  UNL     1      79.144  62.732  11.037  1.00  0.00    -0.344 N 
ATOM      4  H2  UNL     1      79.312  61.796  10.669  1.00  0.00     0.167 HD
HETATM    5  C19 UNL     1      78.100  63.498  10.757  1.00  0.00     0.184 A 
HETATM    6  N3  UNL     1      78.152  64.680  11.391  1.00  0.00    -0.344 N 
ENDROOT
BRANCH   2   7
HETATM    7  C5  UNL     1      81.179  62.935  12.449  1.00  0.00    -0.041 C 
HETATM    8  C6  UNL     1      82.224  62.543  12.949  1.00  0.00    -0.058 C 
BRANCH   8   9
HETATM    9  C7  UNL     1      83.442  62.082  13.569  1.00  0.00     0.042 A 
HETATM   10  C8  UNL     1      83.915  62.749  14.710  1.00  0.00     0.029 A 
HETATM   11  C9  UNL     1      85.079  62.329  15.313  1.00  0.00    -0.060 A 
HETATM   12  C10 UNL     1      85.538  63.066  16.514  1.00  0.00     0.048 C 
HETATM   13  C11 UNL     1      85.767  61.255  14.790  1.00  0.00     0.015 A 
HETATM   14  C12 UNL     1      85.329  60.578  13.673  1.00  0.00    -0.037 A 
HETATM   15  C13 UNL     1      86.093  59.420  13.153  1.00  0.00     0.050 C 
HETATM   16  C14 UNL     1      84.144  61.028  13.081  1.00  0.00     0.099 A 
BRANCH  16  17
HETATM   17  S1  UNL     1      83.608  60.149  11.693  1.00  0.00     0.245 S 
HETATM   18  O1  UNL     1      83.056  61.014  10.594  1.00  0.00    -0.206 OA
HETATM   19  O2  UNL     1      84.789  59.371  11.135  1.00  0.00    -0.206 OA
BRANCH  17  20
HETATM   20  N1  UNL     1      82.351  59.084  12.152  1.00  0.00    -0.206 NA
HETATM   21  C15 UNL     1      81.098  59.292  11.467  1.00  0.00     0.107 C 
HETATM   22  C16 UNL     1      80.294  58.025  11.765  1.00  0.00     0.017 C 
HETATM   23  C17 UNL     1      81.346  56.951  11.944  1.00  0.00     0.017 C 
HETATM   24  C18 UNL     1      82.671  57.683  11.971  1.00  0.00     0.107 C 
ENDBRANCH  17  20
ENDBRANCH  16  17
ENDBRANCH   8   9
ENDBRANCH   2   7
BRANCH   1  25
HETATM   25  C2  UNL     1      79.858  65.656  12.988  1.00  0.00     0.056 C 
HETATM   26  C1  UNL     1      80.680  66.695  12.253  1.00  0.00     0.011 C 
ENDBRANCH   1  25
BRANCH   6  27
HETATM   27  C20 UNL     1      77.242  65.806  11.385  1.00  0.00     0.130 C 
BRANCH  27  28
HETATM   28  C21 UNL     1      76.255  65.772  12.497  1.00  0.00     0.020 C 
BRANCH  28  29
HETATM   29  C22 UNL     1      76.112  67.026  13.291  1.00  0.00     0.003 C 
BRANCH  29  30
HETATM   30  C23 UNL     1      76.343  66.865  14.765  1.00  0.00     0.020 C 
BRANCH  30  31
HETATM   31  C24 UNL     1      75.490  65.780  15.304  1.00  0.00     0.128 C 
BRANCH  31  32
HETATM   32  N4  UNL     1      76.088  64.822  16.156  1.00  0.00    -0.362 N 
HETATM   33  C25 UNL     1      76.949  63.932  15.632  1.00  0.00     0.107 A 
HETATM   34  C26 UNL     1      77.548  62.976  16.462  1.00  0.00     0.107 A 
HETATM   35  N5  UNL     1      77.265  62.946  17.778  1.00  0.00    -0.350 N 
HETATM   36  C27 UNL     1      76.404  63.831  18.313  1.00  0.00     0.114 A 
ATOM     37  H5  UNL     1      77.706  62.246  18.374  1.00  0.00     0.166 HD
HETATM   38  C28 UNL     1      75.826  64.763  17.478  1.00  0.00     0.138 A 
BRANCH  36  39
HETATM   39  N6  UNL     1      76.133  63.806  19.560  1.00  0.00    -0.384 N 
ATOM     40  H62 UNL     1      76.174  64.654  20.124  1.00  0.00     0.157 HD
ATOM     41  H61 UNL     1      75.868  62.934  20.018  1.00  0.00     0.157 HD
ENDBRANCH  36  39
ENDBRANCH  31  32
ENDBRANCH  30  31
ENDBRANCH  29  30
ENDBRANCH  28  29
ENDBRANCH  27  28
ENDBRANCH   6  27
TORSDOF 12
ENDMDL
