MODEL 1
REMARK VINA RESULT: -10.111041601      0.000      0.000
REMARK  6 active torsions:
REMARK  status: ('A' for Active; 'I' for Inactive)
REMARK    1  A    between atoms: N1_2  and  C2_5 
REMARK    2  A    between atoms: C2_5  and  C3_6 
REMARK    3  A    between atoms: C3_6  and  C4_7 
REMARK       I    between atoms: C4_7  and  N2_9 
REMARK    4  A    between atoms: C11_16  and  C12_17 
REMARK       I    between atoms: C12_17  and  N3_19 
REMARK    5  A    between atoms: N3_19  and  C13_21 
REMARK    6  A    between atoms: C24_32  and  O3_33 
ROOT
HETATM    1  C4  UNL     1       2.580  -1.299   5.144  1.00  0.00     0.222 C 
HETATM    2  O1  UNL     1       1.547  -1.049   5.813  1.00  0.00    -0.273 OA
HETATM    3  N2  UNL     1       2.766  -0.845   3.815  1.00  0.00    -0.343 N 
HETATM    4  C5  UNL     1       3.925  -1.100   3.003  1.00  0.00     0.127 C 
HETATM    5  C6  UNL     1       3.972  -0.011   1.947  1.00  0.00     0.027 C 
HETATM    6  C7  UNL     1       2.832   0.856   2.339  1.00  0.00     0.020 C 
HETATM    7  C8  UNL     1       2.324   1.804   1.359  1.00  0.00     0.001 C 
HETATM    8  C9  UNL     1       3.439   2.650   0.799  1.00  0.00     0.007 C 
HETATM    9  C10 UNL     1       2.794   3.298  -0.384  1.00  0.00     0.015 C 
HETATM   10  C11 UNL     1       1.338   2.784  -0.435  1.00  0.00     0.086 C 
HETATM   11  C21 UNL     1       1.567   1.381   0.176  1.00  0.00    -0.026 C 
HETATM   12  C22 UNL     1       2.347   0.636  -0.874  1.00  0.00     0.016 C 
HETATM   13  C23 UNL     1       0.228   0.787   0.398  1.00  0.00     0.042 C 
HETATM   14  C24 UNL     1       0.070  -0.368   1.276  1.00  0.00     0.121 C 
HETATM   15  C25 UNL     1       1.192  -0.951   2.011  1.00  0.00     0.062 C 
HETATM   16  C26 UNL     1       1.874  -0.061   3.006  1.00  0.00     0.038 C 
HETATM   17  C27 UNL     1       0.848   0.633   3.865  1.00  0.00     0.039 C 
ENDROOT
BRANCH  10  18
HETATM   18  C12 UNL     1       0.830   2.784  -1.790  1.00  0.00     0.223 C 
HETATM   19  O2  UNL     1       1.383   3.575  -2.633  1.00  0.00    -0.273 OA
HETATM   20  N3  UNL     1      -0.226   1.988  -2.274  1.00  0.00    -0.356 N 
ATOM     21  H3  UNL     1      -0.696   1.348  -1.633  1.00  0.00     0.162 HD
BRANCH  20  22
HETATM   22  C13 UNL     1      -0.671   2.051  -3.674  1.00  0.00     0.088 C 
HETATM   23  C14 UNL     1      -1.570   3.248  -3.888  1.00  0.00     0.025 C 
HETATM   24  C15 UNL     1      -2.186   3.134  -5.245  1.00  0.00     0.002 C 
HETATM   25  C16 UNL     1      -1.310   2.440  -6.248  1.00  0.00     0.005 C 
HETATM   26  C17 UNL     1       0.164   2.606  -5.966  1.00  0.00    -0.013 C 
HETATM   27  C18 UNL     1       0.615   4.031  -6.118  1.00  0.00     0.010 C 
HETATM   28  C19 UNL     1       0.485   2.019  -4.614  1.00  0.00     0.008 C 
HETATM   29  C20 UNL     1       1.089   0.644  -4.715  1.00  0.00     0.012 C 
ENDBRANCH  20  22
ENDBRANCH  10  18
BRANCH  14  30
HETATM   30  O3  UNL     1      -0.574  -1.433   0.591  1.00  0.00    -0.395 OA
ATOM     31  H3  UNL     1       0.047  -2.122   0.384  1.00  0.00     0.210 HD
ENDBRANCH  14  30
BRANCH   1  32
HETATM   32  C3  UNL     1       3.609  -2.110   5.838  1.00  0.00     0.130 C 
BRANCH  32  33
HETATM   33  C2  UNL     1       2.987  -2.763   7.031  1.00  0.00     0.241 C 
BRANCH  33  34
HETATM   34  N1  UNL     1       2.491  -4.091   6.766  1.00  0.00    -0.079 N 
HETATM   35  C1  UNL     1       1.260  -4.254   7.513  1.00  0.00     0.267 C 
ATOM     36  H12 UNL     1       3.177  -4.819   6.966  1.00  0.00     0.276 HD
ATOM     37  H11 UNL     1       2.380  -4.283   5.770  1.00  0.00     0.276 HD
ENDBRANCH  33  34
ENDBRANCH  32  33
ENDBRANCH   1  32
TORSDOF 6
ENDMDL
MODEL 2
REMARK VINA RESULT: -10.076298113      2.013      9.273
REMARK  6 active torsions:
REMARK  status: ('A' for Active; 'I' for Inactive)
REMARK    1  A    between atoms: N1_2  and  C2_5 
REMARK    2  A    between atoms: C2_5  and  C3_6 
REMARK    3  A    between atoms: C3_6  and  C4_7 
REMARK       I    between atoms: C4_7  and  N2_9 
REMARK    4  A    between atoms: C11_16  and  C12_17 
REMARK       I    between atoms: C12_17  and  N3_19 
REMARK    5  A    between atoms: N3_19  and  C13_21 
REMARK    6  A    between atoms: C24_32  and  O3_33 
ROOT
HETATM    1  C4  UNL     1      -1.122   2.621  -5.120  1.00  0.00     0.222 C 
HETATM    2  O1  UNL     1      -0.880   1.585  -5.787  1.00  0.00    -0.273 OA
HETATM    3  N2  UNL     1      -0.688   2.796  -3.783  1.00  0.00    -0.343 N 
HETATM    4  C5  UNL     1      -0.936   3.959  -2.974  1.00  0.00     0.127 C 
HETATM    5  C6  UNL     1       0.136   3.985  -1.899  1.00  0.00     0.027 C 
HETATM    6  C7  UNL     1       0.989   2.830  -2.279  1.00  0.00     0.020 C 
HETATM    7  C8  UNL     1       1.912   2.304  -1.285  1.00  0.00     0.001 C 
HETATM    8  C9  UNL     1       2.768   3.403  -0.709  1.00  0.00     0.007 C 
HETATM    9  C10 UNL     1       3.385   2.745   0.483  1.00  0.00     0.015 C 
HETATM   10  C11 UNL     1       2.844   1.298   0.523  1.00  0.00     0.086 C 
HETATM   11  C21 UNL     1       1.456   1.552  -0.110  1.00  0.00    -0.026 C 
HETATM   12  C22 UNL     1       0.707   2.344   0.928  1.00  0.00     0.016 C 
HETATM   13  C23 UNL     1       0.843   0.224  -0.345  1.00  0.00     0.042 C 
HETATM   14  C24 UNL     1      -0.300   0.088  -1.242  1.00  0.00     0.121 C 
HETATM   15  C25 UNL     1      -0.852   1.222  -1.985  1.00  0.00     0.062 C 
HETATM   16  C26 UNL     1       0.067   1.889  -2.963  1.00  0.00     0.038 C 
HETATM   17  C27 UNL     1       0.757   0.853  -3.813  1.00  0.00     0.039 C 
ENDROOT
BRANCH  10  18
HETATM   18  C12 UNL     1       2.812   0.788   1.877  1.00  0.00     0.223 C 
HETATM   19  O2  UNL     1       3.590   1.333   2.737  1.00  0.00    -0.273 OA
HETATM   20  N3  UNL     1       1.998  -0.262   2.343  1.00  0.00    -0.356 N 
ATOM     21  H3  UNL     1       1.367  -0.726   1.689  1.00  0.00     0.162 HD
BRANCH  20  22
HETATM   22  C13 UNL     1       2.029  -0.710   3.743  1.00  0.00     0.088 C 
HETATM   23  C14 UNL     1       3.186  -1.659   3.968  1.00  0.00     0.025 C 
HETATM   24  C15 UNL     1       3.033  -2.270   5.323  1.00  0.00     0.002 C 
HETATM   25  C16 UNL     1       2.367  -1.366   6.320  1.00  0.00     0.005 C 
HETATM   26  C17 UNL     1       2.597   0.100   6.041  1.00  0.00    -0.013 C 
HETATM   27  C18 UNL     1       4.038   0.491   6.207  1.00  0.00     0.010 C 
HETATM   28  C19 UNL     1       2.037   0.446   4.684  1.00  0.00     0.008 C 
HETATM   29  C20 UNL     1       0.688   1.106   4.773  1.00  0.00     0.012 C 
ENDBRANCH  20  22
ENDBRANCH  10  18
BRANCH  14  30
HETATM   30  O3  UNL     1      -1.388  -0.538  -0.577  1.00  0.00    -0.395 OA
ATOM     31  H3  UNL     1      -1.147  -1.410  -0.289  1.00  0.00     0.210 HD
ENDBRANCH  14  30
BRANCH   1  32
HETATM   32  C3  UNL     1      -1.904   3.665  -5.825  1.00  0.00     0.130 C 
BRANCH  32  33
HETATM   33  C2  UNL     1      -2.581   3.048  -7.008  1.00  0.00     0.241 C 
BRANCH  33  34
HETATM   34  N1  UNL     1      -3.919   2.588  -6.728  1.00  0.00    -0.079 N 
HETATM   35  C1  UNL     1      -4.099   1.325  -7.415  1.00  0.00     0.267 C 
ATOM     36  H12 UNL     1      -4.634   3.276  -6.966  1.00  0.00     0.276 HD
ATOM     37  H11 UNL     1      -4.119   2.529  -5.729  1.00  0.00     0.276 HD
ENDBRANCH  33  34
ENDBRANCH  32  33
ENDBRANCH   1  32
TORSDOF 6
ENDMDL
MODEL 3
REMARK VINA RESULT: -9.592379612      1.639      9.420
REMARK  6 active torsions:
REMARK  status: ('A' for Active; 'I' for Inactive)
REMARK    1  A    between atoms: N1_2  and  C2_5 
REMARK    2  A    between atoms: C2_5  and  C3_6 
REMARK    3  A    between atoms: C3_6  and  C4_7 
REMARK       I    between atoms: C4_7  and  N2_9 
REMARK    4  A    between atoms: C11_16  and  C12_17 
REMARK       I    between atoms: C12_17  and  N3_19 
REMARK    5  A    between atoms: N3_19  and  C13_21 
REMARK    6  A    between atoms: C24_32  and  O3_33 
ROOT
HETATM    1  C4  UNL     1       0.492   2.596  -4.575  1.00  0.00     0.222 C 
HETATM    2  O1  UNL     1       0.705   1.541  -5.223  1.00  0.00    -0.273 OA
HETATM    3  N2  UNL     1       0.647   2.682  -3.170  1.00  0.00    -0.343 N 
HETATM    4  C5  UNL     1       0.419   3.861  -2.378  1.00  0.00     0.127 C 
HETATM    5  C6  UNL     1       1.221   3.695  -1.100  1.00  0.00     0.027 C 
HETATM    6  C7  UNL     1       1.939   2.417  -1.343  1.00  0.00     0.020 C 
HETATM    7  C8  UNL     1       2.524   1.733  -0.200  1.00  0.00     0.001 C 
HETATM    8  C9  UNL     1       3.400   2.668   0.597  1.00  0.00     0.007 C 
HETATM    9  C10 UNL     1       3.627   1.902   1.861  1.00  0.00     0.015 C 
HETATM   10  C11 UNL     1       2.865   0.567   1.716  1.00  0.00     0.086 C 
HETATM   11  C21 UNL     1       1.708   1.056   0.814  1.00  0.00    -0.026 C 
HETATM   12  C22 UNL     1       0.888   1.951   1.704  1.00  0.00     0.016 C 
HETATM   13  C23 UNL     1       0.954  -0.147   0.392  1.00  0.00     0.042 C 
HETATM   14  C24 UNL     1       0.028  -0.080  -0.734  1.00  0.00     0.121 C 
HETATM   15  C25 UNL     1      -0.157   1.138  -1.524  1.00  0.00     0.062 C 
HETATM   16  C26 UNL     1       1.048   1.652  -2.251  1.00  0.00     0.038 C 
HETATM   17  C27 UNL     1       1.731   0.524  -2.982  1.00  0.00     0.039 C 
ENDROOT
BRANCH  10  18
HETATM   18  C12 UNL     1       2.456   0.054   3.007  1.00  0.00     0.223 C 
HETATM   19  O2  UNL     1       1.419   0.574   3.552  1.00  0.00    -0.273 OA
HETATM   20  N3  UNL     1       3.097  -0.972   3.726  1.00  0.00    -0.356 N 
ATOM     21  H3  UNL     1       3.929  -1.409   3.330  1.00  0.00     0.162 HD
BRANCH  20  22
HETATM   22  C13 UNL     1       2.604  -1.433   5.033  1.00  0.00     0.088 C 
HETATM   23  C14 UNL     1       2.437  -2.937   5.033  1.00  0.00     0.025 C 
HETATM   24  C15 UNL     1       1.711  -3.326   6.280  1.00  0.00     0.002 C 
HETATM   25  C16 UNL     1       1.991  -2.423   7.447  1.00  0.00     0.005 C 
HETATM   26  C17 UNL     1       3.358  -1.785   7.392  1.00  0.00    -0.013 C 
HETATM   27  C18 UNL     1       4.462  -2.795   7.531  1.00  0.00     0.010 C 
HETATM   28  C19 UNL     1       3.470  -0.946   6.144  1.00  0.00     0.008 C 
HETATM   29  C20 UNL     1       3.261   0.519   6.418  1.00  0.00     0.012 C 
ENDBRANCH  20  22
ENDBRANCH  10  18
BRANCH  14  30
HETATM   30  O3  UNL     1      -1.265  -0.522  -0.347  1.00  0.00    -0.395 OA
ATOM     31  H3  UNL     1      -1.731  -0.887  -1.089  1.00  0.00     0.210 HD
ENDBRANCH  14  30
BRANCH   1  32
HETATM   32  C3  UNL     1       0.062   3.764  -5.382  1.00  0.00     0.130 C 
BRANCH  32  33
HETATM   33  C2  UNL     1      -1.204   3.418  -6.099  1.00  0.00     0.241 C 
BRANCH  33  34
HETATM   34  N1  UNL     1      -2.208   2.837  -5.243  1.00  0.00    -0.079 N 
HETATM   35  C1  UNL     1      -3.434   2.741  -6.011  1.00  0.00     0.267 C 
ATOM     36  H12 UNL     1      -2.327   3.347  -4.367  1.00  0.00     0.276 HD
ATOM     37  H11 UNL     1      -1.920   1.945  -4.840  1.00  0.00     0.276 HD
ENDBRANCH  33  34
ENDBRANCH  32  33
ENDBRANCH   1  32
TORSDOF 6
ENDMDL
MODEL 4
REMARK VINA RESULT: -9.591680259      0.883      1.622
REMARK  6 active torsions:
REMARK  status: ('A' for Active; 'I' for Inactive)
REMARK    1  A    between atoms: N1_2  and  C2_5 
REMARK    2  A    between atoms: C2_5  and  C3_6 
REMARK    3  A    between atoms: C3_6  and  C4_7 
REMARK       I    between atoms: C4_7  and  N2_9 
REMARK    4  A    between atoms: C11_16  and  C12_17 
REMARK       I    between atoms: C12_17  and  N3_19 
REMARK    5  A    between atoms: N3_19  and  C13_21 
REMARK    6  A    between atoms: C24_32  and  O3_33 
ROOT
HETATM    1  C4  UNL     1       2.285  -2.000   5.354  1.00  0.00     0.222 C 
HETATM    2  O1  UNL     1       1.263  -1.667   6.003  1.00  0.00    -0.273 OA
HETATM    3  N2  UNL     1       2.607  -1.452   4.088  1.00  0.00    -0.343 N 
HETATM    4  C5  UNL     1       3.762  -1.795   3.302  1.00  0.00     0.127 C 
HETATM    5  C6  UNL     1       4.023  -0.626   2.369  1.00  0.00     0.027 C 
HETATM    6  C7  UNL     1       2.997   0.357   2.803  1.00  0.00     0.020 C 
HETATM    7  C8  UNL     1       2.685   1.461   1.908  1.00  0.00     0.001 C 
HETATM    8  C9  UNL     1       3.939   2.184   1.485  1.00  0.00     0.007 C 
HETATM    9  C10 UNL     1       3.460   3.032   0.352  1.00  0.00     0.015 C 
HETATM   10  C11 UNL     1       1.951   2.746   0.188  1.00  0.00     0.086 C 
HETATM   11  C21 UNL     1       1.942   1.272   0.657  1.00  0.00    -0.026 C 
HETATM   12  C22 UNL     1       2.666   0.526  -0.432  1.00  0.00     0.016 C 
HETATM   13  C23 UNL     1       0.522   0.864   0.761  1.00  0.00     0.042 C 
HETATM   14  C24 UNL     1       0.153  -0.336   1.505  1.00  0.00     0.121 C 
HETATM   15  C25 UNL     1       1.137  -1.147   2.221  1.00  0.00     0.062 C 
HETATM   16  C26 UNL     1       1.883  -0.469   3.330  1.00  0.00     0.038 C 
HETATM   17  C27 UNL     1       0.920   0.281   4.215  1.00  0.00     0.039 C 
ENDROOT
BRANCH  10  18
HETATM   18  C12 UNL     1       1.524   2.953  -1.180  1.00  0.00     0.223 C 
HETATM   19  O2  UNL     1       2.004   3.962  -1.807  1.00  0.00    -0.273 OA
HETATM   20  N3  UNL     1       0.622   2.141  -1.893  1.00  0.00    -0.356 N 
ATOM     21  H3  UNL     1       0.213   1.330  -1.429  1.00  0.00     0.162 HD
BRANCH  20  22
HETATM   22  C13 UNL     1       0.250   2.427  -3.287  1.00  0.00     0.088 C 
HETATM   23  C14 UNL     1       0.751   1.330  -4.202  1.00  0.00     0.025 C 
HETATM   24  C15 UNL     1       0.568   1.780  -5.614  1.00  0.00     0.002 C 
HETATM   25  C16 UNL     1      -0.615   2.684  -5.811  1.00  0.00     0.005 C 
HETATM   26  C17 UNL     1      -1.726   2.434  -4.820  1.00  0.00    -0.013 C 
HETATM   27  C18 UNL     1      -2.357   1.083  -5.003  1.00  0.00     0.010 C 
HETATM   28  C19 UNL     1      -1.214   2.670  -3.422  1.00  0.00     0.008 C 
HETATM   29  C20 UNL     1      -1.610   4.019  -2.886  1.00  0.00     0.012 C 
ENDBRANCH  20  22
ENDBRANCH  10  18
BRANCH  14  30
HETATM   30  O3  UNL     1      -0.597  -1.222   0.688  1.00  0.00    -0.395 OA
ATOM     31  H3  UNL     1      -0.068  -1.542  -0.034  1.00  0.00     0.210 HD
ENDBRANCH  14  30
BRANCH   1  32
HETATM   32  C3  UNL     1       3.148  -3.019   6.000  1.00  0.00     0.130 C 
BRANCH  32  33
HETATM   33  C2  UNL     1       2.414  -3.607   7.163  1.00  0.00     0.241 C 
BRANCH  33  34
HETATM   34  N1  UNL     1       1.327  -4.473   6.778  1.00  0.00    -0.079 N 
HETATM   35  C1  UNL     1       0.528  -4.725   7.961  1.00  0.00     0.267 C 
ATOM     36  H12 UNL     1       1.642  -5.329   6.321  1.00  0.00     0.276 HD
ATOM     37  H11 UNL     1       0.779  -4.102   6.001  1.00  0.00     0.276 HD
ENDBRANCH  33  34
ENDBRANCH  32  33
ENDBRANCH   1  32
TORSDOF 6
ENDMDL
MODEL 5
REMARK VINA RESULT: -9.553178758      1.403      1.873
REMARK  6 active torsions:
REMARK  status: ('A' for Active; 'I' for Inactive)
REMARK    1  A    between atoms: N1_2  and  C2_5 
REMARK    2  A    between atoms: C2_5  and  C3_6 
REMARK    3  A    between atoms: C3_6  and  C4_7 
REMARK       I    between atoms: C4_7  and  N2_9 
REMARK    4  A    between atoms: C11_16  and  C12_17 
REMARK       I    between atoms: C12_17  and  N3_19 
REMARK    5  A    between atoms: N3_19  and  C13_21 
REMARK    6  A    between atoms: C24_32  and  O3_33 
ROOT
HETATM    1  C4  UNL     1       2.537   0.507   4.620  1.00  0.00     0.222 C 
HETATM    2  O1  UNL     1       1.476   0.743   5.249  1.00  0.00    -0.273 OA
HETATM    3  N2  UNL     1       2.648   0.648   3.215  1.00  0.00    -0.343 N 
HETATM    4  C5  UNL     1       3.835   0.392   2.445  1.00  0.00     0.127 C 
HETATM    5  C6  UNL     1       3.704   1.185   1.157  1.00  0.00     0.027 C 
HETATM    6  C7  UNL     1       2.436   1.927   1.373  1.00  0.00     0.020 C 
HETATM    7  C8  UNL     1       1.780   2.515   0.215  1.00  0.00     0.001 C 
HETATM    8  C9  UNL     1       2.742   3.367  -0.575  1.00  0.00     0.007 C 
HETATM    9  C10 UNL     1       2.001   3.596  -1.853  1.00  0.00     0.015 C 
HETATM   10  C11 UNL     1       0.651   2.858  -1.723  1.00  0.00     0.086 C 
HETATM   11  C21 UNL     1       1.106   1.701  -0.803  1.00  0.00    -0.026 C 
HETATM   12  C22 UNL     1       2.001   0.858  -1.672  1.00  0.00     0.016 C 
HETATM   13  C23 UNL     1      -0.117   0.972  -0.394  1.00  0.00     0.042 C 
HETATM   14  C24 UNL     1      -0.084   0.055   0.740  1.00  0.00     0.121 C 
HETATM   15  C25 UNL     1       1.117  -0.144   1.551  1.00  0.00     0.062 C 
HETATM   16  C26 UNL     1       1.640   1.059   2.276  1.00  0.00     0.038 C 
HETATM   17  C27 UNL     1       0.513   1.767   2.983  1.00  0.00     0.039 C 
ENDROOT
BRANCH  10  18
HETATM   18  C12 UNL     1       0.152   2.447  -3.018  1.00  0.00     0.223 C 
HETATM   19  O2  UNL     1       0.743   1.469  -3.601  1.00  0.00    -0.273 OA
HETATM   20  N3  UNL     1      -0.931   3.026  -3.706  1.00  0.00    -0.356 N 
ATOM     21  H3  UNL     1      -1.426   3.810  -3.279  1.00  0.00     0.162 HD
BRANCH  20  22
HETATM   22  C13 UNL     1      -1.372   2.535  -5.020  1.00  0.00     0.088 C 
HETATM   23  C14 UNL     1      -2.869   2.314  -5.026  1.00  0.00     0.025 C 
HETATM   24  C15 UNL     1      -3.231   1.593  -6.283  1.00  0.00     0.002 C 
HETATM   25  C16 UNL     1      -2.336   1.921  -7.445  1.00  0.00     0.005 C 
HETATM   26  C17 UNL     1      -1.749   3.309  -7.369  1.00  0.00    -0.013 C 
HETATM   27  C18 UNL     1      -2.797   4.378  -7.495  1.00  0.00     0.010 C 
HETATM   28  C19 UNL     1      -0.916   3.434  -6.118  1.00  0.00     0.008 C 
HETATM   29  C20 UNL     1       0.556   3.281  -6.392  1.00  0.00     0.012 C 
ENDBRANCH  20  22
ENDBRANCH  10  18
BRANCH  14  30
HETATM   30  O3  UNL     1      -0.542  -1.233   0.357  1.00  0.00    -0.395 OA
ATOM     31  H3  UNL     1       0.099  -1.897   0.580  1.00  0.00     0.210 HD
ENDBRANCH  14  30
BRANCH   1  32
HETATM   32  C3  UNL     1       3.684   0.064   5.449  1.00  0.00     0.130 C 
BRANCH  32  33
HETATM   33  C2  UNL     1       3.237  -1.054   6.337  1.00  0.00     0.241 C 
BRANCH  33  34
HETATM   34  N1  UNL     1       2.410  -2.025   5.664  1.00  0.00    -0.079 N 
HETATM   35  C1  UNL     1       2.910  -3.341   6.014  1.00  0.00     0.267 C 
ATOM     36  H12 UNL     1       2.359  -1.875   4.656  1.00  0.00     0.276 HD
ATOM     37  H11 UNL     1       1.417  -1.911   5.867  1.00  0.00     0.276 HD
ENDBRANCH  33  34
ENDBRANCH  32  33
ENDBRANCH   1  32
TORSDOF 6
ENDMDL
