MODEL 1
REMARK VINA RESULT: -10.439708279      0.000      0.000
REMARK  7 active torsions:
REMARK  status: ('A' for Active; 'I' for Inactive)
REMARK    1  A    between atoms: C2_2  and  C3_4 
REMARK    2  A    between atoms: C3_4  and  O2_5 
REMARK    3  A    between atoms: C13_16  and  N1_17 
REMARK       I    between atoms: N1_17  and  C14_19 
REMARK    4  A    between atoms: C14_19  and  C15_21 
REMARK    5  A    between atoms: C15_21  and  C17_23 
REMARK    6  A    between atoms: C17_23  and  C18_24 
REMARK    7  A    between atoms: N2_25  and  N3_27 
ROOT
HETATM    1  C3  UNL     1      -1.769   2.308  -4.251  1.00  0.00     0.125 C 
HETATM    2  C4  UNL     1      -0.839   3.454  -4.619  1.00  0.00     0.047 C 
HETATM    3  C5  UNL     1       0.312   3.401  -3.611  1.00  0.00     0.009 C 
HETATM    4  C6  UNL     1      -0.229   2.455  -2.583  1.00  0.00     0.002 C 
HETATM    5  C7  UNL     1       0.637   2.031  -1.499  1.00  0.00    -0.005 C 
HETATM    6  C8  UNL     1       2.103   1.923  -1.712  1.00  0.00     0.006 C 
HETATM    7  C9  UNL     1       2.735   0.730  -1.105  1.00  0.00     0.006 C 
HETATM    8  C10 UNL     1       2.235   0.314   0.241  1.00  0.00    -0.000 C 
HETATM    9  C11 UNL     1       3.014   0.914   1.356  1.00  0.00     0.009 C 
HETATM   10  C12 UNL     1       3.496   2.332   1.081  1.00  0.00     0.012 C 
HETATM   11  C13 UNL     1       2.387   0.837   2.707  1.00  0.00     0.088 C 
HETATM   12  C19 UNL     1       0.908   0.882   2.752  1.00  0.00     0.026 C 
HETATM   13  C20 UNL     1       0.280   1.331   1.455  1.00  0.00     0.012 C 
HETATM   14  C21 UNL     1       0.731   0.402   0.380  1.00  0.00    -0.036 C 
HETATM   15  C22 UNL     1       0.121  -0.960   0.778  1.00  0.00     0.016 C 
HETATM   16  C23 UNL     1       0.179   0.677  -0.984  1.00  0.00    -0.002 C 
HETATM   17  C24 UNL     1      -1.298   0.608  -1.108  1.00  0.00     0.007 C 
HETATM   18  C25 UNL     1      -1.611   0.432  -2.596  1.00  0.00     0.013 C 
HETATM   19  C26 UNL     1      -0.845   1.391  -3.464  1.00  0.00    -0.002 C 
HETATM   20  C27 UNL     1       0.093   0.767  -4.417  1.00  0.00     0.019 C 
ENDROOT
BRANCH  11  21
HETATM   21  N1  UNL     1       2.812  -0.323   3.488  1.00  0.00    -0.356 N 
HETATM   22  C14 UNL     1       3.023  -0.254   4.884  1.00  0.00     0.222 C 
HETATM   23  O3  UNL     1       2.838   0.847   5.456  1.00  0.00    -0.273 OA
ATOM     24  H1  UNL     1       2.962  -1.212   3.009  1.00  0.00     0.162 HD
BRANCH  22  25
HETATM   25  C15 UNL     1       3.450  -1.434   5.661  1.00  0.00     0.078 C 
HETATM   26  C16 UNL     1       2.819  -2.663   5.045  1.00  0.00     0.020 C 
BRANCH  25  27
HETATM   27  C17 UNL     1       3.152  -1.292   7.133  1.00  0.00     0.059 C 
BRANCH  27  28
HETATM   28  C18 UNL     1       4.430  -1.475   7.861  1.00  0.00     0.080 C 
HETATM   29  N2  UNL     1       5.080  -0.461   8.301  1.00  0.00    -0.322 N 
ATOM     30  H2  UNL     1       5.954  -0.637   8.795  1.00  0.00     0.185 HD
BRANCH  29  31
HETATM   31  N3  UNL     1       4.675   0.862   8.151  1.00  0.00    -0.346 N 
ATOM     32  H32 UNL     1       5.414   1.555   8.027  1.00  0.00     0.176 HD
ATOM     33  H31 UNL     1       3.704   1.176   8.157  1.00  0.00     0.176 HD
ENDBRANCH  29  31
ENDBRANCH  27  28
ENDBRANCH  25  27
ENDBRANCH  22  25
ENDBRANCH  11  21
BRANCH   1  34
HETATM   34  C2  UNL     1      -2.419   1.699  -5.408  1.00  0.00     0.158 C 
HETATM   35  C1  UNL     1      -2.141   2.187  -6.788  1.00  0.00     0.094 C 
HETATM   36  O1  UNL     1      -3.200   0.783  -5.290  1.00  0.00    -0.295 OA
ENDBRANCH   1  34
BRANCH   1  37
HETATM   37  O2  UNL     1      -2.751   2.764  -3.336  1.00  0.00    -0.381 OA
ATOM     38  H2  UNL     1      -2.893   2.106  -2.665  1.00  0.00     0.211 HD
ENDBRANCH   1  37
TORSDOF 7
ENDMDL
MODEL 2
REMARK VINA RESULT: -10.422674360      4.019      9.782
REMARK  7 active torsions:
REMARK  status: ('A' for Active; 'I' for Inactive)
REMARK    1  A    between atoms: C2_2  and  C3_4 
REMARK    2  A    between atoms: C3_4  and  O2_5 
REMARK    3  A    between atoms: C13_16  and  N1_17 
REMARK       I    between atoms: N1_17  and  C14_19 
REMARK    4  A    between atoms: C14_19  and  C15_21 
REMARK    5  A    between atoms: C15_21  and  C17_23 
REMARK    6  A    between atoms: C17_23  and  C18_24 
REMARK    7  A    between atoms: N2_25  and  N3_27 
ROOT
HETATM    1  C3  UNL     1       2.442  -1.467   3.974  1.00  0.00     0.125 C 
HETATM    2  C4  UNL     1       3.607  -0.532   4.263  1.00  0.00     0.047 C 
HETATM    3  C5  UNL     1       3.513   0.589   3.224  1.00  0.00     0.009 C 
HETATM    4  C6  UNL     1       2.520   0.023   2.256  1.00  0.00     0.002 C 
HETATM    5  C7  UNL     1       2.051   0.859   1.167  1.00  0.00    -0.005 C 
HETATM    6  C8  UNL     1       1.958   2.332   1.342  1.00  0.00     0.006 C 
HETATM    7  C9  UNL     1       0.741   2.952   0.770  1.00  0.00     0.006 C 
HETATM    8  C10 UNL     1       0.264   2.414  -0.540  1.00  0.00    -0.000 C 
HETATM    9  C11 UNL     1       0.816   3.158  -1.703  1.00  0.00     0.009 C 
HETATM   10  C12 UNL     1       2.247   3.641  -1.507  1.00  0.00     0.012 C 
HETATM   11  C13 UNL     1       0.676   2.491  -3.031  1.00  0.00     0.088 C 
HETATM   12  C19 UNL     1       0.714   1.012  -3.035  1.00  0.00     0.026 C 
HETATM   13  C20 UNL     1       1.218   0.420  -1.740  1.00  0.00     0.012 C 
HETATM   14  C21 UNL     1       0.340   0.907  -0.639  1.00  0.00    -0.036 C 
HETATM   15  C22 UNL     1      -1.041   0.292  -0.958  1.00  0.00     0.016 C 
HETATM   16  C23 UNL     1       0.673   0.393   0.727  1.00  0.00    -0.002 C 
HETATM   17  C24 UNL     1       0.604  -1.079   0.897  1.00  0.00     0.007 C 
HETATM   18  C25 UNL     1       0.495  -1.348   2.400  1.00  0.00     0.013 C 
HETATM   19  C26 UNL     1       1.494  -0.562   3.201  1.00  0.00    -0.002 C 
HETATM   20  C27 UNL     1       0.917   0.407   4.154  1.00  0.00     0.019 C 
ENDROOT
BRANCH  11  21
HETATM   21  N1  UNL     1      -0.516   2.900  -3.771  1.00  0.00    -0.356 N 
HETATM   22  C14 UNL     1      -0.510   3.064  -5.176  1.00  0.00     0.222 C 
HETATM   23  O3  UNL     1       0.562   2.852  -5.791  1.00  0.00    -0.273 OA
ATOM     24  H1  UNL     1      -1.381   3.072  -3.258  1.00  0.00     0.162 HD
BRANCH  22  25
HETATM   25  C15 UNL     1      -1.723   3.474  -5.911  1.00  0.00     0.078 C 
HETATM   26  C16 UNL     1      -2.895   2.685  -5.373  1.00  0.00     0.020 C 
BRANCH  25  27
HETATM   27  C17 UNL     1      -1.559   3.345  -7.405  1.00  0.00     0.059 C 
BRANCH  27  28
HETATM   28  C18 UNL     1      -1.579   4.715  -7.970  1.00  0.00     0.080 C 
HETATM   29  N2  UNL     1      -0.488   5.285  -8.332  1.00  0.00    -0.322 N 
ATOM     30  H2  UNL     1      -0.551   6.228  -8.715  1.00  0.00     0.185 HD
BRANCH  29  31
HETATM   31  N3  UNL     1       0.774   4.706  -8.239  1.00  0.00    -0.346 N 
ATOM     32  H32 UNL     1       1.083   4.429  -7.308  1.00  0.00     0.176 HD
ATOM     33  H31 UNL     1       1.398   4.546  -9.031  1.00  0.00     0.176 HD
ENDBRANCH  29  31
ENDBRANCH  27  28
ENDBRANCH  25  27
ENDBRANCH  22  25
ENDBRANCH  11  21
BRANCH   1  34
HETATM   34  C2  UNL     1       1.883  -2.080   5.175  1.00  0.00     0.158 C 
HETATM   35  C1  UNL     1       2.442  -1.775   6.522  1.00  0.00     0.094 C 
HETATM   36  O1  UNL     1       0.953  -2.851   5.123  1.00  0.00    -0.295 OA
ENDBRANCH   1  34
BRANCH   1  37
HETATM   37  O2  UNL     1       2.853  -2.477   3.069  1.00  0.00    -0.381 OA
ATOM     38  H2  UNL     1       3.687  -2.239   2.680  1.00  0.00     0.211 HD
ENDBRANCH   1  37
TORSDOF 7
ENDMDL
MODEL 3
REMARK VINA RESULT: -10.312197732      4.551      9.734
REMARK  7 active torsions:
REMARK  status: ('A' for Active; 'I' for Inactive)
REMARK    1  A    between atoms: C2_2  and  C3_4 
REMARK    2  A    between atoms: C3_4  and  O2_5 
REMARK    3  A    between atoms: C13_16  and  N1_17 
REMARK       I    between atoms: N1_17  and  C14_19 
REMARK    4  A    between atoms: C14_19  and  C15_21 
REMARK    5  A    between atoms: C15_21  and  C17_23 
REMARK    6  A    between atoms: C17_23  and  C18_24 
REMARK    7  A    between atoms: N2_25  and  N3_27 
ROOT
HETATM    1  C3  UNL     1       2.496   0.165   2.784  1.00  0.00     0.125 C 
HETATM    2  C4  UNL     1       3.636   1.170   2.829  1.00  0.00     0.047 C 
HETATM    3  C5  UNL     1       3.448   2.073   1.606  1.00  0.00     0.009 C 
HETATM    4  C6  UNL     1       2.432   1.306   0.817  1.00  0.00     0.002 C 
HETATM    5  C7  UNL     1       1.879   1.909  -0.381  1.00  0.00    -0.005 C 
HETATM    6  C8  UNL     1       1.738   3.385  -0.479  1.00  0.00     0.006 C 
HETATM    7  C9  UNL     1       0.471   3.851  -1.089  1.00  0.00     0.006 C 
HETATM    8  C10 UNL     1      -0.049   3.063  -2.247  1.00  0.00    -0.000 C 
HETATM    9  C11 UNL     1       0.417   3.590  -3.557  1.00  0.00     0.009 C 
HETATM   10  C12 UNL     1       1.836   4.142  -3.533  1.00  0.00     0.012 C 
HETATM   11  C13 UNL     1       0.238   2.682  -4.728  1.00  0.00     0.088 C 
HETATM   12  C19 UNL     1       0.332   1.231  -4.458  1.00  0.00     0.026 C 
HETATM   13  C20 UNL     1       0.922   0.907  -3.106  1.00  0.00     0.012 C 
HETATM   14  C21 UNL     1       0.081   1.567  -2.068  1.00  0.00    -0.036 C 
HETATM   15  C22 UNL     1      -1.290   0.863  -2.189  1.00  0.00     0.016 C 
HETATM   16  C23 UNL     1       0.500   1.329  -0.651  1.00  0.00    -0.002 C 
HETATM   17  C24 UNL     1       0.496  -0.086  -0.206  1.00  0.00     0.007 C 
HETATM   18  C25 UNL     1       0.471  -0.071   1.325  1.00  0.00     0.013 C 
HETATM   19  C26 UNL     1       1.477   0.881   1.909  1.00  0.00    -0.002 C 
HETATM   20  C27 UNL     1       0.910   1.994   2.695  1.00  0.00     0.019 C 
ENDROOT
BRANCH  11  21
HETATM   21  N1  UNL     1      -1.004   2.910  -5.464  1.00  0.00    -0.356 N 
HETATM   22  C14 UNL     1      -1.012   3.307  -6.821  1.00  0.00     0.222 C 
HETATM   23  O3  UNL     1       0.090   3.468  -7.396  1.00  0.00    -0.273 OA
ATOM     24  H1  UNL     1      -1.894   2.778  -4.983  1.00  0.00     0.162 HD
BRANCH  22  25
HETATM   25  C15 UNL     1      -2.274   3.530  -7.553  1.00  0.00     0.078 C 
HETATM   26  C16 UNL     1      -2.273   4.947  -8.082  1.00  0.00     0.020 C 
BRANCH  25  27
HETATM   27  C17 UNL     1      -3.488   3.214  -6.715  1.00  0.00     0.059 C 
BRANCH  27  28
HETATM   28  C18 UNL     1      -4.074   1.960  -7.245  1.00  0.00     0.080 C 
HETATM   29  N2  UNL     1      -4.164   0.919  -6.502  1.00  0.00    -0.322 N 
ATOM     30  H2  UNL     1      -4.574   0.079  -6.910  1.00  0.00     0.185 HD
BRANCH  29  31
HETATM   31  N3  UNL     1      -3.742   0.855  -5.177  1.00  0.00    -0.346 N 
ATOM     32  H32 UNL     1      -4.018   1.628  -4.572  1.00  0.00     0.176 HD
ATOM     33  H31 UNL     1      -3.184   0.098  -4.782  1.00  0.00     0.176 HD
ENDBRANCH  29  31
ENDBRANCH  27  28
ENDBRANCH  25  27
ENDBRANCH  22  25
ENDBRANCH  11  21
BRANCH   1  34
HETATM   34  C2  UNL     1       2.020  -0.227   4.107  1.00  0.00     0.158 C 
HETATM   35  C1  UNL     1       2.618   0.358   5.340  1.00  0.00     0.094 C 
HETATM   36  O1  UNL     1       1.132  -1.034   4.251  1.00  0.00    -0.295 OA
ENDBRANCH   1  34
BRANCH   1  37
HETATM   37  O2  UNL     1       2.901  -0.986   2.061  1.00  0.00    -0.381 OA
ATOM     38  H2  UNL     1       3.250  -0.726   1.216  1.00  0.00     0.211 HD
ENDBRANCH   1  37
TORSDOF 7
ENDMDL
MODEL 4
REMARK VINA RESULT: -10.293548447      1.807      2.682
REMARK  7 active torsions:
REMARK  status: ('A' for Active; 'I' for Inactive)
REMARK    1  A    between atoms: C2_2  and  C3_4 
REMARK    2  A    between atoms: C3_4  and  O2_5 
REMARK    3  A    between atoms: C13_16  and  N1_17 
REMARK       I    between atoms: N1_17  and  C14_19 
REMARK    4  A    between atoms: C14_19  and  C15_21 
REMARK    5  A    between atoms: C15_21  and  C17_23 
REMARK    6  A    between atoms: C17_23  and  C18_24 
REMARK    7  A    between atoms: N2_25  and  N3_27 
ROOT
HETATM    1  C3  UNL     1       0.042   2.382  -2.883  1.00  0.00     0.125 C 
HETATM    2  C4  UNL     1       1.029   3.538  -2.964  1.00  0.00     0.047 C 
HETATM    3  C5  UNL     1       1.952   3.387  -1.753  1.00  0.00     0.009 C 
HETATM    4  C6  UNL     1       1.215   2.374  -0.933  1.00  0.00     0.002 C 
HETATM    5  C7  UNL     1       1.844   1.853   0.266  1.00  0.00    -0.005 C 
HETATM    6  C8  UNL     1       3.323   1.737   0.343  1.00  0.00     0.006 C 
HETATM    7  C9  UNL     1       3.819   0.490   0.969  1.00  0.00     0.006 C 
HETATM    8  C10 UNL     1       3.058  -0.021   2.149  1.00  0.00    -0.000 C 
HETATM    9  C11 UNL     1       3.597   0.477   3.441  1.00  0.00     0.009 C 
HETATM   10  C12 UNL     1       4.125   1.905   3.383  1.00  0.00     0.012 C 
HETATM   11  C13 UNL     1       2.709   0.306   4.629  1.00  0.00     0.088 C 
HETATM   12  C19 UNL     1       1.253   0.372   4.380  1.00  0.00     0.026 C 
HETATM   13  C20 UNL     1       0.899   0.931   3.022  1.00  0.00     0.012 C 
HETATM   14  C21 UNL     1       1.557   0.081   1.990  1.00  0.00    -0.036 C 
HETATM   15  C22 UNL     1       0.877  -1.298   2.148  1.00  0.00     0.016 C 
HETATM   16  C23 UNL     1       1.291   0.470   0.569  1.00  0.00    -0.002 C 
HETATM   17  C24 UNL     1      -0.131   0.435   0.146  1.00  0.00     0.007 C 
HETATM   18  C25 UNL     1      -0.138   0.382  -1.384  1.00  0.00     0.013 C 
HETATM   19  C26 UNL     1       0.788   1.392  -2.001  1.00  0.00    -0.002 C 
HETATM   20  C27 UNL     1       1.898   0.828  -2.794  1.00  0.00     0.019 C 
ENDROOT
BRANCH  11  21
HETATM   21  N1  UNL     1       2.968  -0.919   5.384  1.00  0.00    -0.356 N 
HETATM   22  C14 UNL     1       3.286  -0.899   6.762  1.00  0.00     0.222 C 
HETATM   23  O3  UNL     1       3.347   0.212   7.339  1.00  0.00    -0.273 OA
ATOM     24  H1  UNL     1       2.918  -1.816   4.902  1.00  0.00     0.162 HD
BRANCH  22  25
HETATM   25  C15 UNL     1       3.542  -2.144   7.514  1.00  0.00     0.078 C 
HETATM   26  C16 UNL     1       4.959  -2.099   8.040  1.00  0.00     0.020 C 
BRANCH  25  27
HETATM   27  C17 UNL     1       3.255  -3.378   6.695  1.00  0.00     0.059 C 
BRANCH  27  28
HETATM   28  C18 UNL     1       2.018  -3.988   7.238  1.00  0.00     0.080 C 
HETATM   29  N2  UNL     1       0.975  -4.108   6.501  1.00  0.00    -0.322 N 
ATOM     30  H2  UNL     1       0.147  -4.534   6.918  1.00  0.00     0.185 HD
BRANCH  29  31
HETATM   31  N3  UNL     1       0.894  -3.700   5.173  1.00  0.00    -0.346 N 
ATOM     32  H32 UNL     1       1.672  -3.959   4.567  1.00  0.00     0.176 HD
ATOM     33  H31 UNL     1       0.119  -3.167   4.777  1.00  0.00     0.176 HD
ENDBRANCH  29  31
ENDBRANCH  27  28
ENDBRANCH  25  27
ENDBRANCH  22  25
ENDBRANCH  11  21
BRANCH   1  34
HETATM   34  C2  UNL     1      -0.361   1.876  -4.191  1.00  0.00     0.158 C 
HETATM   35  C1  UNL     1       0.214   2.443  -5.443  1.00  0.00     0.094 C 
HETATM   36  O1  UNL     1      -1.170   0.985  -4.307  1.00  0.00    -0.295 OA
ENDBRANCH   1  34
BRANCH   1  37
HETATM   37  O2  UNL     1      -1.103   2.782  -2.151  1.00  0.00    -0.381 OA
ATOM     38  H2  UNL     1      -1.217   2.213  -1.398  1.00  0.00     0.211 HD
ENDBRANCH   1  37
TORSDOF 7
ENDMDL
MODEL 5
REMARK VINA RESULT: -9.288357311      4.115      9.435
REMARK  7 active torsions:
REMARK  status: ('A' for Active; 'I' for Inactive)
REMARK    1  A    between atoms: C2_2  and  C3_4 
REMARK    2  A    between atoms: C3_4  and  O2_5 
REMARK    3  A    between atoms: C13_16  and  N1_17 
REMARK       I    between atoms: N1_17  and  C14_19 
REMARK    4  A    between atoms: C14_19  and  C15_21 
REMARK    5  A    between atoms: C15_21  and  C17_23 
REMARK    6  A    between atoms: C17_23  and  C18_24 
REMARK    7  A    between atoms: N2_25  and  N3_27 
ROOT
HETATM    1  C3  UNL     1       2.539  -0.817   3.944  1.00  0.00     0.125 C 
HETATM    2  C4  UNL     1       3.617   0.233   4.167  1.00  0.00     0.047 C 
HETATM    3  C5  UNL     1       3.456   1.248   3.032  1.00  0.00     0.009 C 
HETATM    4  C6  UNL     1       2.536   0.519   2.102  1.00  0.00     0.002 C 
HETATM    5  C7  UNL     1       2.026   1.215   0.936  1.00  0.00    -0.005 C 
HETATM    6  C8  UNL     1       1.810   2.684   0.978  1.00  0.00     0.006 C 
HETATM    7  C9  UNL     1       0.560   3.149   0.334  1.00  0.00     0.006 C 
HETATM    8  C10 UNL     1       0.158   2.462  -0.931  1.00  0.00    -0.000 C 
HETATM    9  C11 UNL     1       0.675   3.145  -2.146  1.00  0.00     0.009 C 
HETATM   10  C12 UNL     1       2.057   3.760  -1.971  1.00  0.00     0.012 C 
HETATM   11  C13 UNL     1       0.621   2.356  -3.412  1.00  0.00     0.088 C 
HETATM   12  C19 UNL     1       0.779   0.891  -3.284  1.00  0.00     0.026 C 
HETATM   13  C20 UNL     1       1.300   0.457  -1.935  1.00  0.00     0.012 C 
HETATM   14  C21 UNL     1       0.359   0.963  -0.895  1.00  0.00    -0.036 C 
HETATM   15  C22 UNL     1      -0.959   0.210  -1.180  1.00  0.00     0.016 C 
HETATM   16  C23 UNL     1       0.701   0.600   0.516  1.00  0.00    -0.002 C 
HETATM   17  C24 UNL     1       0.749  -0.852   0.815  1.00  0.00     0.007 C 
HETATM   18  C25 UNL     1       0.626  -0.998   2.334  1.00  0.00     0.013 C 
HETATM   19  C26 UNL     1       1.539  -0.065   3.078  1.00  0.00    -0.002 C 
HETATM   20  C27 UNL     1       0.864   0.932   3.932  1.00  0.00     0.019 C 
ENDROOT
BRANCH  11  21
HETATM   21  N1  UNL     1      -0.583   2.598  -4.205  1.00  0.00    -0.356 N 
HETATM   22  C14 UNL     1      -0.551   2.676  -5.616  1.00  0.00     0.222 C 
HETATM   23  O3  UNL     1       0.554   2.534  -6.191  1.00  0.00    -0.273 OA
ATOM     24  H1  UNL     1      -1.475   2.715  -3.723  1.00  0.00     0.162 HD
BRANCH  22  25
HETATM   25  C15 UNL     1      -1.776   2.918  -6.404  1.00  0.00     0.078 C 
HETATM   26  C16 UNL     1      -1.629   4.245  -7.116  1.00  0.00     0.020 C 
BRANCH  25  27
HETATM   27  C17 UNL     1      -3.026   2.834  -5.564  1.00  0.00     0.059 C 
BRANCH  27  28
HETATM   28  C18 UNL     1      -3.761   1.620  -5.989  1.00  0.00     0.080 C 
HETATM   29  N2  UNL     1      -3.920   0.638  -5.179  1.00  0.00    -0.322 N 
ATOM     30  H2  UNL     1      -4.432  -0.177  -5.517  1.00  0.00     0.185 HD
BRANCH  29  31
HETATM   31  N3  UNL     1      -3.441   0.606  -3.873  1.00  0.00    -0.346 N 
ATOM     32  H32 UNL     1      -2.837   1.377  -3.589  1.00  0.00     0.176 HD
ATOM     33  H31 UNL     1      -3.654  -0.126  -3.195  1.00  0.00     0.176 HD
ENDBRANCH  29  31
ENDBRANCH  27  28
ENDBRANCH  25  27
ENDBRANCH  22  25
ENDBRANCH  11  21
BRANCH   1  34
HETATM   34  C2  UNL     1       2.004  -1.367   5.185  1.00  0.00     0.158 C 
HETATM   35  C1  UNL     1       1.138  -2.580   5.175  1.00  0.00     0.094 C 
HETATM   36  O1  UNL     1       2.241  -0.865   6.258  1.00  0.00    -0.295 OA
ENDBRANCH   1  34
BRANCH   1  37
HETATM   37  O2  UNL     1       3.052  -1.865   3.138  1.00  0.00    -0.381 OA
ATOM     38  H2  UNL     1       3.643  -2.404   3.652  1.00  0.00     0.211 HD
ENDBRANCH   1  37
TORSDOF 7
ENDMDL
