MODEL 1
REMARK VINA RESULT: -6.849074473      0.000      0.000
REMARK  15 active torsions:
REMARK  status: ('A' for Active; 'I' for Inactive)
REMARK    1  A    between atoms: C2_2  and  C3_3 
REMARK    2  A    between atoms: C3_3  and  N1_4 
REMARK    3  A    between atoms: N1_4  and  C4_6 
REMARK    4  A    between atoms: C5_9  and  N3_10 
REMARK    5  A    between atoms: N3_10  and  C6_12 
REMARK    6  A    between atoms: C6_12  and  C7_13 
REMARK    7  A    between atoms: C7_13  and  N4_14 
REMARK    8  A    between atoms: C8_20  and  N6_21 
REMARK    9  A    between atoms: N6_21  and  C9_23 
REMARK   10  A    between atoms: C9_23  and  C10_24 
REMARK   11  A    between atoms: C10_24  and  C11_25 
REMARK   12  A    between atoms: C11_25  and  N7_26 
REMARK   13  A    between atoms: N7_26  and  C12_29 
REMARK   14  A    between atoms: C12_29  and  C13_30 
REMARK   15  A    between atoms: C13_30  and  O1_31 
ROOT
HETATM    1  C4  UNL     1      22.687  45.550  12.570  1.00  0.00     0.707 A 
HETATM    2  N2  UNL     1      23.876  44.912  12.660  1.00  0.00    -0.022 N 
ATOM      3  H2  UNL     1      24.487  44.878  11.844  1.00  0.00     0.203 HD
HETATM    4  C5  UNL     1      24.268  44.323  13.797  1.00  0.00     0.707 A 
HETATM    5  N5  UNL     1      23.438  44.378  14.875  1.00  0.00    -0.022 N 
ATOM      6  H5  UNL     1      23.728  43.931  15.745  1.00  0.00     0.203 HD
HETATM    7  C8  UNL     1      22.243  45.004  14.831  1.00  0.00     0.707 A 
HETATM    8  N8  UNL     1      21.911  45.573  13.662  1.00  0.00    -0.022 N 
ATOM      9  H8  UNL     1      21.013  46.051  13.601  1.00  0.00     0.203 HD
ENDROOT
BRANCH   7  10
HETATM   10  N6  UNL     1      21.453  45.060  15.848  1.00  0.00    -0.225 N 
ATOM     11  H6  UNL     1      20.595  45.612  15.821  1.00  0.00     0.177 HD
BRANCH  10  12
HETATM   12  C9  UNL     1      21.829  44.310  17.032  1.00  0.00     0.139 C 
BRANCH  12  13
HETATM   13  C10 UNL     1      20.535  43.728  17.606  1.00  0.00     0.048 C 
BRANCH  13  14
HETATM   14  C11 UNL     1      20.051  44.503  18.782  1.00  0.00     0.234 C 
BRANCH  14  15
HETATM   15  N7  UNL     1      18.754  44.038  19.179  1.00  0.00    -0.073 N 
ATOM     16  H72 UNL     1      18.701  43.874  20.185  1.00  0.00     0.277 HD
ATOM     17  H71 UNL     1      18.049  44.773  19.108  1.00  0.00     0.277 HD
BRANCH  15  18
HETATM   18  C12 UNL     1      18.386  42.869  18.426  1.00  0.00     0.258 C 
BRANCH  18  19
HETATM   19  C13 UNL     1      16.949  42.439  18.771  1.00  0.00     0.191 C 
BRANCH  19  20
HETATM   20  O1  UNL     1      16.999  41.315  19.603  1.00  0.00    -0.399 OA
ATOM     21  H1  UNL     1      17.574  41.500  20.337  1.00  0.00     0.209 HD
ENDBRANCH  19  20
ENDBRANCH  18  19
ENDBRANCH  15  18
ENDBRANCH  14  15
ENDBRANCH  13  14
ENDBRANCH  12  13
ENDBRANCH  10  12
ENDBRANCH   7  10
BRANCH   4  22
HETATM   22  N3  UNL     1      25.382  43.711  13.930  1.00  0.00    -0.223 N 
ATOM     23  H3  UNL     1      25.906  43.510  13.078  1.00  0.00     0.177 HD
BRANCH  22  24
HETATM   24  C6  UNL     1      25.962  43.281  15.165  1.00  0.00     0.165 C 
BRANCH  24  25
HETATM   25  C7  UNL     1      26.927  44.354  15.664  1.00  0.00     0.249 C 
BRANCH  25  26
HETATM   26  N4  UNL     1      26.497  44.779  16.987  1.00  0.00    -0.078 N 
ATOM     27  H43 UNL     1      25.494  44.664  17.129  1.00  0.00     0.274 HD
ATOM     28  H42 UNL     1      26.814  44.148  17.724  1.00  0.00     0.274 HD
ATOM     29  H41 UNL     1      26.806  45.739  17.133  1.00  0.00     0.274 HD
ENDBRANCH  25  26
ENDBRANCH  24  25
ENDBRANCH  22  24
ENDBRANCH   4  22
BRANCH   1  30
HETATM   30  N1  UNL     1      22.395  46.082  11.453  1.00  0.00    -0.225 N 
ATOM     31  H1  UNL     1      21.585  45.695  10.968  1.00  0.00     0.177 HD
BRANCH  30  32
HETATM   32  C3  UNL     1      23.066  47.159  10.797  1.00  0.00     0.137 C 
BRANCH  32  33
HETATM   33  C2  UNL     1      22.453  47.502   9.446  1.00  0.00     0.016 C 
HETATM   34  C1  UNL     1      21.417  48.576   9.553  1.00  0.00     0.006 C 
ENDBRANCH  32  33
ENDBRANCH  30  32
ENDBRANCH   1  30
TORSDOF 15
ENDMDL
MODEL 2
REMARK VINA RESULT: -6.790953656      1.540      4.448
REMARK  15 active torsions:
REMARK  status: ('A' for Active; 'I' for Inactive)
REMARK    1  A    between atoms: C2_2  and  C3_3 
REMARK    2  A    between atoms: C3_3  and  N1_4 
REMARK    3  A    between atoms: N1_4  and  C4_6 
REMARK    4  A    between atoms: C5_9  and  N3_10 
REMARK    5  A    between atoms: N3_10  and  C6_12 
REMARK    6  A    between atoms: C6_12  and  C7_13 
REMARK    7  A    between atoms: C7_13  and  N4_14 
REMARK    8  A    between atoms: C8_20  and  N6_21 
REMARK    9  A    between atoms: N6_21  and  C9_23 
REMARK   10  A    between atoms: C9_23  and  C10_24 
REMARK   11  A    between atoms: C10_24  and  C11_25 
REMARK   12  A    between atoms: C11_25  and  N7_26 
REMARK   13  A    between atoms: N7_26  and  C12_29 
REMARK   14  A    between atoms: C12_29  and  C13_30 
REMARK   15  A    between atoms: C13_30  and  O1_31 
ROOT
HETATM    1  C4  UNL     1      24.205  43.402  15.972  1.00  0.00     0.707 A 
HETATM    2  N2  UNL     1      23.848  44.154  14.906  1.00  0.00    -0.022 N 
ATOM      3  H2  UNL     1      24.461  44.186  14.091  1.00  0.00     0.203 HD
HETATM    4  C5  UNL     1      22.710  44.857  14.898  1.00  0.00     0.707 A 
HETATM    5  N5  UNL     1      21.905  44.802  15.996  1.00  0.00    -0.022 N 
ATOM      6  H5  UNL     1      21.036  45.336  15.999  1.00  0.00     0.203 HD
HETATM    7  C8  UNL     1      22.221  44.064  17.081  1.00  0.00     0.707 A 
HETATM    8  N8  UNL     1      23.376  43.385  17.024  1.00  0.00    -0.022 N 
ATOM      9  H8  UNL     1      23.639  42.820  17.832  1.00  0.00     0.203 HD
ENDROOT
BRANCH   7  10
HETATM   10  N6  UNL     1      21.464  44.008  18.123  1.00  0.00    -0.225 N 
ATOM     11  H6  UNL     1      21.232  43.115  18.560  1.00  0.00     0.177 HD
BRANCH  10  12
HETATM   12  C9  UNL     1      20.954  45.259  18.651  1.00  0.00     0.139 C 
BRANCH  12  13
HETATM   13  C10 UNL     1      19.596  44.943  19.281  1.00  0.00     0.048 C 
BRANCH  13  14
HETATM   14  C11 UNL     1      19.082  43.611  18.854  1.00  0.00     0.234 C 
BRANCH  14  15
HETATM   15  N7  UNL     1      17.849  43.765  18.137  1.00  0.00    -0.073 N 
ATOM     16  H72 UNL     1      17.415  44.669  18.319  1.00  0.00     0.277 HD
ATOM     17  H71 UNL     1      18.005  43.871  17.134  1.00  0.00     0.277 HD
BRANCH  15  18
HETATM   18  C12 UNL     1      16.958  42.674  18.428  1.00  0.00     0.258 C 
BRANCH  18  19
HETATM   19  C13 UNL     1      17.756  41.418  18.817  1.00  0.00     0.191 C 
BRANCH  19  20
HETATM   20  O1  UNL     1      17.159  40.829  19.938  1.00  0.00    -0.399 OA
ATOM     21  H1  UNL     1      17.436  39.922  19.994  1.00  0.00     0.209 HD
ENDBRANCH  19  20
ENDBRANCH  18  19
ENDBRANCH  15  18
ENDBRANCH  14  15
ENDBRANCH  13  14
ENDBRANCH  12  13
ENDBRANCH  10  12
ENDBRANCH   7  10
BRANCH   4  22
HETATM   22  N3  UNL     1      22.330  45.580  13.914  1.00  0.00    -0.223 N 
ATOM     23  H3  UNL     1      21.931  46.491  14.135  1.00  0.00     0.177 HD
BRANCH  22  24
HETATM   24  C6  UNL     1      22.416  45.225  12.530  1.00  0.00     0.165 C 
BRANCH  24  25
HETATM   25  C7  UNL     1      23.087  46.363  11.764  1.00  0.00     0.249 C 
BRANCH  25  26
HETATM   26  N4  UNL     1      22.234  46.728  10.644  1.00  0.00    -0.078 N 
ATOM     27  H43 UNL     1      22.765  46.942   9.800  1.00  0.00     0.274 HD
ATOM     28  H42 UNL     1      21.706  45.935  10.278  1.00  0.00     0.274 HD
ATOM     29  H41 UNL     1      21.632  47.498  10.934  1.00  0.00     0.274 HD
ENDBRANCH  25  26
ENDBRANCH  24  25
ENDBRANCH  22  24
ENDBRANCH   4  22
BRANCH   1  30
HETATM   30  N1  UNL     1      25.303  42.765  15.895  1.00  0.00    -0.225 N 
ATOM     31  H1  UNL     1      25.369  41.913  16.453  1.00  0.00     0.177 HD
BRANCH  30  32
HETATM   32  C3  UNL     1      26.454  43.101  15.120  1.00  0.00     0.137 C 
BRANCH  32  33
HETATM   33  C2  UNL     1      26.728  42.102  14.004  1.00  0.00     0.016 C 
HETATM   34  C1  UNL     1      26.354  42.641  12.660  1.00  0.00     0.006 C 
ENDBRANCH  32  33
ENDBRANCH  30  32
ENDBRANCH   1  30
TORSDOF 15
ENDMDL
MODEL 3
REMARK VINA RESULT: -6.788753072      2.212      5.148
REMARK  15 active torsions:
REMARK  status: ('A' for Active; 'I' for Inactive)
REMARK    1  A    between atoms: C2_2  and  C3_3 
REMARK    2  A    between atoms: C3_3  and  N1_4 
REMARK    3  A    between atoms: N1_4  and  C4_6 
REMARK    4  A    between atoms: C5_9  and  N3_10 
REMARK    5  A    between atoms: N3_10  and  C6_12 
REMARK    6  A    between atoms: C6_12  and  C7_13 
REMARK    7  A    between atoms: C7_13  and  N4_14 
REMARK    8  A    between atoms: C8_20  and  N6_21 
REMARK    9  A    between atoms: N6_21  and  C9_23 
REMARK   10  A    between atoms: C9_23  and  C10_24 
REMARK   11  A    between atoms: C10_24  and  C11_25 
REMARK   12  A    between atoms: C11_25  and  N7_26 
REMARK   13  A    between atoms: N7_26  and  C12_29 
REMARK   14  A    between atoms: C12_29  and  C13_30 
REMARK   15  A    between atoms: C13_30  and  O1_31 
ROOT
HETATM    1  C4  UNL     1      24.822  44.285  12.672  1.00  0.00     0.707 A 
HETATM    2  N2  UNL     1      24.146  44.966  11.719  1.00  0.00    -0.022 N 
ATOM      3  H2  UNL     1      24.464  44.917  10.751  1.00  0.00     0.203 HD
HETATM    4  C5  UNL     1      23.069  45.702  12.018  1.00  0.00     0.707 A 
HETATM    5  N5  UNL     1      22.660  45.756  13.317  1.00  0.00    -0.022 N 
ATOM      6  H5  UNL     1      21.841  46.316  13.554  1.00  0.00     0.203 HD
HETATM    7  C8  UNL     1      23.304  45.092  14.300  1.00  0.00     0.707 A 
HETATM    8  N8  UNL     1      24.375  44.374  13.932  1.00  0.00    -0.022 N 
ATOM      9  H8  UNL     1      24.881  43.864  14.656  1.00  0.00     0.203 HD
ENDROOT
BRANCH   7  10
HETATM   10  N6  UNL     1      22.922  45.139  15.530  1.00  0.00    -0.225 N 
ATOM     11  H6  UNL     1      22.016  44.767  15.817  1.00  0.00     0.177 HD
BRANCH  10  12
HETATM   12  C9  UNL     1      23.828  45.738  16.493  1.00  0.00     0.139 C 
BRANCH  12  13
HETATM   13  C10 UNL     1      22.958  46.278  17.629  1.00  0.00     0.048 C 
BRANCH  13  14
HETATM   14  C11 UNL     1      21.758  46.998  17.117  1.00  0.00     0.234 C 
BRANCH  14  15
HETATM   15  N7  UNL     1      20.586  46.562  17.819  1.00  0.00    -0.073 N 
ATOM     16  H72 UNL     1      20.100  47.341  18.264  1.00  0.00     0.277 HD
ATOM     17  H71 UNL     1      19.847  46.269  17.178  1.00  0.00     0.277 HD
BRANCH  15  18
HETATM   18  C12 UNL     1      20.918  45.528  18.762  1.00  0.00     0.258 C 
BRANCH  18  19
HETATM   19  C13 UNL     1      19.641  44.839  19.274  1.00  0.00     0.191 C 
BRANCH  19  20
HETATM   20  O1  UNL     1      19.190  45.510  20.416  1.00  0.00    -0.399 OA
ATOM     21  H1  UNL     1      18.283  45.276  20.573  1.00  0.00     0.209 HD
ENDBRANCH  19  20
ENDBRANCH  18  19
ENDBRANCH  15  18
ENDBRANCH  14  15
ENDBRANCH  13  14
ENDBRANCH  12  13
ENDBRANCH  10  12
ENDBRANCH   7  10
BRANCH   4  22
HETATM   22  N3  UNL     1      22.398  46.360  11.152  1.00  0.00    -0.223 N 
ATOM     23  H3  UNL     1      21.427  46.084  11.010  1.00  0.00     0.177 HD
BRANCH  22  24
HETATM   24  C6  UNL     1      22.885  47.449  10.363  1.00  0.00     0.165 C 
BRANCH  24  25
HETATM   25  C7  UNL     1      21.973  47.637   9.152  1.00  0.00     0.249 C 
BRANCH  25  26
HETATM   26  N4  UNL     1      22.553  46.922   8.026  1.00  0.00    -0.078 N 
ATOM     27  H43 UNL     1      22.147  47.203   7.133  1.00  0.00     0.274 HD
ATOM     28  H42 UNL     1      23.515  47.204   7.835  1.00  0.00     0.274 HD
ATOM     29  H41 UNL     1      22.464  45.921   8.199  1.00  0.00     0.274 HD
ENDBRANCH  25  26
ENDBRANCH  24  25
ENDBRANCH  22  24
ENDBRANCH   4  22
BRANCH   1  30
HETATM   30  N1  UNL     1      25.833  43.610  12.300  1.00  0.00    -0.225 N 
ATOM     31  H1  UNL     1      25.949  43.490  11.293  1.00  0.00     0.177 HD
BRANCH  30  32
HETATM   32  C3  UNL     1      26.827  42.999  13.125  1.00  0.00     0.137 C 
BRANCH  32  33
HETATM   33  C2  UNL     1      26.955  41.502  12.885  1.00  0.00     0.016 C 
HETATM   34  C1  UNL     1      26.550  41.115  11.498  1.00  0.00     0.006 C 
ENDBRANCH  32  33
ENDBRANCH  30  32
ENDBRANCH   1  30
TORSDOF 15
ENDMDL
MODEL 4
REMARK VINA RESULT: -6.785297808      1.370      4.643
REMARK  15 active torsions:
REMARK  status: ('A' for Active; 'I' for Inactive)
REMARK    1  A    between atoms: C2_2  and  C3_3 
REMARK    2  A    between atoms: C3_3  and  N1_4 
REMARK    3  A    between atoms: N1_4  and  C4_6 
REMARK    4  A    between atoms: C5_9  and  N3_10 
REMARK    5  A    between atoms: N3_10  and  C6_12 
REMARK    6  A    between atoms: C6_12  and  C7_13 
REMARK    7  A    between atoms: C7_13  and  N4_14 
REMARK    8  A    between atoms: C8_20  and  N6_21 
REMARK    9  A    between atoms: N6_21  and  C9_23 
REMARK   10  A    between atoms: C9_23  and  C10_24 
REMARK   11  A    between atoms: C10_24  and  C11_25 
REMARK   12  A    between atoms: C11_25  and  N7_26 
REMARK   13  A    between atoms: N7_26  and  C12_29 
REMARK   14  A    between atoms: C12_29  and  C13_30 
REMARK   15  A    between atoms: C13_30  and  O1_31 
ROOT
HETATM    1  C4  UNL     1      24.238  44.108  14.284  1.00  0.00     0.707 A 
HETATM    2  N2  UNL     1      23.938  44.652  13.083  1.00  0.00    -0.022 N 
ATOM      3  H2  UNL     1      24.585  44.529  12.304  1.00  0.00     0.203 HD
HETATM    4  C5  UNL     1      22.810  45.347  12.894  1.00  0.00     0.707 A 
HETATM    5  N5  UNL     1      21.959  45.502  13.947  1.00  0.00    -0.022 N 
ATOM      6  H5  UNL     1      21.098  46.031  13.812  1.00  0.00     0.203 HD
HETATM    7  C8  UNL     1      22.218  44.976  15.162  1.00  0.00     0.707 A 
HETATM    8  N8  UNL     1      23.365  44.292  15.283  1.00  0.00    -0.022 N 
ATOM      9  H8  UNL     1      23.586  43.885  16.192  1.00  0.00     0.203 HD
ENDROOT
BRANCH   7  10
HETATM   10  N6  UNL     1      21.417  45.118  16.162  1.00  0.00    -0.225 N 
ATOM     11  H6  UNL     1      20.799  45.927  16.234  1.00  0.00     0.177 HD
BRANCH  10  12
HETATM   12  C9  UNL     1      21.427  44.086  17.182  1.00  0.00     0.139 C 
BRANCH  12  13
HETATM   13  C10 UNL     1      21.062  44.774  18.499  1.00  0.00     0.048 C 
BRANCH  13  14
HETATM   14  C11 UNL     1      19.666  44.467  18.918  1.00  0.00     0.234 C 
BRANCH  14  15
HETATM   15  N7  UNL     1      19.552  43.085  19.281  1.00  0.00    -0.073 N 
ATOM     16  H72 UNL     1      20.417  42.574  19.104  1.00  0.00     0.277 HD
ATOM     17  H71 UNL     1      19.508  42.960  20.293  1.00  0.00     0.277 HD
BRANCH  15  18
HETATM   18  C12 UNL     1      18.427  42.480  18.618  1.00  0.00     0.258 C 
BRANCH  18  19
HETATM   19  C13 UNL     1      18.845  41.159  17.951  1.00  0.00     0.191 C 
BRANCH  19  20
HETATM   20  O1  UNL     1      19.992  40.672  18.587  1.00  0.00    -0.399 OA
ATOM     21  H1  UNL     1      20.057  41.065  19.450  1.00  0.00     0.209 HD
ENDBRANCH  19  20
ENDBRANCH  18  19
ENDBRANCH  15  18
ENDBRANCH  14  15
ENDBRANCH  13  14
ENDBRANCH  12  13
ENDBRANCH  10  12
ENDBRANCH   7  10
BRANCH   4  22
HETATM   22  N3  UNL     1      22.483  45.877  11.777  1.00  0.00    -0.223 N 
ATOM     23  H3  UNL     1      21.561  45.645  11.406  1.00  0.00     0.177 HD
BRANCH  22  24
HETATM   24  C6  UNL     1      23.291  46.765  11.000  1.00  0.00     0.165 C 
BRANCH  24  25
HETATM   25  C7  UNL     1      22.384  47.653  10.151  1.00  0.00     0.249 C 
BRANCH  25  26
HETATM   26  N4  UNL     1      21.363  46.816   9.541  1.00  0.00    -0.078 N 
ATOM     27  H43 UNL     1      20.418  47.104   9.793  1.00  0.00     0.274 HD
ATOM     28  H42 UNL     1      21.288  46.959   8.533  1.00  0.00     0.274 HD
ATOM     29  H41 UNL     1      21.554  45.845   9.785  1.00  0.00     0.274 HD
ENDBRANCH  25  26
ENDBRANCH  24  25
ENDBRANCH  22  24
ENDBRANCH   4  22
BRANCH   1  30
HETATM   30  N1  UNL     1      25.330  43.462  14.375  1.00  0.00    -0.225 N 
ATOM     31  H1  UNL     1      25.485  42.962  15.250  1.00  0.00     0.177 HD
BRANCH  30  32
HETATM   32  C3  UNL     1      26.364  43.355  13.396  1.00  0.00     0.137 C 
BRANCH  32  33
HETATM   33  C2  UNL     1      26.738  41.912  13.087  1.00  0.00     0.016 C 
HETATM   34  C1  UNL     1      27.030  41.127  14.326  1.00  0.00     0.006 C 
ENDBRANCH  32  33
ENDBRANCH  30  32
ENDBRANCH   1  30
TORSDOF 15
ENDMDL
MODEL 5
REMARK VINA RESULT: -6.767459256      2.428      5.644
REMARK  15 active torsions:
REMARK  status: ('A' for Active; 'I' for Inactive)
REMARK    1  A    between atoms: C2_2  and  C3_3 
REMARK    2  A    between atoms: C3_3  and  N1_4 
REMARK    3  A    between atoms: N1_4  and  C4_6 
REMARK    4  A    between atoms: C5_9  and  N3_10 
REMARK    5  A    between atoms: N3_10  and  C6_12 
REMARK    6  A    between atoms: C6_12  and  C7_13 
REMARK    7  A    between atoms: C7_13  and  N4_14 
REMARK    8  A    between atoms: C8_20  and  N6_21 
REMARK    9  A    between atoms: N6_21  and  C9_23 
REMARK   10  A    between atoms: C9_23  and  C10_24 
REMARK   11  A    between atoms: C10_24  and  C11_25 
REMARK   12  A    between atoms: C11_25  and  N7_26 
REMARK   13  A    between atoms: N7_26  and  C12_29 
REMARK   14  A    between atoms: C12_29  and  C13_30 
REMARK   15  A    between atoms: C13_30  and  O1_31 
ROOT
HETATM    1  C4  UNL     1      26.499  42.669  14.840  1.00  0.00     0.707 A 
HETATM    2  N2  UNL     1      25.843  43.006  13.706  1.00  0.00    -0.022 N 
ATOM      3  H2  UNL     1      25.909  42.395  12.892  1.00  0.00     0.203 HD
HETATM    4  C5  UNL     1      25.111  44.124  13.629  1.00  0.00     0.707 A 
HETATM    5  N5  UNL     1      25.037  44.928  14.727  1.00  0.00    -0.022 N 
ATOM      6  H5  UNL     1      24.482  45.782  14.677  1.00  0.00     0.203 HD
HETATM    7  C8  UNL     1      25.674  44.630  15.879  1.00  0.00     0.707 A 
HETATM    8  N8  UNL     1      26.391  43.497  15.888  1.00  0.00    -0.022 N 
ATOM      9  H8  UNL     1      26.884  43.250  16.746  1.00  0.00     0.203 HD
ENDROOT
BRANCH   7  10
HETATM   10  N6  UNL     1      25.608  45.387  16.921  1.00  0.00    -0.225 N 
ATOM     11  H6  UNL     1      26.061  46.301  16.941  1.00  0.00     0.177 HD
BRANCH  10  12
HETATM   12  C9  UNL     1      24.866  44.890  18.065  1.00  0.00     0.139 C 
BRANCH  12  13
HETATM   13  C10 UNL     1      23.445  45.443  17.934  1.00  0.00     0.048 C 
BRANCH  13  14
HETATM   14  C11 UNL     1      22.954  46.021  19.216  1.00  0.00     0.234 C 
BRANCH  14  15
HETATM   15  N7  UNL     1      21.520  46.048  19.228  1.00  0.00    -0.073 N 
ATOM     16  H72 UNL     1      21.153  46.311  20.142  1.00  0.00     0.277 HD
ATOM     17  H71 UNL     1      21.150  46.829  18.686  1.00  0.00     0.277 HD
BRANCH  15  18
HETATM   18  C12 UNL     1      20.989  44.787  18.781  1.00  0.00     0.258 C 
BRANCH  18  19
HETATM   19  C13 UNL     1      19.512  44.653  19.188  1.00  0.00     0.191 C 
BRANCH  19  20
HETATM   20  O1  UNL     1      19.262  45.497  20.275  1.00  0.00    -0.399 OA
ATOM     21  H1  UNL     1      19.481  45.038  21.078  1.00  0.00     0.209 HD
ENDBRANCH  19  20
ENDBRANCH  18  19
ENDBRANCH  15  18
ENDBRANCH  14  15
ENDBRANCH  13  14
ENDBRANCH  12  13
ENDBRANCH  10  12
ENDBRANCH   7  10
BRANCH   4  22
HETATM   22  N3  UNL     1      24.473  44.482  12.581  1.00  0.00    -0.223 N 
ATOM     23  H3  UNL     1      24.856  44.190  11.682  1.00  0.00     0.177 HD
BRANCH  22  24
HETATM   24  C6  UNL     1      23.269  45.255  12.554  1.00  0.00     0.165 C 
BRANCH  24  25
HETATM   25  C7  UNL     1      23.459  46.442  11.612  1.00  0.00     0.249 C 
BRANCH  25  26
HETATM   26  N4  UNL     1      22.271  46.562  10.781  1.00  0.00    -0.078 N 
ATOM     27  H43 UNL     1      22.164  47.494  10.383  1.00  0.00     0.274 HD
ATOM     28  H42 UNL     1      22.350  46.045   9.905  1.00  0.00     0.274 HD
ATOM     29  H41 UNL     1      21.462  46.277  11.333  1.00  0.00     0.274 HD
ENDBRANCH  25  26
ENDBRANCH  24  25
ENDBRANCH  22  24
ENDBRANCH   4  22
BRANCH   1  30
HETATM   30  N1  UNL     1      27.171  41.590  14.826  1.00  0.00    -0.225 N 
ATOM     31  H1  UNL     1      27.783  41.430  15.626  1.00  0.00     0.177 HD
BRANCH  30  32
HETATM   32  C3  UNL     1      27.169  40.573  13.822  1.00  0.00     0.137 C 
BRANCH  32  33
HETATM   33  C2  UNL     1      26.736  39.216  14.357  1.00  0.00     0.016 C 
HETATM   34  C1  UNL     1      27.028  39.064  15.816  1.00  0.00     0.006 C 
ENDBRANCH  32  33
ENDBRANCH  30  32
ENDBRANCH   1  30
TORSDOF 15
ENDMDL
