MODEL 1
REMARK VINA RESULT: -6.999527431      0.000      0.000
REMARK  7 active torsions:
REMARK  status: ('A' for Active; 'I' for Inactive)
REMARK    1  A    between atoms: C2_2  and  N1_3 
REMARK    2  A    between atoms: C2_2  and  N2_7 
REMARK    3  A    between atoms: N2_7  and  C3_8 
REMARK    4  A    between atoms: N2_7  and  N6_16 
REMARK    5  A    between atoms: C3_8  and  N3_9 
REMARK    6  A    between atoms: N6_16  and  O1_17 
REMARK    7  A    between atoms: N7_19  and  N8_21 
ROOT
HETATM    1  N2  UNL     1      22.302  45.799  17.880  1.00  0.00    -0.235 N 
ENDROOT
BRANCH   1   2
HETATM    2  C2  UNL     1      21.902  46.489  16.675  1.00  0.00     0.300 C 
HETATM    3  C1  UNL     1      23.187  46.973  16.007  1.00  0.00     0.065 C 
BRANCH   2   4
HETATM    4  N1  UNL     1      21.029  47.606  16.934  1.00  0.00    -0.057 N 
ATOM      5  H13 UNL     1      21.467  48.301  17.539  1.00  0.00     0.276 HD
ATOM      6  H12 UNL     1      20.899  48.189  16.107  1.00  0.00     0.276 HD
ATOM      7  H11 UNL     1      20.141  47.276  17.313  1.00  0.00     0.276 HD
ENDBRANCH   2   4
ENDBRANCH   1   2
BRANCH   1   8
HETATM    8  C3  UNL     1      22.217  44.358  17.885  1.00  0.00     0.298 C 
BRANCH   8   9
HETATM    9  N3  UNL     1      20.887  43.897  18.254  1.00  0.00    -0.267 N 
HETATM   10  C4  UNL     1      20.005  44.457  19.094  1.00  0.00     0.203 A 
HETATM   11  N4  UNL     1      18.879  43.687  19.145  1.00  0.00    -0.346 N 
HETATM   12  C5  UNL     1      19.088  42.645  18.320  1.00  0.00     0.198 A 
ATOM     13  H4  UNL     1      18.043  43.867  19.700  1.00  0.00     0.167 HD
HETATM   14  N5  UNL     1      20.310  42.800  17.797  1.00  0.00    -0.292 N 
ATOM     15  H5  UNL     1      20.739  42.155  17.133  1.00  0.00     0.188 HD
ENDBRANCH   8   9
ENDBRANCH   1   8
BRANCH   1  16
HETATM   16  N6  UNL     1      22.744  46.541  18.960  1.00  0.00    -0.079 N 
HETATM   17  N7  UNL     1      23.918  46.372  19.400  1.00  0.00    -0.207 N 
ATOM     18  H7  UNL     1      24.525  45.687  18.949  1.00  0.00     0.212 HD
BRANCH  16  19
HETATM   19  O1  UNL     1      21.961  47.482  19.603  1.00  0.00    -0.252 OA
ATOM     20  H1  UNL     1      21.797  48.350  19.251  1.00  0.00     0.248 HD
ENDBRANCH  16  19
BRANCH  17  21
HETATM   21  N8  UNL     1      24.403  47.098  20.485  1.00  0.00    -0.328 N 
ATOM     22  H82 UNL     1      23.800  47.812  20.894  1.00  0.00     0.178 HD
ATOM     23  H81 UNL     1      25.333  46.929  20.869  1.00  0.00     0.178 HD
ENDBRANCH  17  21
ENDBRANCH   1  16
TORSDOF 7
ENDMDL
MODEL 2
REMARK VINA RESULT: -6.536236799      2.235      4.221
REMARK  7 active torsions:
REMARK  status: ('A' for Active; 'I' for Inactive)
REMARK    1  A    between atoms: C2_2  and  N1_3 
REMARK    2  A    between atoms: C2_2  and  N2_7 
REMARK    3  A    between atoms: N2_7  and  C3_8 
REMARK    4  A    between atoms: N2_7  and  N6_16 
REMARK    5  A    between atoms: C3_8  and  N3_9 
REMARK    6  A    between atoms: N6_16  and  O1_17 
REMARK    7  A    between atoms: N7_19  and  N8_21 
ROOT
HETATM    1  N2  UNL     1      21.442  45.734  17.963  1.00  0.00    -0.235 N 
ENDROOT
BRANCH   1   2
HETATM    2  C2  UNL     1      21.370  47.131  18.321  1.00  0.00     0.300 C 
HETATM    3  C1  UNL     1      21.868  47.914  17.108  1.00  0.00     0.065 C 
BRANCH   2   4
HETATM    4  N1  UNL     1      22.167  47.454  19.478  1.00  0.00    -0.057 N 
ATOM      5  H13 UNL     1      23.113  47.079  19.407  1.00  0.00     0.276 HD
ATOM      6  H12 UNL     1      22.403  48.446  19.515  1.00  0.00     0.276 HD
ATOM      7  H11 UNL     1      21.694  47.141  20.326  1.00  0.00     0.276 HD
ENDBRANCH   2   4
ENDBRANCH   1   2
BRANCH   1   8
HETATM    8  C3  UNL     1      22.242  45.377  16.815  1.00  0.00     0.298 C 
BRANCH   8   9
HETATM    9  N3  UNL     1      23.535  44.835  17.205  1.00  0.00    -0.267 N 
HETATM   10  C4  UNL     1      23.971  43.569  17.139  1.00  0.00     0.203 A 
HETATM   11  N4  UNL     1      25.250  43.508  17.611  1.00  0.00    -0.346 N 
HETATM   12  C5  UNL     1      25.589  44.759  17.969  1.00  0.00     0.198 A 
ATOM     13  H4  UNL     1      25.835  42.675  17.680  1.00  0.00     0.167 HD
HETATM   14  N5  UNL     1      24.531  45.538  17.712  1.00  0.00    -0.292 N 
ATOM     15  H5  UNL     1      24.499  46.543  17.885  1.00  0.00     0.188 HD
ENDBRANCH   8   9
ENDBRANCH   1   8
BRANCH   1  16
HETATM   16  N6  UNL     1      20.749  44.811  18.726  1.00  0.00    -0.079 N 
HETATM   17  N7  UNL     1      19.563  44.502  18.414  1.00  0.00    -0.207 N 
ATOM     18  H7  UNL     1      19.133  44.939  17.599  1.00  0.00     0.212 HD
BRANCH  16  19
HETATM   19  O1  UNL     1      21.290  44.190  19.837  1.00  0.00    -0.252 OA
ATOM     20  H1  UNL     1      22.211  44.241  20.065  1.00  0.00     0.248 HD
ENDBRANCH  16  19
BRANCH  17  21
HETATM   21  N8  UNL     1      18.831  43.579  19.155  1.00  0.00    -0.328 N 
ATOM     22  H82 UNL     1      18.054  43.923  19.720  1.00  0.00     0.178 HD
ATOM     23  H81 UNL     1      19.054  42.583  19.142  1.00  0.00     0.178 HD
ENDBRANCH  17  21
ENDBRANCH   1  16
TORSDOF 7
ENDMDL
MODEL 3
REMARK VINA RESULT: -6.507865601      1.628      3.912
REMARK  7 active torsions:
REMARK  status: ('A' for Active; 'I' for Inactive)
REMARK    1  A    between atoms: C2_2  and  N1_3 
REMARK    2  A    between atoms: C2_2  and  N2_7 
REMARK    3  A    between atoms: N2_7  and  C3_8 
REMARK    4  A    between atoms: N2_7  and  N6_16 
REMARK    5  A    between atoms: C3_8  and  N3_9 
REMARK    6  A    between atoms: N6_16  and  O1_17 
REMARK    7  A    between atoms: N7_19  and  N8_21 
ROOT
HETATM    1  N2  UNL     1      22.025  45.494  18.643  1.00  0.00    -0.235 N 
ENDROOT
BRANCH   1   2
HETATM    2  C2  UNL     1      20.622  45.253  18.888  1.00  0.00     0.300 C 
HETATM    3  C1  UNL     1      20.329  43.845  18.373  1.00  0.00     0.065 C 
BRANCH   2   4
HETATM    4  N1  UNL     1      19.766  46.208  18.231  1.00  0.00    -0.057 N 
ATOM      5  H13 UNL     1      19.126  46.659  18.883  1.00  0.00     0.276 HD
ATOM      6  H12 UNL     1      20.279  47.036  17.928  1.00  0.00     0.276 HD
ATOM      7  H11 UNL     1      19.272  45.761  17.458  1.00  0.00     0.276 HD
ENDBRANCH   2   4
ENDBRANCH   1   2
BRANCH   1   8
HETATM    8  C3  UNL     1      22.679  44.685  17.642  1.00  0.00     0.298 C 
BRANCH   8   9
HETATM    9  N3  UNL     1      23.515  45.487  16.761  1.00  0.00    -0.267 N 
HETATM   10  C4  UNL     1      23.187  46.574  16.049  1.00  0.00     0.203 A 
HETATM   11  N4  UNL     1      24.282  47.009  15.359  1.00  0.00    -0.346 N 
HETATM   12  C5  UNL     1      25.287  46.166  15.661  1.00  0.00     0.198 A 
ATOM     13  H4  UNL     1      24.329  47.814  14.736  1.00  0.00     0.167 HD
HETATM   14  N5  UNL     1      24.792  45.258  16.510  1.00  0.00    -0.292 N 
ATOM     15  H5  UNL     1      25.330  44.489  16.911  1.00  0.00     0.188 HD
ENDBRANCH   8   9
ENDBRANCH   1   8
BRANCH   1  16
HETATM   16  N6  UNL     1      22.671  46.478  19.370  1.00  0.00    -0.079 N 
HETATM   17  N7  UNL     1      23.849  46.280  19.786  1.00  0.00    -0.207 N 
ATOM     18  H7  UNL     1      24.308  45.393  19.579  1.00  0.00     0.212 HD
BRANCH  16  19
HETATM   19  O1  UNL     1      22.093  47.697  19.674  1.00  0.00    -0.252 OA
ATOM     20  H1  UNL     1      21.443  47.808  20.358  1.00  0.00     0.248 HD
ENDBRANCH  16  19
BRANCH  17  21
HETATM   21  N8  UNL     1      24.535  47.243  20.521  1.00  0.00    -0.328 N 
ATOM     22  H82 UNL     1      24.152  48.188  20.553  1.00  0.00     0.178 HD
ATOM     23  H81 UNL     1      25.398  47.023  21.018  1.00  0.00     0.178 HD
ENDBRANCH  17  21
ENDBRANCH   1  16
TORSDOF 7
ENDMDL
MODEL 4
REMARK VINA RESULT: -6.502379808      1.665      3.420
REMARK  7 active torsions:
REMARK  status: ('A' for Active; 'I' for Inactive)
REMARK    1  A    between atoms: C2_2  and  N1_3 
REMARK    2  A    between atoms: C2_2  and  N2_7 
REMARK    3  A    between atoms: N2_7  and  C3_8 
REMARK    4  A    between atoms: N2_7  and  N6_16 
REMARK    5  A    between atoms: C3_8  and  N3_9 
REMARK    6  A    between atoms: N6_16  and  O1_17 
REMARK    7  A    between atoms: N7_19  and  N8_21 
ROOT
HETATM    1  N2  UNL     1      21.892  45.398  18.796  1.00  0.00    -0.235 N 
ENDROOT
BRANCH   1   2
HETATM    2  C2  UNL     1      20.465  45.312  19.005  1.00  0.00     0.300 C 
HETATM    3  C1  UNL     1      20.056  43.892  18.620  1.00  0.00     0.065 C 
BRANCH   2   4
HETATM    4  N1  UNL     1      19.726  46.269  18.221  1.00  0.00    -0.057 N 
ATOM      5  H13 UNL     1      20.293  46.670  17.474  1.00  0.00     0.276 HD
ATOM      6  H12 UNL     1      19.013  45.822  17.644  1.00  0.00     0.276 HD
ATOM      7  H11 UNL     1      19.331  46.988  18.828  1.00  0.00     0.276 HD
ENDBRANCH   2   4
ENDBRANCH   1   2
BRANCH   1   8
HETATM    8  C3  UNL     1      22.506  44.400  17.953  1.00  0.00     0.298 C 
BRANCH   8   9
HETATM    9  N3  UNL     1      22.751  44.904  16.610  1.00  0.00    -0.267 N 
HETATM   10  C4  UNL     1      23.784  45.630  16.159  1.00  0.00     0.203 A 
HETATM   11  N4  UNL     1      23.610  45.885  14.830  1.00  0.00    -0.346 N 
HETATM   12  C5  UNL     1      22.450  45.302  14.474  1.00  0.00     0.198 A 
ATOM     13  H4  UNL     1      24.236  46.414  14.224  1.00  0.00     0.167 HD
HETATM   14  N5  UNL     1      21.955  44.718  15.572  1.00  0.00    -0.292 N 
ATOM     15  H5  UNL     1      21.078  44.197  15.603  1.00  0.00     0.188 HD
ENDBRANCH   8   9
ENDBRANCH   1   8
BRANCH   1  16
HETATM   16  N6  UNL     1      22.597  46.420  19.406  1.00  0.00    -0.079 N 
HETATM   17  N7  UNL     1      23.792  46.226  19.773  1.00  0.00    -0.207 N 
ATOM     18  H7  UNL     1      24.220  45.315  19.612  1.00  0.00     0.212 HD
BRANCH  16  19
HETATM   19  O1  UNL     1      22.061  47.672  19.643  1.00  0.00    -0.252 OA
ATOM     20  H1  UNL     1      22.592  48.441  19.814  1.00  0.00     0.248 HD
ENDBRANCH  16  19
BRANCH  17  21
HETATM   21  N8  UNL     1      24.537  47.227  20.390  1.00  0.00    -0.328 N 
ATOM     22  H82 UNL     1      24.483  48.172  20.009  1.00  0.00     0.178 HD
ATOM     23  H81 UNL     1      25.124  47.034  21.201  1.00  0.00     0.178 HD
ENDBRANCH  17  21
ENDBRANCH   1  16
TORSDOF 7
ENDMDL
MODEL 5
REMARK VINA RESULT: -6.447741567      3.441      6.283
REMARK  7 active torsions:
REMARK  status: ('A' for Active; 'I' for Inactive)
REMARK    1  A    between atoms: C2_2  and  N1_3 
REMARK    2  A    between atoms: C2_2  and  N2_7 
REMARK    3  A    between atoms: N2_7  and  C3_8 
REMARK    4  A    between atoms: N2_7  and  N6_16 
REMARK    5  A    between atoms: C3_8  and  N3_9 
REMARK    6  A    between atoms: N6_16  and  O1_17 
REMARK    7  A    between atoms: N7_19  and  N8_21 
ROOT
HETATM    1  N2  UNL     1      17.465  41.599  17.451  1.00  0.00    -0.235 N 
ENDROOT
BRANCH   1   2
HETATM    2  C2  UNL     1      16.335  41.289  16.605  1.00  0.00     0.300 C 
HETATM    3  C1  UNL     1      16.561  42.035  15.292  1.00  0.00     0.065 C 
BRANCH   2   4
HETATM    4  N1  UNL     1      15.076  41.682  17.186  1.00  0.00    -0.057 N 
ATOM      5  H13 UNL     1      14.934  42.691  17.142  1.00  0.00     0.276 HD
ATOM      6  H12 UNL     1      14.284  41.394  16.612  1.00  0.00     0.276 HD
ATOM      7  H11 UNL     1      15.006  41.328  18.140  1.00  0.00     0.276 HD
ENDBRANCH   2   4
ENDBRANCH   1   2
BRANCH   1   8
HETATM    8  C3  UNL     1      18.678  42.046  16.810  1.00  0.00     0.298 C 
BRANCH   8   9
HETATM    9  N3  UNL     1      19.414  42.987  17.641  1.00  0.00    -0.267 N 
HETATM   10  C4  UNL     1      20.740  43.129  17.779  1.00  0.00     0.203 A 
HETATM   11  N4  UNL     1      20.995  44.137  18.664  1.00  0.00    -0.346 N 
HETATM   12  C5  UNL     1      19.801  44.608  19.066  1.00  0.00     0.198 A 
ATOM     13  H4  UNL     1      21.912  44.467  18.963  1.00  0.00     0.167 HD
HETATM   14  N5  UNL     1      18.865  43.893  18.430  1.00  0.00    -0.292 N 
ATOM     15  H5  UNL     1      17.860  44.029  18.541  1.00  0.00     0.188 HD
ENDBRANCH   8   9
ENDBRANCH   1   8
BRANCH   1  16
HETATM   16  N6  UNL     1      17.333  41.456  18.820  1.00  0.00    -0.079 N 
HETATM   17  N7  UNL     1      17.778  40.417  19.388  1.00  0.00    -0.207 N 
ATOM     18  H7  UNL     1      18.229  39.696  18.825  1.00  0.00     0.212 HD
BRANCH  16  19
HETATM   19  O1  UNL     1      16.733  42.405  19.627  1.00  0.00    -0.252 OA
ATOM     20  H1  UNL     1      16.521  42.253  20.541  1.00  0.00     0.248 HD
ENDBRANCH  16  19
BRANCH  17  21
HETATM   21  N8  UNL     1      17.667  40.232  20.764  1.00  0.00    -0.328 N 
ATOM     22  H82 UNL     1      16.911  40.711  21.254  1.00  0.00     0.178 HD
ATOM     23  H81 UNL     1      18.316  39.637  21.278  1.00  0.00     0.178 HD
ENDBRANCH  17  21
ENDBRANCH   1  16
TORSDOF 7
ENDMDL
