MODEL 1
REMARK VINA RESULT: -7.427883583      0.000      0.000
REMARK  3 active torsions:
REMARK  status: ('A' for Active; 'I' for Inactive)
REMARK    1  A    between atoms: N2_12  and  N3_14 
REMARK    2  A    between atoms: N3_14  and  C11_16 
REMARK    3  A    between atoms: C11_16  and  C12_20 
ROOT
HETATM    1  C12 UNL     1      -5.525   2.456  16.312  1.00  0.00     0.267 C 
HETATM    2  C13 UNL     1      -6.692   1.639  16.693  1.00  0.00     0.086 C 
HETATM    3  N5  UNL     1      -7.600   0.993  17.010  1.00  0.00    -0.195 NA
HETATM    4  C14 UNL     1      -4.381   1.529  16.141  1.00  0.00     0.086 C 
HETATM    5  N6  UNL     1      -3.484   0.815  16.025  1.00  0.00    -0.195 NA
ENDROOT
BRANCH   1   6
HETATM    6  C11 UNL     1      -5.759   3.196  15.047  1.00  0.00     0.121 C 
HETATM    7  N4  UNL     1      -6.426   4.296  15.100  1.00  0.00    -0.386 N 
ATOM      8  H42 UNL     1      -6.588   4.805  14.231  1.00  0.00     0.157 HD
ATOM      9  H41 UNL     1      -6.785   4.652  15.986  1.00  0.00     0.157 HD
BRANCH   6  10
HETATM   10  N3  UNL     1      -5.265   2.706  13.828  1.00  0.00    -0.287 N 
ATOM     11  H3  UNL     1      -5.524   1.757  13.557  1.00  0.00     0.188 HD
BRANCH  10  12
HETATM   12  N2  UNL     1      -4.444   3.429  12.960  1.00  0.00    -0.305 N 
HETATM   13  C10 UNL     1      -3.628   2.795  12.158  1.00  0.00     0.042 C 
HETATM   14  C2  UNL     1      -3.493   1.331  12.087  1.00  0.00     0.059 C 
HETATM   15  C9  UNL     1      -2.691   3.386  11.181  1.00  0.00     0.270 C 
HETATM   16  C1  UNL     1      -4.722   0.668  11.456  1.00  0.00     0.018 C 
HETATM   17  C3  UNL     1      -2.296   1.109  11.230  1.00  0.00     0.283 C 
HETATM   18  N1  UNL     1      -2.112   2.317  10.450  1.00  0.00     0.099 N 
HETATM   19  C4  UNL     1      -0.699   2.570  10.191  1.00  0.00     0.273 C 
HETATM   20  C5  UNL     1      -0.649   3.436   8.925  1.00  0.00     0.030 C 
HETATM   21  C6  UNL     1      -1.230   4.780   9.317  1.00  0.00     0.002 C 
HETATM   22  C7  UNL     1      -2.714   4.842   9.139  1.00  0.00     0.002 C 
HETATM   23  C8  UNL     1      -3.484   4.347  10.332  1.00  0.00     0.042 C 
ATOM     24  H2  UNL     1      -4.481   4.448  12.951  1.00  0.00     0.186 HD
ENDBRANCH  10  12
ENDBRANCH   6  10
ENDBRANCH   1   6
TORSDOF 3
ENDMDL
MODEL 2
REMARK VINA RESULT: -7.148325675      3.161      4.207
REMARK  3 active torsions:
REMARK  status: ('A' for Active; 'I' for Inactive)
REMARK    1  A    between atoms: N2_12  and  N3_14 
REMARK    2  A    between atoms: N3_14  and  C11_16 
REMARK    3  A    between atoms: C11_16  and  C12_20 
ROOT
HETATM    1  C12 UNL     1      -4.497   1.714  15.510  1.00  0.00     0.267 C 
HETATM    2  C13 UNL     1      -5.290   0.846  16.401  1.00  0.00     0.086 C 
HETATM    3  N5  UNL     1      -5.898   0.151  17.101  1.00  0.00    -0.195 NA
HETATM    4  C14 UNL     1      -4.367   1.006  14.215  1.00  0.00     0.086 C 
HETATM    5  N6  UNL     1      -4.246   0.452  13.212  1.00  0.00    -0.195 NA
ENDROOT
BRANCH   1   6
HETATM    6  C11 UNL     1      -5.153   3.029  15.295  1.00  0.00     0.121 C 
HETATM    7  N4  UNL     1      -6.395   3.149  15.615  1.00  0.00    -0.386 N 
ATOM      8  H42 UNL     1      -6.845   4.052  15.467  1.00  0.00     0.157 HD
ATOM      9  H41 UNL     1      -6.916   2.364  16.006  1.00  0.00     0.157 HD
BRANCH   6  10
HETATM   10  N3  UNL     1      -4.435   4.108  14.757  1.00  0.00    -0.287 N 
ATOM     11  H3  UNL     1      -3.420   4.029  14.714  1.00  0.00     0.188 HD
BRANCH  10  12
HETATM   12  N2  UNL     1      -5.017   5.284  14.277  1.00  0.00    -0.305 N 
HETATM   13  C10 UNL     1      -4.736   5.703  13.071  1.00  0.00     0.042 C 
HETATM   14  C2  UNL     1      -3.826   5.019  12.137  1.00  0.00     0.059 C 
HETATM   15  C9  UNL     1      -5.250   6.914  12.399  1.00  0.00     0.270 C 
HETATM   16  C1  UNL     1      -4.420   3.709  11.608  1.00  0.00     0.018 C 
HETATM   17  C3  UNL     1      -3.644   5.986  11.020  1.00  0.00     0.283 C 
HETATM   18  N1  UNL     1      -4.777   6.889  11.062  1.00  0.00     0.099 N 
HETATM   19  C4  UNL     1      -4.403   8.229  10.619  1.00  0.00     0.273 C 
HETATM   20  C5  UNL     1      -5.697   8.890  10.128  1.00  0.00     0.030 C 
HETATM   21  C6  UNL     1      -6.551   9.101  11.362  1.00  0.00     0.002 C 
HETATM   22  C7  UNL     1      -7.425   7.926  11.668  1.00  0.00     0.002 C 
HETATM   23  C8  UNL     1      -6.753   6.882  12.515  1.00  0.00     0.042 C 
ATOM     24  H2  UNL     1      -5.659   5.814  14.866  1.00  0.00     0.186 HD
ENDBRANCH  10  12
ENDBRANCH   6  10
ENDBRANCH   1   6
TORSDOF 3
ENDMDL
MODEL 3
REMARK VINA RESULT: -6.980699201      3.064      4.502
REMARK  3 active torsions:
REMARK  status: ('A' for Active; 'I' for Inactive)
REMARK    1  A    between atoms: N2_12  and  N3_14 
REMARK    2  A    between atoms: N3_14  and  C11_16 
REMARK    3  A    between atoms: C11_16  and  C12_20 
ROOT
HETATM    1  C12 UNL     1      -4.838   2.326  14.759  1.00  0.00     0.267 C 
HETATM    2  C13 UNL     1      -4.690   0.886  15.040  1.00  0.00     0.086 C 
HETATM    3  N5  UNL     1      -4.592  -0.249  15.253  1.00  0.00    -0.195 NA
HETATM    4  C14 UNL     1      -5.918   2.833  15.638  1.00  0.00     0.086 C 
HETATM    5  N6  UNL     1      -6.768   3.229  16.307  1.00  0.00    -0.195 NA
ENDROOT
BRANCH   1   6
HETATM    6  C11 UNL     1      -3.584   3.072  15.029  1.00  0.00     0.121 C 
HETATM    7  N4  UNL     1      -2.829   2.667  15.991  1.00  0.00    -0.386 N 
ATOM      8  H42 UNL     1      -1.967   3.179  16.177  1.00  0.00     0.157 HD
ATOM      9  H41 UNL     1      -3.085   1.855  16.554  1.00  0.00     0.157 HD
BRANCH   6  10
HETATM   10  N3  UNL     1      -3.233   4.189  14.255  1.00  0.00    -0.287 N 
ATOM     11  H3  UNL     1      -2.287   4.225  13.875  1.00  0.00     0.188 HD
BRANCH  10  12
HETATM   12  N2  UNL     1      -4.089   5.254  13.969  1.00  0.00    -0.305 N 
HETATM   13  C10 UNL     1      -4.284   5.617  12.728  1.00  0.00     0.042 C 
HETATM   14  C2  UNL     1      -3.657   4.978  11.560  1.00  0.00     0.059 C 
HETATM   15  C9  UNL     1      -5.147   6.712  12.238  1.00  0.00     0.270 C 
HETATM   16  C1  UNL     1      -4.217   3.575  11.300  1.00  0.00     0.018 C 
HETATM   17  C3  UNL     1      -3.987   5.879  10.421  1.00  0.00     0.283 C 
HETATM   18  N1  UNL     1      -5.148   6.648  10.822  1.00  0.00     0.099 N 
HETATM   19  C4  UNL     1      -5.121   7.987  10.241  1.00  0.00     0.273 C 
HETATM   20  C5  UNL     1      -6.580   8.461  10.201  1.00  0.00     0.030 C 
HETATM   21  C6  UNL     1      -6.993   8.659  11.646  1.00  0.00     0.002 C 
HETATM   22  C7  UNL     1      -7.554   7.417  12.263  1.00  0.00     0.002 C 
HETATM   23  C8  UNL     1      -6.506   6.518  12.860  1.00  0.00     0.042 C 
ATOM     24  H2  UNL     1      -4.562   5.748  14.727  1.00  0.00     0.186 HD
ENDBRANCH  10  12
ENDBRANCH   6  10
ENDBRANCH   1   6
TORSDOF 3
ENDMDL
MODEL 4
REMARK VINA RESULT: -6.973319845      0.839      2.061
REMARK  3 active torsions:
REMARK  status: ('A' for Active; 'I' for Inactive)
REMARK    1  A    between atoms: N2_12  and  N3_14 
REMARK    2  A    between atoms: N3_14  and  C11_16 
REMARK    3  A    between atoms: C11_16  and  C12_20 
ROOT
HETATM    1  C12 UNL     1      -5.455   2.125  16.076  1.00  0.00     0.267 C 
HETATM    2  C13 UNL     1      -5.977   3.243  15.269  1.00  0.00     0.086 C 
HETATM    3  N5  UNL     1      -6.394   4.131  14.652  1.00  0.00    -0.195 NA
HETATM    4  C14 UNL     1      -6.624   1.432  16.670  1.00  0.00     0.086 C 
HETATM    5  N6  UNL     1      -7.527   0.902  17.148  1.00  0.00    -0.195 NA
ENDROOT
BRANCH   1   6
HETATM    6  C11 UNL     1      -4.676   1.167  15.251  1.00  0.00     0.121 C 
HETATM    7  N4  UNL     1      -4.141   0.153  15.838  1.00  0.00    -0.386 N 
ATOM      8  H42 UNL     1      -3.606  -0.505  15.271  1.00  0.00     0.157 HD
ATOM      9  H41 UNL     1      -4.249   0.008  16.842  1.00  0.00     0.157 HD
BRANCH   6  10
HETATM   10  N3  UNL     1      -4.527   1.366  13.870  1.00  0.00    -0.287 N 
ATOM     11  H3  UNL     1      -5.006   0.720  13.243  1.00  0.00     0.188 HD
BRANCH  10  12
HETATM   12  N2  UNL     1      -3.769   2.388  13.295  1.00  0.00    -0.305 N 
HETATM   13  C10 UNL     1      -3.067   2.149  12.218  1.00  0.00     0.042 C 
HETATM   14  C2  UNL     1      -3.003   0.849  11.531  1.00  0.00     0.059 C 
HETATM   15  C9  UNL     1      -2.210   3.098  11.476  1.00  0.00     0.270 C 
HETATM   16  C1  UNL     1      -4.317   0.505  10.822  1.00  0.00     0.018 C 
HETATM   17  C3  UNL     1      -1.910   1.009  10.532  1.00  0.00     0.283 C 
HETATM   18  N1  UNL     1      -1.756   2.433  10.309  1.00  0.00     0.099 N 
HETATM   19  C4  UNL     1      -0.367   2.777  10.023  1.00  0.00     0.273 C 
HETATM   20  C5  UNL     1      -0.409   4.092   9.234  1.00  0.00     0.030 C 
HETATM   21  C6  UNL     1      -0.889   5.147  10.210  1.00  0.00     0.002 C 
HETATM   22  C7  UNL     1      -2.379   5.273  10.239  1.00  0.00     0.002 C 
HETATM   23  C8  UNL     1      -3.044   4.322  11.197  1.00  0.00     0.042 C 
ATOM     24  H2  UNL     1      -3.763   3.318  13.714  1.00  0.00     0.186 HD
ENDBRANCH  10  12
ENDBRANCH   6  10
ENDBRANCH   1   6
TORSDOF 3
ENDMDL
MODEL 5
REMARK VINA RESULT: -6.957322851      2.264      6.883
REMARK  3 active torsions:
REMARK  status: ('A' for Active; 'I' for Inactive)
REMARK    1  A    between atoms: N2_12  and  N3_14 
REMARK    2  A    between atoms: N3_14  and  C11_16 
REMARK    3  A    between atoms: C11_16  and  C12_20 
ROOT
HETATM    1  C12 UNL     1      -1.381   5.331  11.263  1.00  0.00     0.267 C 
HETATM    2  C13 UNL     1      -2.018   4.676  10.105  1.00  0.00     0.086 C 
HETATM    3  N5  UNL     1      -2.513   4.177   9.184  1.00  0.00    -0.195 NA
HETATM    4  C14 UNL     1      -2.179   6.541  11.573  1.00  0.00     0.086 C 
HETATM    5  N6  UNL     1      -2.785   7.492  11.807  1.00  0.00    -0.195 NA
ENDROOT
BRANCH   1   6
HETATM    6  C11 UNL     1      -1.346   4.440  12.450  1.00  0.00     0.121 C 
HETATM    7  N4  UNL     1      -0.728   3.314  12.348  1.00  0.00    -0.386 N 
ATOM      8  H42 UNL     1      -0.704   2.702  13.164  1.00  0.00     0.157 HD
ATOM      9  H41 UNL     1      -0.274   3.040  11.477  1.00  0.00     0.157 HD
BRANCH   6  10
HETATM   10  N3  UNL     1      -1.971   4.817  13.649  1.00  0.00    -0.287 N 
ATOM     11  H3  UNL     1      -2.020   5.813  13.865  1.00  0.00     0.188 HD
BRANCH  10  12
HETATM   12  N2  UNL     1      -2.529   3.924  14.565  1.00  0.00    -0.305 N 
HETATM   13  C10 UNL     1      -3.829   3.841  14.683  1.00  0.00     0.042 C 
HETATM   14  C2  UNL     1      -4.793   4.637  13.906  1.00  0.00     0.059 C 
HETATM   15  C9  UNL     1      -4.594   2.962  15.592  1.00  0.00     0.270 C 
HETATM   16  C1  UNL     1      -4.840   4.210  12.435  1.00  0.00     0.018 C 
HETATM   17  C3  UNL     1      -6.106   4.372  14.557  1.00  0.00     0.283 C 
HETATM   18  N1  UNL     1      -5.967   3.122  15.278  1.00  0.00     0.099 N 
HETATM   19  C4  UNL     1      -6.781   3.116  16.489  1.00  0.00     0.273 C 
HETATM   20  C5  UNL     1      -7.047   1.641  16.815  1.00  0.00     0.030 C 
HETATM   21  C6  UNL     1      -5.710   1.059  17.229  1.00  0.00     0.002 C 
HETATM   22  C7  UNL     1      -4.929   0.523  16.071  1.00  0.00     0.002 C 
HETATM   23  C8  UNL     1      -4.079   1.560  15.389  1.00  0.00     0.042 C 
ATOM     24  H2  UNL     1      -1.925   3.337  15.140  1.00  0.00     0.186 HD
ENDBRANCH  10  12
ENDBRANCH   6  10
ENDBRANCH   1   6
TORSDOF 3
ENDMDL
