MODEL 1
REMARK VINA RESULT: -4.793639428      0.000      0.000
REMARK  1 active torsions:
REMARK  status: ('A' for Active; 'I' for Inactive)
REMARK    1  A    between atoms: C2_2  and  C3_4 
ROOT
HETATM    1  C3  UNL     1      16.689  -8.793  11.446  1.00  0.00     0.200 C 
HETATM    2  C4  UNL     1      17.605  -9.934  11.258  1.00  0.00     0.034 C 
HETATM    3  C5  UNL     1      17.277 -10.888  10.176  1.00  0.00     0.004 C 
HETATM    4  C6  UNL     1      15.859 -10.935   9.752  1.00  0.00     0.027 C 
HETATM    5  C7  UNL     1      15.303  -9.533   9.691  1.00  0.00     0.232 C 
HETATM    6  N1  UNL     1      15.328  -9.022  11.037  1.00  0.00    -0.070 N 
ATOM      7  H11 UNL     1      14.752  -8.188  11.142  1.00  0.00     0.277 HD
ATOM      8  H12 UNL     1      14.829  -9.629  11.688  1.00  0.00     0.277 HD
ENDROOT
BRANCH   1   9
HETATM    9  C2  UNL     1      17.151  -7.506  10.800  1.00  0.00     0.085 C 
HETATM   10  C1  UNL     1      15.996  -6.518  10.989  1.00  0.00     0.024 C 
HETATM   11  S1  UNL     1      18.582  -6.794  11.633  1.00  0.00    -0.091 SA
ENDBRANCH   1   9
TORSDOF 1
ENDMDL
MODEL 2
REMARK VINA RESULT: -4.573324657      2.027      2.590
REMARK  1 active torsions:
REMARK  status: ('A' for Active; 'I' for Inactive)
REMARK    1  A    between atoms: C2_2  and  C3_4 
ROOT
HETATM    1  C3  UNL     1      17.955  -7.435  12.118  1.00  0.00     0.200 C 
HETATM    2  C4  UNL     1      17.807  -8.820  11.632  1.00  0.00     0.034 C 
HETATM    3  C5  UNL     1      16.782  -9.061  10.592  1.00  0.00     0.004 C 
HETATM    4  C6  UNL     1      15.681  -8.074  10.517  1.00  0.00     0.027 C 
HETATM    5  C7  UNL     1      16.236  -6.682  10.697  1.00  0.00     0.232 C 
HETATM    6  N1  UNL     1      16.772  -6.622  12.031  1.00  0.00    -0.070 N 
ATOM      7  H11 UNL     1      16.943  -5.663  12.333  1.00  0.00     0.277 HD
ATOM      8  H12 UNL     1      16.079  -6.876  12.735  1.00  0.00     0.277 HD
ENDROOT
BRANCH   1   9
HETATM    9  C2  UNL     1      19.089  -6.665  11.479  1.00  0.00     0.085 C 
HETATM   10  C1  UNL     1      19.277  -5.419  12.349  1.00  0.00     0.024 C 
HETATM   11  S1  UNL     1      20.647  -7.569  11.526  1.00  0.00    -0.091 SA
ENDBRANCH   1   9
TORSDOF 1
ENDMDL
MODEL 3
REMARK VINA RESULT: -4.465136520      3.010      3.657
REMARK  1 active torsions:
REMARK  status: ('A' for Active; 'I' for Inactive)
REMARK    1  A    between atoms: C2_2  and  C3_4 
ROOT
HETATM    1  C3  UNL     1      19.474  -6.831  12.412  1.00  0.00     0.200 C 
HETATM    2  C4  UNL     1      19.534  -8.299  12.289  1.00  0.00     0.034 C 
HETATM    3  C5  UNL     1      18.442  -8.956  11.536  1.00  0.00     0.004 C 
HETATM    4  C6  UNL     1      17.169  -8.205  11.442  1.00  0.00     0.027 C 
HETATM    5  C7  UNL     1      17.460  -6.744  11.196  1.00  0.00     0.232 C 
HETATM    6  N1  UNL     1      18.155  -6.261  12.361  1.00  0.00    -0.070 N 
ATOM      7  H11 UNL     1      18.175  -5.243  12.400  1.00  0.00     0.277 HD
ATOM      8  H12 UNL     1      17.630  -6.431  13.219  1.00  0.00     0.277 HD
ENDROOT
BRANCH   1   9
HETATM    9  C2  UNL     1      20.335  -6.084  11.418  1.00  0.00     0.085 C 
HETATM   10  C1  UNL     1      20.548  -4.694  12.027  1.00  0.00     0.024 C 
HETATM   11  S1  UNL     1      21.969  -6.822  11.232  1.00  0.00    -0.091 SA
ENDBRANCH   1   9
TORSDOF 1
ENDMDL
MODEL 4
REMARK VINA RESULT: -4.462048929      7.081      8.051
REMARK  1 active torsions:
REMARK  status: ('A' for Active; 'I' for Inactive)
REMARK    1  A    between atoms: C2_2  and  C3_4 
ROOT
HETATM    1  C3  UNL     1      22.147  -4.172   8.530  1.00  0.00     0.200 C 
HETATM    2  C4  UNL     1      21.694  -5.171   9.515  1.00  0.00     0.034 C 
HETATM    3  C5  UNL     1      22.733  -6.028  10.130  1.00  0.00     0.004 C 
HETATM    4  C6  UNL     1      23.989  -6.188   9.362  1.00  0.00     0.027 C 
HETATM    5  C7  UNL     1      24.387  -4.860   8.762  1.00  0.00     0.232 C 
HETATM    6  N1  UNL     1      23.355  -4.507   7.823  1.00  0.00    -0.070 N 
ATOM      7  H11 UNL     1      23.649  -3.762   7.193  1.00  0.00     0.277 HD
ATOM      8  H12 UNL     1      23.203  -5.237   7.127  1.00  0.00     0.277 HD
ENDROOT
BRANCH   1   9
HETATM    9  C2  UNL     1      22.313  -2.775   9.085  1.00  0.00     0.085 C 
HETATM   10  C1  UNL     1      21.441  -1.878   8.200  1.00  0.00     0.024 C 
HETATM   11  S1  UNL     1      21.676  -2.622  10.764  1.00  0.00    -0.091 SA
ENDBRANCH   1   9
TORSDOF 1
ENDMDL
MODEL 5
REMARK VINA RESULT: -4.401907396      9.849     10.611
REMARK  1 active torsions:
REMARK  status: ('A' for Active; 'I' for Inactive)
REMARK    1  A    between atoms: C2_2  and  C3_4 
ROOT
HETATM    1  C3  UNL     1      23.087  -0.287  12.100  1.00  0.00     0.200 C 
HETATM    2  C4  UNL     1      21.679  -0.219  11.668  1.00  0.00     0.034 C 
HETATM    3  C5  UNL     1      21.362  -0.747  10.322  1.00  0.00     0.004 C 
HETATM    4  C6  UNL     1      22.484  -0.793   9.357  1.00  0.00     0.027 C 
HETATM    5  C7  UNL     1      23.736  -1.264  10.058  1.00  0.00     0.232 C 
HETATM    6  N1  UNL     1      24.059  -0.262  11.040  1.00  0.00    -0.070 N 
ATOM      7  H11 UNL     1      25.011  -0.361  11.390  1.00  0.00     0.277 HD
ATOM      8  H12 UNL     1      24.151   0.666  10.625  1.00  0.00     0.277 HD
ENDROOT
BRANCH   1   9
HETATM    9  C2  UNL     1      23.412  -1.464  12.992  1.00  0.00     0.085 C 
HETATM   10  C1  UNL     1      24.346  -0.910  14.073  1.00  0.00     0.024 C 
HETATM   11  S1  UNL     1      21.958  -2.104  13.844  1.00  0.00    -0.091 SA
ENDBRANCH   1   9
TORSDOF 1
ENDMDL
