MODEL 1
REMARK VINA RESULT: -7.812796189      0.000      0.000
REMARK  7 active torsions:
REMARK  status: ('A' for Active; 'I' for Inactive)
REMARK    1  A    between atoms: C3_3  and  N1_4 
REMARK    2  A    between atoms: C7_10  and  C8_11 
REMARK    3  A    between atoms: C8_11  and  O1_12 
REMARK    4  A    between atoms: C8_11  and  C9_14 
REMARK    5  A    between atoms: C8_11  and  C16_21 
REMARK    6  A    between atoms: C9_14  and  C10_15 
REMARK    7  A    between atoms: C10_15  and  C11_16 
ROOT
HETATM    1  N1  UNL     1       4.625  15.521  29.821  1.00  0.00    -0.346 N 
HETATM    2  C4  UNL     1       3.279  16.017  29.812  1.00  0.00     0.132 C 
HETATM    3  C5  UNL     1       2.826  16.722  31.031  1.00  0.00     0.079 C 
HETATM    4  C6  UNL     1       3.329  16.034  32.241  1.00  0.00     0.037 A 
HETATM    5  N2  UNL     1       2.834  15.960  33.520  1.00  0.00    -0.345 N 
ATOM      6  H2  UNL     1       1.961  16.379  33.839  1.00  0.00     0.167 HD
HETATM    7  C7  UNL     1       3.667  15.257  34.273  1.00  0.00     0.126 A 
HETATM    8  N3  UNL     1       4.684  14.874  33.499  1.00  0.00    -0.343 N 
ATOM      9  H3  UNL     1       5.479  14.315  33.808  1.00  0.00     0.167 HD
HETATM   10  C17 UNL     1       4.500  15.342  32.239  1.00  0.00     0.061 A 
HETATM   11  C18 UNL     1       5.338  15.240  31.023  1.00  0.00     0.071 C 
HETATM   12  C19 UNL     1       5.928  13.836  30.992  1.00  0.00     0.045 C 
HETATM   13  C20 UNL     1       6.517  16.193  31.265  1.00  0.00     0.045 C 
ENDROOT
BRANCH   7  14
HETATM   14  C8  UNL     1       3.570  15.042  35.792  1.00  0.00     0.214 C 
BRANCH  14  15
HETATM   15  O1  UNL     1       3.715  16.238  36.476  1.00  0.00    -0.374 OA
ATOM     16  H1  UNL     1       3.471  16.142  37.389  1.00  0.00     0.211 HD
ENDBRANCH  14  15
BRANCH  14  17
HETATM   17  C9  UNL     1       4.568  14.050  36.277  1.00  0.00     0.056 C 
BRANCH  17  18
HETATM   18  C10 UNL     1       5.903  14.624  36.558  1.00  0.00     0.008 C 
BRANCH  18  19
HETATM   19  C11 UNL     1       7.115  13.801  36.228  1.00  0.00    -0.014 C 
HETATM   20  C12 UNL     1       8.126  14.810  35.642  1.00  0.00     0.004 C 
HETATM   21  C13 UNL     1       8.144  14.475  34.146  1.00  0.00     0.000 C 
HETATM   22  C14 UNL     1       8.166  12.933  34.251  1.00  0.00     0.000 C 
HETATM   23  C15 UNL     1       6.947  12.749  35.190  1.00  0.00     0.004 C 
ENDBRANCH  18  19
ENDBRANCH  17  18
ENDBRANCH  14  17
BRANCH  14  24
HETATM   24  C16 UNL     1       2.129  14.557  36.012  1.00  0.00     0.425 C 
HETATM   25  F1  UNL     1       1.643  13.822  35.024  1.00  0.00    -0.167 F 
HETATM   26  F2  UNL     1       2.155  13.835  37.215  1.00  0.00    -0.167 F 
HETATM   27  F3  UNL     1       1.327  15.673  36.306  1.00  0.00    -0.167 F 
ENDBRANCH  14  24
ENDBRANCH   7  14
BRANCH   1  28
HETATM   28  C3  UNL     1       5.237  15.326  28.531  1.00  0.00     0.154 A 
HETATM   29  C2  UNL     1       5.508  16.301  27.608  1.00  0.00     0.002 A 
HETATM   30  C1  UNL     1       5.236  17.756  27.664  1.00  0.00     0.054 C 
HETATM   31  C26 UNL     1       6.112  15.683  26.504  1.00  0.00     0.010 A 
HETATM   32  C21 UNL     1       6.173  14.356  26.824  1.00  0.00     0.088 A 
HETATM   33  C25 UNL     1       6.582  16.197  25.310  1.00  0.00     0.038 A 
HETATM   34  O2  UNL     1       5.649  14.186  28.021  1.00  0.00    -0.293 OA
HETATM   35  C22 UNL     1       6.730  13.502  25.898  1.00  0.00     0.040 A 
HETATM   36  C23 UNL     1       7.214  13.979  24.691  1.00  0.00     0.026 A 
HETATM   37  C24 UNL     1       7.145  15.323  24.382  1.00  0.00     0.035 A 
HETATM   38 CL1  UNL     1       7.770  15.884  22.850  1.00  0.00    -0.084 Cl
ENDBRANCH   1  28
TORSDOF 7
ENDMDL
MODEL 2
REMARK VINA RESULT: -7.599543207      1.381      1.697
REMARK  7 active torsions:
REMARK  status: ('A' for Active; 'I' for Inactive)
REMARK    1  A    between atoms: C3_3  and  N1_4 
REMARK    2  A    between atoms: C7_10  and  C8_11 
REMARK    3  A    between atoms: C8_11  and  O1_12 
REMARK    4  A    between atoms: C8_11  and  C9_14 
REMARK    5  A    between atoms: C8_11  and  C16_21 
REMARK    6  A    between atoms: C9_14  and  C10_15 
REMARK    7  A    between atoms: C10_15  and  C11_16 
ROOT
HETATM    1  N1  UNL     1       5.154  14.672  30.539  1.00  0.00    -0.346 N 
HETATM    2  C4  UNL     1       4.090  15.632  30.486  1.00  0.00     0.132 C 
HETATM    3  C5  UNL     1       3.992  16.574  31.623  1.00  0.00     0.079 C 
HETATM    4  C6  UNL     1       4.264  15.874  32.898  1.00  0.00     0.037 A 
HETATM    5  N2  UNL     1       3.842  16.119  34.181  1.00  0.00    -0.345 N 
ATOM      6  H2  UNL     1       3.204  16.865  34.459  1.00  0.00     0.167 HD
HETATM    7  C7  UNL     1       4.392  15.236  35.001  1.00  0.00     0.126 A 
HETATM    8  N3  UNL     1       5.154  14.425  34.266  1.00  0.00    -0.343 N 
ATOM      9  H3  UNL     1       5.700  13.643  34.628  1.00  0.00     0.167 HD
HETATM   10  C17 UNL     1       5.094  14.798  32.963  1.00  0.00     0.061 A 
HETATM   11  C18 UNL     1       5.772  14.268  31.759  1.00  0.00     0.071 C 
HETATM   12  C19 UNL     1       5.798  12.750  31.881  1.00  0.00     0.045 C 
HETATM   13  C20 UNL     1       7.231  14.730  31.882  1.00  0.00     0.045 C 
ENDROOT
BRANCH   7  14
HETATM   14  C8  UNL     1       4.299  15.227  36.535  1.00  0.00     0.214 C 
BRANCH  14  15
HETATM   15  O1  UNL     1       4.491  16.498  37.054  1.00  0.00    -0.374 OA
ATOM     16  H1  UNL     1       3.856  16.689  37.735  1.00  0.00     0.211 HD
ENDBRANCH  14  15
BRANCH  14  17
HETATM   17  C9  UNL     1       5.266  14.274  37.145  1.00  0.00     0.056 C 
BRANCH  17  18
HETATM   18  C10 UNL     1       6.307  14.917  37.975  1.00  0.00     0.008 C 
BRANCH  18  19
HETATM   19  C11 UNL     1       7.712  14.962  37.448  1.00  0.00    -0.014 C 
HETATM   20  C12 UNL     1       7.978  16.456  37.167  1.00  0.00     0.004 C 
HETATM   21  C13 UNL     1       7.962  16.544  35.637  1.00  0.00     0.000 C 
HETATM   22  C14 UNL     1       8.781  15.272  35.319  1.00  0.00     0.000 C 
HETATM   23  C15 UNL     1       7.965  14.259  36.161  1.00  0.00     0.004 C 
ENDBRANCH  18  19
ENDBRANCH  17  18
ENDBRANCH  14  17
BRANCH  14  24
HETATM   24  C16 UNL     1       2.844  14.827  36.822  1.00  0.00     0.425 C 
HETATM   25  F1  UNL     1       2.346  13.936  35.979  1.00  0.00    -0.167 F 
HETATM   26  F2  UNL     1       2.839  14.338  38.136  1.00  0.00    -0.167 F 
HETATM   27  F3  UNL     1       2.070  15.998  36.896  1.00  0.00    -0.167 F 
ENDBRANCH  14  24
ENDBRANCH   7  14
BRANCH   1  28
HETATM   28  C3  UNL     1       5.585  14.133  29.274  1.00  0.00     0.154 A 
HETATM   29  C2  UNL     1       6.023  14.853  28.194  1.00  0.00     0.002 A 
HETATM   30  C1  UNL     1       6.145  16.320  28.025  1.00  0.00     0.054 C 
HETATM   31  C26 UNL     1       6.351  13.941  27.182  1.00  0.00     0.010 A 
HETATM   32  C21 UNL     1       6.090  12.708  27.710  1.00  0.00     0.088 A 
HETATM   33  C25 UNL     1       6.837  14.130  25.901  1.00  0.00     0.038 A 
HETATM   34  O2  UNL     1       5.641  12.863  28.939  1.00  0.00    -0.293 OA
HETATM   35  C22 UNL     1       6.326  11.610  26.912  1.00  0.00     0.040 A 
HETATM   36  C23 UNL     1       6.815  11.758  25.625  1.00  0.00     0.026 A 
HETATM   37  C24 UNL     1       7.074  13.011  25.105  1.00  0.00     0.035 A 
HETATM   38 CL1  UNL     1       7.694  13.153  23.478  1.00  0.00    -0.084 Cl
ENDBRANCH   1  28
TORSDOF 7
ENDMDL
MODEL 3
REMARK VINA RESULT: -7.453117762      7.645      9.775
REMARK  7 active torsions:
REMARK  status: ('A' for Active; 'I' for Inactive)
REMARK    1  A    between atoms: C3_3  and  N1_4 
REMARK    2  A    between atoms: C7_10  and  C8_11 
REMARK    3  A    between atoms: C8_11  and  O1_12 
REMARK    4  A    between atoms: C8_11  and  C9_14 
REMARK    5  A    between atoms: C8_11  and  C16_21 
REMARK    6  A    between atoms: C9_14  and  C10_15 
REMARK    7  A    between atoms: C10_15  and  C11_16 
ROOT
HETATM    1  N1  UNL     1       6.771  11.254  25.504  1.00  0.00    -0.346 N 
HETATM    2  C4  UNL     1       7.956  10.760  26.144  1.00  0.00     0.132 C 
HETATM    3  C5  UNL     1       8.274   9.330  25.937  1.00  0.00     0.079 C 
HETATM    4  C6  UNL     1       7.039   8.515  25.987  1.00  0.00     0.037 A 
HETATM    5  N2  UNL     1       6.824   7.206  26.340  1.00  0.00    -0.345 N 
ATOM      6  H2  UNL     1       7.540   6.561  26.674  1.00  0.00     0.167 HD
HETATM    7  C7  UNL     1       5.542   6.913  26.180  1.00  0.00     0.126 A 
HETATM    8  N3  UNL     1       4.930   8.011  25.737  1.00  0.00    -0.343 N 
ATOM      9  H3  UNL     1       3.935   8.085  25.527  1.00  0.00     0.167 HD
HETATM   10  C17 UNL     1       5.833   9.016  25.608  1.00  0.00     0.061 A 
HETATM   11  C18 UNL     1       5.689  10.407  25.122  1.00  0.00     0.071 C 
HETATM   12  C19 UNL     1       4.365  10.941  25.654  1.00  0.00     0.045 C 
HETATM   13  C20 UNL     1       5.520  10.288  23.601  1.00  0.00     0.045 C 
ENDROOT
BRANCH   7  14
HETATM   14  C8  UNL     1       4.894   5.527  26.330  1.00  0.00     0.214 C 
BRANCH  14  15
HETATM   15  O1  UNL     1       3.518   5.602  26.184  1.00  0.00    -0.374 OA
ATOM     16  H1  UNL     1       3.074   5.140  26.885  1.00  0.00     0.211 HD
ENDBRANCH  14  15
BRANCH  14  17
HETATM   17  C9  UNL     1       5.237   4.891  27.631  1.00  0.00     0.056 C 
BRANCH  17  18
HETATM   18  C10 UNL     1       4.093   4.754  28.558  1.00  0.00     0.008 C 
BRANCH  18  19
HETATM   19  C11 UNL     1       4.240   5.283  29.956  1.00  0.00    -0.014 C 
HETATM   20  C12 UNL     1       5.754   5.530  30.124  1.00  0.00     0.004 C 
HETATM   21  C13 UNL     1       6.200   4.407  31.068  1.00  0.00     0.000 C 
HETATM   22  C14 UNL     1       5.026   4.463  32.072  1.00  0.00     0.000 C 
HETATM   23  C15 UNL     1       3.856   4.365  31.061  1.00  0.00     0.004 C 
ENDBRANCH  18  19
ENDBRANCH  17  18
ENDBRANCH  14  17
BRANCH  14  24
HETATM   24  C16 UNL     1       5.440   4.724  25.140  1.00  0.00     0.425 C 
HETATM   25  F1  UNL     1       5.990   5.463  24.189  1.00  0.00    -0.167 F 
HETATM   26  F2  UNL     1       6.370   3.827  25.685  1.00  0.00    -0.167 F 
HETATM   27  F3  UNL     1       4.413   3.894  24.659  1.00  0.00    -0.167 F 
ENDBRANCH  14  24
ENDBRANCH   7  14
BRANCH   1  28
HETATM   28  C3  UNL     1       6.731  12.671  25.250  1.00  0.00     0.154 A 
HETATM   29  C2  UNL     1       6.263  13.634  26.105  1.00  0.00     0.002 A 
HETATM   30  C1  UNL     1       5.670  13.490  27.454  1.00  0.00     0.054 C 
HETATM   31  C26 UNL     1       6.418  14.874  25.471  1.00  0.00     0.010 A 
HETATM   32  C21 UNL     1       6.976  14.591  24.256  1.00  0.00     0.088 A 
HETATM   33  C25 UNL     1       6.113  16.158  25.884  1.00  0.00     0.038 A 
HETATM   34  O2  UNL     1       7.144  13.287  24.164  1.00  0.00    -0.293 OA
HETATM   35  C22 UNL     1       7.238  15.648  23.413  1.00  0.00     0.040 A 
HETATM   36  C23 UNL     1       6.948  16.948  23.791  1.00  0.00     0.026 A 
HETATM   37  C24 UNL     1       6.385  17.219  25.022  1.00  0.00     0.035 A 
HETATM   38 CL1  UNL     1       6.039  18.874  25.461  1.00  0.00    -0.084 Cl
ENDBRANCH   1  28
TORSDOF 7
ENDMDL
MODEL 4
REMARK VINA RESULT: -7.403640444      1.909      3.532
REMARK  7 active torsions:
REMARK  status: ('A' for Active; 'I' for Inactive)
REMARK    1  A    between atoms: C3_3  and  N1_4 
REMARK    2  A    between atoms: C7_10  and  C8_11 
REMARK    3  A    between atoms: C8_11  and  O1_12 
REMARK    4  A    between atoms: C8_11  and  C9_14 
REMARK    5  A    between atoms: C8_11  and  C16_21 
REMARK    6  A    between atoms: C9_14  and  C10_15 
REMARK    7  A    between atoms: C10_15  and  C11_16 
ROOT
HETATM    1  N1  UNL     1       4.967  15.371  29.800  1.00  0.00    -0.346 N 
HETATM    2  C4  UNL     1       3.596  15.783  29.884  1.00  0.00     0.132 C 
HETATM    3  C5  UNL     1       3.184  16.463  31.132  1.00  0.00     0.079 C 
HETATM    4  C6  UNL     1       3.810  15.811  32.304  1.00  0.00     0.037 A 
HETATM    5  N2  UNL     1       3.409  15.711  33.614  1.00  0.00    -0.345 N 
ATOM      6  H2  UNL     1       2.536  16.077  33.993  1.00  0.00     0.167 HD
HETATM    7  C7  UNL     1       4.334  15.064  34.308  1.00  0.00     0.126 A 
HETATM    8  N3  UNL     1       5.317  14.742  33.466  1.00  0.00    -0.343 N 
ATOM      9  H3  UNL     1       6.165  14.234  33.719  1.00  0.00     0.167 HD
HETATM   10  C17 UNL     1       5.019  15.193  32.222  1.00  0.00     0.061 A 
HETATM   11  C18 UNL     1       5.776  15.139  30.951  1.00  0.00     0.071 C 
HETATM   12  C19 UNL     1       6.449  13.774  30.879  1.00  0.00     0.045 C 
HETATM   13  C20 UNL     1       6.908  16.164  31.112  1.00  0.00     0.045 C 
ENDROOT
BRANCH   7  14
HETATM   14  C8  UNL     1       4.354  14.849  35.829  1.00  0.00     0.214 C 
BRANCH  14  15
HETATM   15  O1  UNL     1       4.661  13.534  36.143  1.00  0.00    -0.374 OA
ATOM     16  H1  UNL     1       5.003  13.464  37.026  1.00  0.00     0.211 HD
ENDBRANCH  14  15
BRANCH  14  17
HETATM   17  C9  UNL     1       3.064  15.239  36.463  1.00  0.00     0.056 C 
BRANCH  17  18
HETATM   18  C10 UNL     1       2.359  14.125  37.133  1.00  0.00     0.008 C 
BRANCH  18  19
HETATM   19  C11 UNL     1       1.162  13.527  36.451  1.00  0.00    -0.014 C 
HETATM   20  C12 UNL     1       0.514  14.704  35.691  1.00  0.00     0.004 C 
HETATM   21  C13 UNL     1      -0.754  15.001  36.499  1.00  0.00     0.000 C 
HETATM   22  C14 UNL     1      -1.222  13.548  36.746  1.00  0.00     0.000 C 
HETATM   23  C15 UNL     1       0.095  12.981  37.333  1.00  0.00     0.004 C 
ENDBRANCH  18  19
ENDBRANCH  17  18
ENDBRANCH  14  17
BRANCH  14  24
HETATM   24  C16 UNL     1       5.518  15.723  36.319  1.00  0.00     0.425 C 
HETATM   25  F1  UNL     1       5.624  16.888  35.701  1.00  0.00    -0.167 F 
HETATM   26  F2  UNL     1       5.306  15.897  37.695  1.00  0.00    -0.167 F 
HETATM   27  F3  UNL     1       6.699  14.963  36.254  1.00  0.00    -0.167 F 
ENDBRANCH  14  24
ENDBRANCH   7  14
BRANCH   1  28
HETATM   28  C3  UNL     1       5.500  15.209  28.472  1.00  0.00     0.154 A 
HETATM   29  C2  UNL     1       5.676  16.201  27.544  1.00  0.00     0.002 A 
HETATM   30  C1  UNL     1       5.357  17.645  27.634  1.00  0.00     0.054 C 
HETATM   31  C26 UNL     1       6.228  15.615  26.397  1.00  0.00     0.010 A 
HETATM   32  C21 UNL     1       6.357  14.289  26.697  1.00  0.00     0.088 A 
HETATM   33  C25 UNL     1       6.601  16.157  25.180  1.00  0.00     0.038 A 
HETATM   34  O2  UNL     1       5.918  14.090  27.923  1.00  0.00    -0.293 OA
HETATM   35  C22 UNL     1       6.883  13.464  25.727  1.00  0.00     0.040 A 
HETATM   36  C23 UNL     1       7.269  13.968  24.497  1.00  0.00     0.026 A 
HETATM   37  C24 UNL     1       7.133  15.312  24.208  1.00  0.00     0.035 A 
HETATM   38 CL1  UNL     1       7.637  15.909  22.645  1.00  0.00    -0.084 Cl
ENDBRANCH   1  28
TORSDOF 7
ENDMDL
MODEL 5
REMARK VINA RESULT: -7.355869009      2.316      3.704
REMARK  7 active torsions:
REMARK  status: ('A' for Active; 'I' for Inactive)
REMARK    1  A    between atoms: C3_3  and  N1_4 
REMARK    2  A    between atoms: C7_10  and  C8_11 
REMARK    3  A    between atoms: C8_11  and  O1_12 
REMARK    4  A    between atoms: C8_11  and  C9_14 
REMARK    5  A    between atoms: C8_11  and  C16_21 
REMARK    6  A    between atoms: C9_14  and  C10_15 
REMARK    7  A    between atoms: C10_15  and  C11_16 
ROOT
HETATM    1  N1  UNL     1       5.327  14.463  30.812  1.00  0.00    -0.346 N 
HETATM    2  C4  UNL     1       4.257  15.415  30.873  1.00  0.00     0.132 C 
HETATM    3  C5  UNL     1       4.247  16.327  32.038  1.00  0.00     0.079 C 
HETATM    4  C6  UNL     1       4.626  15.595  33.268  1.00  0.00     0.037 A 
HETATM    5  N2  UNL     1       4.309  15.803  34.587  1.00  0.00    -0.345 N 
ATOM      6  H2  UNL     1       3.692  16.536  34.937  1.00  0.00     0.167 HD
HETATM    7  C7  UNL     1       4.929  14.902  35.335  1.00  0.00     0.126 A 
HETATM    8  N3  UNL     1       5.633  14.117  34.519  1.00  0.00    -0.343 N 
ATOM      9  H3  UNL     1       6.210  13.330  34.814  1.00  0.00     0.167 HD
HETATM   10  C17 UNL     1       5.464  14.524  33.236  1.00  0.00     0.061 A 
HETATM   11  C18 UNL     1       6.044  14.031  31.967  1.00  0.00     0.071 C 
HETATM   12  C19 UNL     1       6.088  12.510  32.045  1.00  0.00     0.045 C 
HETATM   13  C20 UNL     1       7.506  14.500  31.982  1.00  0.00     0.045 C 
ENDROOT
BRANCH   7  14
HETATM   14  C8  UNL     1       4.961  14.852  36.871  1.00  0.00     0.214 C 
BRANCH  14  15
HETATM   15  O1  UNL     1       5.283  13.582  37.322  1.00  0.00    -0.374 OA
ATOM     16  H1  UNL     1       5.537  13.598  38.237  1.00  0.00     0.211 HD
ENDBRANCH  14  15
BRANCH  14  17
HETATM   17  C9  UNL     1       3.671  15.295  37.468  1.00  0.00     0.056 C 
BRANCH  17  18
HETATM   18  C10 UNL     1       2.592  14.287  37.394  1.00  0.00     0.008 C 
BRANCH  18  19
HETATM   19  C11 UNL     1       1.250  14.716  36.875  1.00  0.00    -0.014 C 
HETATM   20  C12 UNL     1       0.871  13.643  35.832  1.00  0.00     0.004 C 
HETATM   21  C13 UNL     1       1.033  14.370  34.492  1.00  0.00     0.000 C 
HETATM   22  C14 UNL     1       0.376  15.717  34.873  1.00  0.00     0.000 C 
HETATM   23  C15 UNL     1       1.197  16.016  36.153  1.00  0.00     0.004 C 
ENDBRANCH  18  19
ENDBRANCH  17  18
ENDBRANCH  14  17
BRANCH  14  24
HETATM   24  C16 UNL     1       6.119  15.785  37.256  1.00  0.00     0.425 C 
HETATM   25  F1  UNL     1       6.708  16.376  36.228  1.00  0.00    -0.167 F 
HETATM   26  F2  UNL     1       5.567  16.729  38.134  1.00  0.00    -0.167 F 
HETATM   27  F3  UNL     1       7.019  15.064  38.059  1.00  0.00    -0.167 F 
ENDBRANCH  14  24
ENDBRANCH   7  14
BRANCH   1  28
HETATM   28  C3  UNL     1       5.656  13.961  29.503  1.00  0.00     0.154 A 
HETATM   29  C2  UNL     1       6.162  14.690  28.460  1.00  0.00     0.002 A 
HETATM   30  C1  UNL     1       6.473  16.136  28.383  1.00  0.00     0.054 C 
HETATM   31  C26 UNL     1       6.345  13.815  27.380  1.00  0.00     0.010 A 
HETATM   32  C21 UNL     1       5.935  12.593  27.834  1.00  0.00     0.088 A 
HETATM   33  C25 UNL     1       6.825  14.026  26.100  1.00  0.00     0.038 A 
HETATM   34  O2  UNL     1       5.537  12.720  29.083  1.00  0.00    -0.293 OA
HETATM   35  C22 UNL     1       6.007  11.531  26.959  1.00  0.00     0.040 A 
HETATM   36  C23 UNL     1       6.483  11.702  25.670  1.00  0.00     0.026 A 
HETATM   37  C24 UNL     1       6.895  12.944  25.226  1.00  0.00     0.035 A 
HETATM   38 CL1  UNL     1       7.493  13.115  23.593  1.00  0.00    -0.084 Cl
ENDBRANCH   1  28
TORSDOF 7
ENDMDL
