MODEL 1
REMARK VINA RESULT: -6.593060669      0.000      0.000
REMARK  8 active torsions:
REMARK  status: ('A' for Active; 'I' for Inactive)
REMARK    1  A    between atoms: C2_2  and  N1_3 
REMARK    2  A    between atoms: N1_3  and  S1_5 
REMARK    3  A    between atoms: S1_5  and  C3_8 
REMARK    4  A    between atoms: C5_12  and  N3_13 
REMARK    5  A    between atoms: N3_13  and  C6_15 
REMARK    6  A    between atoms: C6_15  and  C7_16 
REMARK    7  A    between atoms: C7_16  and  N4_17 
REMARK    8  A    between atoms: C8_23  and  N6_24 
ROOT
HETATM    1  C3  UNL     1      -8.166  15.323  20.371  1.00  0.00     0.139 A 
HETATM    2  C4  UNL     1      -7.805  14.041  20.731  1.00  0.00     0.135 A 
HETATM    3  N2  UNL     1      -8.697  13.161  21.197  1.00  0.00    -0.200 N 
ATOM      4  H2  UNL     1      -8.402  12.219  21.455  1.00  0.00     0.183 HD
HETATM    5  C5  UNL     1      -9.986  13.526  21.323  1.00  0.00     0.679 A 
HETATM    6  N5  UNL     1     -10.385  14.781  20.979  1.00  0.00    -0.175 N 
ATOM      7  H5  UNL     1     -11.365  15.048  21.078  1.00  0.00     0.186 HD
HETATM    8  C8  UNL     1      -9.497  15.664  20.512  1.00  0.00     0.141 A 
ENDROOT
BRANCH   5   9
HETATM    9  N3  UNL     1     -10.880  12.707  21.769  1.00  0.00    -0.224 N 
ATOM     10  H3  UNL     1     -10.653  11.722  21.907  1.00  0.00     0.177 HD
BRANCH   9  11
HETATM   11  C6  UNL     1     -12.210  13.200  22.071  1.00  0.00     0.165 C 
BRANCH  11  12
HETATM   12  C7  UNL     1     -12.796  12.400  23.216  1.00  0.00     0.249 C 
BRANCH  12  13
HETATM   13  N4  UNL     1     -12.591  10.991  23.063  1.00  0.00    -0.078 N 
ATOM     14  H43 UNL     1     -13.265  10.592  22.410  1.00  0.00     0.274 HD
ATOM     15  H42 UNL     1     -11.731  10.799  22.550  1.00  0.00     0.274 HD
ATOM     16  H41 UNL     1     -12.606  10.494  23.954  1.00  0.00     0.274 HD
ENDBRANCH  12  13
ENDBRANCH  11  12
ENDBRANCH   9  11
ENDBRANCH   5   9
BRANCH   8  17
HETATM   17  N6  UNL     1      -9.851  16.855  20.181  1.00  0.00    -0.379 N 
HETATM   18  C9  UNL     1     -10.275  17.854  21.131  1.00  0.00     0.147 C 
ATOM     19  H6  UNL     1      -9.831  17.107  19.193  1.00  0.00     0.160 HD
ENDBRANCH   8  17
BRANCH   1  20
HETATM   20  S1  UNL     1      -6.985  16.484  19.755  1.00  0.00     0.263 S 
HETATM   21  O1  UNL     1      -6.985  17.649  20.680  1.00  0.00    -0.200 OA
HETATM   22  O2  UNL     1      -7.423  16.916  18.394  1.00  0.00    -0.200 OA
BRANCH  20  23
HETATM   23  N1  UNL     1      -5.480  15.707  19.630  1.00  0.00    -0.316 N 
ATOM     24  H1  UNL     1      -4.732  15.825  20.313  1.00  0.00     0.172 HD
BRANCH  23  25
HETATM   25  C2  UNL     1      -5.363  14.863  18.462  1.00  0.00     0.128 C 
HETATM   26  C1  UNL     1      -3.970  14.772  17.937  1.00  0.00     0.027 C 
ENDBRANCH  23  25
ENDBRANCH  20  23
ENDBRANCH   1  20
TORSDOF 8
ENDMDL
MODEL 2
REMARK VINA RESULT: -6.213910243      2.001      2.965
REMARK  8 active torsions:
REMARK  status: ('A' for Active; 'I' for Inactive)
REMARK    1  A    between atoms: C2_2  and  N1_3 
REMARK    2  A    between atoms: N1_3  and  S1_5 
REMARK    3  A    between atoms: S1_5  and  C3_8 
REMARK    4  A    between atoms: C5_12  and  N3_13 
REMARK    5  A    between atoms: N3_13  and  C6_15 
REMARK    6  A    between atoms: C6_15  and  C7_16 
REMARK    7  A    between atoms: C7_16  and  N4_17 
REMARK    8  A    between atoms: C8_23  and  N6_24 
ROOT
HETATM    1  C3  UNL     1     -10.276  14.976  21.301  1.00  0.00     0.139 A 
HETATM    2  C4  UNL     1     -11.301  15.077  22.219  1.00  0.00     0.135 A 
HETATM    3  N2  UNL     1     -11.968  14.002  22.653  1.00  0.00    -0.200 N 
ATOM      4  H2  UNL     1     -12.721  14.106  23.333  1.00  0.00     0.183 HD
HETATM    5  C5  UNL     1     -11.639  12.784  22.188  1.00  0.00     0.679 A 
HETATM    6  N5  UNL     1     -10.634  12.639  21.281  1.00  0.00    -0.175 N 
ATOM      7  H5  UNL     1     -10.391  11.711  20.934  1.00  0.00     0.186 HD
HETATM    8  C8  UNL     1      -9.963  13.710  20.845  1.00  0.00     0.141 A 
ENDROOT
BRANCH   5   9
HETATM    9  N3  UNL     1     -12.257  11.720  22.580  1.00  0.00    -0.224 N 
ATOM     10  H3  UNL     1     -12.024  10.811  22.179  1.00  0.00     0.177 HD
BRANCH   9  11
HETATM   11  C6  UNL     1     -13.287  11.827  23.596  1.00  0.00     0.165 C 
BRANCH  11  12
HETATM   12  C7  UNL     1     -13.470  10.485  24.273  1.00  0.00     0.249 C 
BRANCH  12  13
HETATM   13  N4  UNL     1     -12.623   9.471  23.722  1.00  0.00    -0.078 N 
ATOM     14  H43 UNL     1     -12.042   9.846  22.972  1.00  0.00     0.274 HD
ATOM     15  H42 UNL     1     -11.890   9.207  24.380  1.00  0.00     0.274 HD
ATOM     16  H41 UNL     1     -13.145   8.653  23.406  1.00  0.00     0.274 HD
ENDBRANCH  12  13
ENDBRANCH  11  12
ENDBRANCH   9  11
ENDBRANCH   5   9
BRANCH   8  17
HETATM   17  N6  UNL     1      -9.010  13.597  19.989  1.00  0.00    -0.379 N 
HETATM   18  C9  UNL     1      -8.025  12.545  20.025  1.00  0.00     0.147 C 
ATOM     19  H6  UNL     1      -8.948  14.291  19.243  1.00  0.00     0.160 HD
ENDBRANCH   8  17
BRANCH   1  20
HETATM   20  S1  UNL     1      -9.396  16.397  20.730  1.00  0.00     0.263 S 
HETATM   21  O1  UNL     1     -10.146  17.597  21.190  1.00  0.00    -0.200 OA
HETATM   22  O2  UNL     1      -9.368  16.358  19.236  1.00  0.00    -0.200 OA
BRANCH  20  23
HETATM   23  N1  UNL     1      -7.804  16.317  21.313  1.00  0.00    -0.316 N 
ATOM     24  H1  UNL     1      -7.568  15.979  22.246  1.00  0.00     0.172 HD
BRANCH  23  25
HETATM   25  C2  UNL     1      -6.817  16.773  20.361  1.00  0.00     0.128 C 
HETATM   26  C1  UNL     1      -5.940  15.680  19.850  1.00  0.00     0.027 C 
ENDBRANCH  23  25
ENDBRANCH  20  23
ENDBRANCH   1  20
TORSDOF 8
ENDMDL
MODEL 3
REMARK VINA RESULT: -6.003701804      1.416      1.906
REMARK  8 active torsions:
REMARK  status: ('A' for Active; 'I' for Inactive)
REMARK    1  A    between atoms: C2_2  and  N1_3 
REMARK    2  A    between atoms: N1_3  and  S1_5 
REMARK    3  A    between atoms: S1_5  and  C3_8 
REMARK    4  A    between atoms: C5_12  and  N3_13 
REMARK    5  A    between atoms: N3_13  and  C6_15 
REMARK    6  A    between atoms: C6_15  and  C7_16 
REMARK    7  A    between atoms: C7_16  and  N4_17 
REMARK    8  A    between atoms: C8_23  and  N6_24 
ROOT
HETATM    1  C3  UNL     1      -8.759  14.945  20.659  1.00  0.00     0.139 A 
HETATM    2  C4  UNL     1      -9.737  14.454  19.819  1.00  0.00     0.135 A 
HETATM    3  N2  UNL     1     -10.659  13.584  20.241  1.00  0.00    -0.200 N 
ATOM      4  H2  UNL     1     -11.372  13.238  19.598  1.00  0.00     0.183 HD
HETATM    5  C5  UNL     1     -10.642  13.167  21.520  1.00  0.00     0.679 A 
HETATM    6  N5  UNL     1      -9.694  13.625  22.383  1.00  0.00    -0.175 N 
ATOM      7  H5  UNL     1      -9.689  13.303  23.351  1.00  0.00     0.186 HD
HETATM    8  C8  UNL     1      -8.771  14.496  21.966  1.00  0.00     0.141 A 
ENDROOT
BRANCH   5   9
HETATM    9  N3  UNL     1     -11.514  12.326  21.970  1.00  0.00    -0.224 N 
ATOM     10  H3  UNL     1     -11.473  11.345  21.693  1.00  0.00     0.177 HD
BRANCH   9  11
HETATM   11  C6  UNL     1     -12.551  12.789  22.872  1.00  0.00     0.165 C 
BRANCH  11  12
HETATM   12  C7  UNL     1     -13.249  11.597  23.491  1.00  0.00     0.249 C 
BRANCH  12  13
HETATM   13  N4  UNL     1     -12.635  10.354  23.135  1.00  0.00    -0.078 N 
ATOM     14  H43 UNL     1     -13.092   9.571  23.603  1.00  0.00     0.274 HD
ATOM     15  H42 UNL     1     -12.839  10.107  22.166  1.00  0.00     0.274 HD
ATOM     16  H41 UNL     1     -11.630  10.349  23.310  1.00  0.00     0.274 HD
ENDBRANCH  12  13
ENDBRANCH  11  12
ENDBRANCH   9  11
ENDBRANCH   5   9
BRANCH   8  17
HETATM   17  N6  UNL     1      -7.866  14.943  22.763  1.00  0.00    -0.379 N 
HETATM   18  C9  UNL     1      -7.714  14.499  24.127  1.00  0.00     0.147 C 
ATOM     19  H6  UNL     1      -7.220  15.650  22.412  1.00  0.00     0.160 HD
ENDBRANCH   8  17
BRANCH   1  20
HETATM   20  S1  UNL     1      -7.541  16.095  20.098  1.00  0.00     0.263 S 
HETATM   21  O1  UNL     1      -7.523  17.227  21.064  1.00  0.00    -0.200 OA
HETATM   22  O2  UNL     1      -7.953  16.587  18.748  1.00  0.00    -0.200 OA
BRANCH  20  23
HETATM   23  N1  UNL     1      -6.056  15.285  19.961  1.00  0.00    -0.316 N 
ATOM     24  H1  UNL     1      -5.419  15.149  20.746  1.00  0.00     0.172 HD
BRANCH  23  25
HETATM   25  C2  UNL     1      -5.781  14.806  18.625  1.00  0.00     0.128 C 
HETATM   26  C1  UNL     1      -4.382  15.066  18.180  1.00  0.00     0.027 C 
ENDBRANCH  23  25
ENDBRANCH  20  23
ENDBRANCH   1  20
TORSDOF 8
ENDMDL
MODEL 4
REMARK VINA RESULT: -5.839253822      1.506      1.869
REMARK  8 active torsions:
REMARK  status: ('A' for Active; 'I' for Inactive)
REMARK    1  A    between atoms: C2_2  and  N1_3 
REMARK    2  A    between atoms: N1_3  and  S1_5 
REMARK    3  A    between atoms: S1_5  and  C3_8 
REMARK    4  A    between atoms: C5_12  and  N3_13 
REMARK    5  A    between atoms: N3_13  and  C6_15 
REMARK    6  A    between atoms: C6_15  and  C7_16 
REMARK    7  A    between atoms: C7_16  and  N4_17 
REMARK    8  A    between atoms: C8_23  and  N6_24 
ROOT
HETATM    1  C3  UNL     1      -8.023  14.710  19.868  1.00  0.00     0.139 A 
HETATM    2  C4  UNL     1      -7.795  13.402  20.245  1.00  0.00     0.135 A 
HETATM    3  N2  UNL     1      -8.744  12.657  20.819  1.00  0.00    -0.200 N 
ATOM      4  H2  UNL     1      -8.548  11.692  21.086  1.00  0.00     0.183 HD
HETATM    5  C5  UNL     1      -9.961  13.187  21.041  1.00  0.00     0.679 A 
HETATM    6  N5  UNL     1     -10.229  14.473  20.685  1.00  0.00    -0.175 N 
ATOM      7  H5  UNL     1     -11.154  14.867  20.858  1.00  0.00     0.186 HD
HETATM    8  C8  UNL     1      -9.283  15.222  20.110  1.00  0.00     0.141 A 
ENDROOT
BRANCH   5   9
HETATM    9  N3  UNL     1     -10.906  12.502  21.593  1.00  0.00    -0.224 N 
ATOM     10  H3  UNL     1     -10.813  11.492  21.705  1.00  0.00     0.177 HD
BRANCH   9  11
HETATM   11  C6  UNL     1     -12.102  13.180  22.053  1.00  0.00     0.165 C 
BRANCH  11  12
HETATM   12  C7  UNL     1     -12.741  12.377  23.167  1.00  0.00     0.249 C 
BRANCH  12  13
HETATM   13  N4  UNL     1     -12.575  10.966  22.992  1.00  0.00    -0.078 N 
ATOM     14  H43 UNL     1     -12.723  10.697  22.020  1.00  0.00     0.274 HD
ATOM     15  H42 UNL     1     -11.596  10.697  23.090  1.00  0.00     0.274 HD
ATOM     16  H41 UNL     1     -13.169  10.421  23.618  1.00  0.00     0.274 HD
ENDBRANCH  12  13
ENDBRANCH  11  12
ENDBRANCH   9  11
ENDBRANCH   5   9
BRANCH   8  17
HETATM   17  N6  UNL     1      -9.514  16.440  19.766  1.00  0.00    -0.379 N 
HETATM   18  C9  UNL     1     -10.139  17.409  20.632  1.00  0.00     0.147 C 
ATOM     19  H6  UNL     1      -9.239  16.736  18.830  1.00  0.00     0.160 HD
ENDBRANCH   8  17
BRANCH   1  20
HETATM   20  S1  UNL     1      -6.766  15.693  19.109  1.00  0.00     0.263 S 
HETATM   21  O1  UNL     1      -7.447  16.802  18.388  1.00  0.00    -0.200 OA
HETATM   22  O2  UNL     1      -6.027  14.833  18.137  1.00  0.00    -0.200 OA
BRANCH  20  23
HETATM   23  N1  UNL     1      -5.690  16.215  20.314  1.00  0.00    -0.316 N 
ATOM     24  H1  UNL     1      -4.677  16.218  20.194  1.00  0.00     0.172 HD
BRANCH  23  25
HETATM   25  C2  UNL     1      -6.347  16.653  21.524  1.00  0.00     0.128 C 
HETATM   26  C1  UNL     1      -6.865  18.049  21.443  1.00  0.00     0.027 C 
ENDBRANCH  23  25
ENDBRANCH  20  23
ENDBRANCH   1  20
TORSDOF 8
ENDMDL
MODEL 5
REMARK VINA RESULT: -5.761999221      2.743      6.331
REMARK  8 active torsions:
REMARK  status: ('A' for Active; 'I' for Inactive)
REMARK    1  A    between atoms: C2_2  and  N1_3 
REMARK    2  A    between atoms: N1_3  and  S1_5 
REMARK    3  A    between atoms: S1_5  and  C3_8 
REMARK    4  A    between atoms: C5_12  and  N3_13 
REMARK    5  A    between atoms: N3_13  and  C6_15 
REMARK    6  A    between atoms: C6_15  and  C7_16 
REMARK    7  A    between atoms: C7_16  and  N4_17 
REMARK    8  A    between atoms: C8_23  and  N6_24 
ROOT
HETATM    1  C3  UNL     1      -9.879  13.747  20.707  1.00  0.00     0.139 A 
HETATM    2  C4  UNL     1      -9.037  12.656  20.644  1.00  0.00     0.135 A 
HETATM    3  N2  UNL     1      -7.809  12.740  20.121  1.00  0.00    -0.200 N 
ATOM      4  H2  UNL     1      -7.208  11.917  20.088  1.00  0.00     0.183 HD
HETATM    5  C5  UNL     1      -7.373  13.918  19.639  1.00  0.00     0.679 A 
HETATM    6  N5  UNL     1      -8.172  15.020  19.681  1.00  0.00    -0.175 N 
ATOM      7  H5  UNL     1      -7.832  15.909  19.313  1.00  0.00     0.186 HD
HETATM    8  C8  UNL     1      -9.399  14.941  20.204  1.00  0.00     0.141 A 
ENDROOT
BRANCH   5   9
HETATM    9  N3  UNL     1      -6.195  14.044  19.125  1.00  0.00    -0.224 N 
ATOM     10  H3  UNL     1      -5.705  13.229  18.754  1.00  0.00     0.177 HD
BRANCH   9  11
HETATM   11  C6  UNL     1      -5.573  15.353  19.080  1.00  0.00     0.165 C 
BRANCH  11  12
HETATM   12  C7  UNL     1      -4.290  15.275  18.280  1.00  0.00     0.249 C 
BRANCH  12  13
HETATM   13  N4  UNL     1      -4.126  14.012  17.626  1.00  0.00    -0.078 N 
ATOM     14  H43 UNL     1      -3.536  13.388  18.176  1.00  0.00     0.274 HD
ATOM     15  H42 UNL     1      -4.993  13.474  17.643  1.00  0.00     0.274 HD
ATOM     16  H41 UNL     1      -3.772  14.106  16.674  1.00  0.00     0.274 HD
ENDBRANCH  12  13
ENDBRANCH  11  12
ENDBRANCH   9  11
ENDBRANCH   5   9
BRANCH   8  17
HETATM   17  N6  UNL     1     -10.171  15.968  20.254  1.00  0.00    -0.379 N 
HETATM   18  C9  UNL     1      -9.777  17.235  20.821  1.00  0.00     0.147 C 
ATOM     19  H6  UNL     1     -11.113  15.883  19.873  1.00  0.00     0.160 HD
ENDBRANCH   8  17
BRANCH   1  20
HETATM   20  S1  UNL     1     -11.501  13.632  21.399  1.00  0.00     0.263 S 
HETATM   21  O1  UNL     1     -12.471  13.783  20.281  1.00  0.00    -0.200 OA
HETATM   22  O2  UNL     1     -11.671  14.751  22.374  1.00  0.00    -0.200 OA
BRANCH  20  23
HETATM   23  N1  UNL     1     -11.630  12.155  22.226  1.00  0.00    -0.316 N 
ATOM     24  H1  UNL     1     -10.950  11.401  22.133  1.00  0.00     0.172 HD
BRANCH  23  25
HETATM   25  C2  UNL     1     -12.797  12.070  23.075  1.00  0.00     0.128 C 
HETATM   26  C1  UNL     1     -13.138  10.674  23.473  1.00  0.00     0.027 C 
ENDBRANCH  23  25
ENDBRANCH  20  23
ENDBRANCH   1  20
TORSDOF 8
ENDMDL
