MODEL 1
REMARK VINA RESULT: -6.315094565      0.000      0.000
REMARK  9 active torsions:
REMARK  status: ('A' for Active; 'I' for Inactive)
REMARK    1  A    between atoms: C2_2  and  C3_3 
REMARK    2  A    between atoms: C3_3  and  C4_4 
REMARK    3  A    between atoms: C4_4  and  C5_5 
REMARK    4  A    between atoms: C5_5  and  N1_6 
REMARK    5  A    between atoms: N2_9  and  C8_10 
REMARK    6  A    between atoms: C8_10  and  C9_11 
REMARK    7  A    between atoms: C9_11  and  C10_12 
REMARK    8  A    between atoms: C12_14  and  N4_17 
REMARK    9  A    between atoms: N4_17  and  N5_19 
ROOT
HETATM    1  N1  UNL     1     -25.678   0.380  -8.773  1.00  0.00    -0.387 N 
HETATM    2  C6  UNL     1     -25.621   1.758  -8.825  1.00  0.00     0.142 C 
HETATM    3  C7  UNL     1     -24.296   2.209  -8.180  1.00  0.00     0.145 C 
HETATM    4  N2  UNL     1     -23.175   1.699  -8.851  1.00  0.00    -0.352 N 
HETATM    5  C12 UNL     1     -23.321   0.434  -9.459  1.00  0.00     0.226 C 
HETATM    6  C13 UNL     1     -23.748   0.682 -10.876  1.00  0.00     0.117 C 
HETATM    7  N3  UNL     1     -24.064   0.861 -11.995  1.00  0.00    -0.192 NA
HETATM    8  C14 UNL     1     -24.469  -0.362  -8.821  1.00  0.00     0.193 C 
ENDROOT
BRANCH   5   9
HETATM    9  N4  UNL     1     -22.255  -0.467  -9.541  1.00  0.00    -0.300 N 
ATOM     10  H4  UNL     1     -22.069  -1.076  -8.743  1.00  0.00     0.183 HD
BRANCH   9  11
HETATM   11  N5  UNL     1     -21.469  -0.567 -10.620  1.00  0.00    -0.346 N 
ATOM     12  H52 UNL     1     -21.669  -1.317 -11.282  1.00  0.00     0.176 HD
ATOM     13  H51 UNL     1     -20.692   0.070 -10.799  1.00  0.00     0.176 HD
ENDBRANCH   9  11
ENDBRANCH   5   9
BRANCH   4  14
HETATM   14  C8  UNL     1     -21.965   2.375  -8.871  1.00  0.00     0.062 C 
BRANCH  14  15
HETATM   15  C9  UNL     1     -21.613   3.324  -7.788  1.00  0.00     0.044 C 
BRANCH  15  16
HETATM   16  C10 UNL     1     -20.331   4.045  -7.794  1.00  0.00     0.001 C 
HETATM   17  C11 UNL     1     -19.596   4.034  -9.121  1.00  0.00     0.005 C 
ENDBRANCH  15  16
ENDBRANCH  14  15
ENDBRANCH   4  14
BRANCH   1  18
HETATM   18  C5  UNL     1     -26.823  -0.305  -8.386  1.00  0.00     0.058 C 
BRANCH  18  19
HETATM   19  C4  UNL     1     -27.719   0.234  -7.354  1.00  0.00     0.044 C 
BRANCH  19  20
HETATM   20  C3  UNL     1     -27.354  -0.140  -5.939  1.00  0.00     0.005 C 
BRANCH  20  21
HETATM   21  C2  UNL     1     -26.324   0.859  -5.422  1.00  0.00    -0.004 C 
HETATM   22  C1  UNL     1     -25.096   0.097  -4.984  1.00  0.00     0.005 C 
ENDBRANCH  20  21
ENDBRANCH  19  20
ENDBRANCH  18  19
ENDBRANCH   1  18
TORSDOF 9
ENDMDL
MODEL 2
REMARK VINA RESULT: -6.234053824      3.337      5.379
REMARK  9 active torsions:
REMARK  status: ('A' for Active; 'I' for Inactive)
REMARK    1  A    between atoms: C2_2  and  C3_3 
REMARK    2  A    between atoms: C3_3  and  C4_4 
REMARK    3  A    between atoms: C4_4  and  C5_5 
REMARK    4  A    between atoms: C5_5  and  N1_6 
REMARK    5  A    between atoms: N2_9  and  C8_10 
REMARK    6  A    between atoms: C8_10  and  C9_11 
REMARK    7  A    between atoms: C9_11  and  C10_12 
REMARK    8  A    between atoms: C12_14  and  N4_17 
REMARK    9  A    between atoms: N4_17  and  N5_19 
ROOT
HETATM    1  N1  UNL     1     -21.018   3.577  -9.792  1.00  0.00    -0.387 N 
HETATM    2  C6  UNL     1     -20.999   4.321 -10.953  1.00  0.00     0.142 C 
HETATM    3  C7  UNL     1     -19.539   4.425 -11.434  1.00  0.00     0.145 C 
HETATM    4  N2  UNL     1     -18.977   3.170 -11.710  1.00  0.00    -0.352 N 
HETATM    5  C12 UNL     1     -19.436   2.085 -10.933  1.00  0.00     0.226 C 
HETATM    6  C13 UNL     1     -20.576   1.466 -11.686  1.00  0.00     0.117 C 
HETATM    7  N3  UNL     1     -21.460   0.957 -12.274  1.00  0.00    -0.192 NA
HETATM    8  C14 UNL     1     -20.038   2.567  -9.605  1.00  0.00     0.193 C 
ENDROOT
BRANCH   5   9
HETATM    9  N4  UNL     1     -18.595   1.024 -10.586  1.00  0.00    -0.300 N 
ATOM     10  H4  UNL     1     -17.641   1.233 -10.293  1.00  0.00     0.183 HD
BRANCH   9  11
HETATM   11  N5  UNL     1     -18.988  -0.256 -10.622  1.00  0.00    -0.346 N 
ATOM     12  H52 UNL     1     -19.823  -0.478 -11.164  1.00  0.00     0.176 HD
ATOM     13  H51 UNL     1     -18.490  -1.001 -10.136  1.00  0.00     0.176 HD
ENDBRANCH   9  11
ENDBRANCH   5   9
BRANCH   4  14
HETATM   14  C8  UNL     1     -17.981   3.007 -12.660  1.00  0.00     0.062 C 
BRANCH  14  15
HETATM   15  C9  UNL     1     -18.008   3.786 -13.921  1.00  0.00     0.044 C 
BRANCH  15  16
HETATM   16  C10 UNL     1     -18.353   3.149 -15.202  1.00  0.00     0.001 C 
HETATM   17  C11 UNL     1     -19.694   2.438 -15.223  1.00  0.00     0.005 C 
ENDBRANCH  15  16
ENDBRANCH  14  15
ENDBRANCH   4  14
BRANCH   1  18
HETATM   18  C5  UNL     1     -21.757   3.952  -8.677  1.00  0.00     0.058 C 
BRANCH  18  19
HETATM   19  C4  UNL     1     -21.447   3.416  -7.344  1.00  0.00     0.044 C 
BRANCH  19  20
HETATM   20  C3  UNL     1     -22.587   2.696  -6.669  1.00  0.00     0.005 C 
BRANCH  20  21
HETATM   21  C2  UNL     1     -23.875   3.010  -7.422  1.00  0.00    -0.004 C 
HETATM   22  C1  UNL     1     -25.031   2.385  -6.677  1.00  0.00     0.005 C 
ENDBRANCH  20  21
ENDBRANCH  19  20
ENDBRANCH  18  19
ENDBRANCH   1  18
TORSDOF 9
ENDMDL
MODEL 3
REMARK VINA RESULT: -6.166634511      1.417      2.291
REMARK  9 active torsions:
REMARK  status: ('A' for Active; 'I' for Inactive)
REMARK    1  A    between atoms: C2_2  and  C3_3 
REMARK    2  A    between atoms: C3_3  and  C4_4 
REMARK    3  A    between atoms: C4_4  and  C5_5 
REMARK    4  A    between atoms: C5_5  and  N1_6 
REMARK    5  A    between atoms: N2_9  and  C8_10 
REMARK    6  A    between atoms: C8_10  and  C9_11 
REMARK    7  A    between atoms: C9_11  and  C10_12 
REMARK    8  A    between atoms: C12_14  and  N4_17 
REMARK    9  A    between atoms: N4_17  and  N5_19 
ROOT
HETATM    1  N1  UNL     1     -24.330   0.462  -6.204  1.00  0.00    -0.387 N 
HETATM    2  C6  UNL     1     -24.468   1.806  -5.924  1.00  0.00     0.142 C 
HETATM    3  C7  UNL     1     -23.163   2.518  -6.329  1.00  0.00     0.145 C 
HETATM    4  N2  UNL     1     -22.883   2.382  -7.696  1.00  0.00    -0.352 N 
HETATM    5  C12 UNL     1     -23.310   1.188  -8.316  1.00  0.00     0.226 C 
HETATM    6  C13 UNL     1     -24.676   1.456  -8.874  1.00  0.00     0.117 C 
HETATM    7  N3  UNL     1     -25.741   1.656  -9.335  1.00  0.00    -0.192 NA
HETATM    8  C14 UNL     1     -23.503   0.065  -7.287  1.00  0.00     0.193 C 
ENDROOT
BRANCH   5   9
HETATM    9  N4  UNL     1     -22.586   0.604  -9.359  1.00  0.00    -0.300 N 
ATOM     10  H4  UNL     1     -22.353   1.176 -10.172  1.00  0.00     0.183 HD
BRANCH   9  11
HETATM   11  N5  UNL     1     -22.184  -0.673  -9.338  1.00  0.00    -0.346 N 
ATOM     12  H52 UNL     1     -22.842  -1.369  -8.985  1.00  0.00     0.176 HD
ATOM     13  H51 UNL     1     -21.261  -0.968  -9.656  1.00  0.00     0.176 HD
ENDBRANCH   9  11
ENDBRANCH   5   9
BRANCH   4  14
HETATM   14  C8  UNL     1     -22.174   3.346  -8.397  1.00  0.00     0.062 C 
BRANCH  14  15
HETATM   15  C9  UNL     1     -20.791   3.702  -7.999  1.00  0.00     0.044 C 
BRANCH  15  16
HETATM   16  C10 UNL     1     -19.703   3.750  -8.987  1.00  0.00     0.001 C 
HETATM   17  C11 UNL     1     -19.627   2.551  -9.914  1.00  0.00     0.005 C 
ENDBRANCH  15  16
ENDBRANCH  14  15
ENDBRANCH   4  14
BRANCH   1  18
HETATM   18  C5  UNL     1     -24.721  -0.530  -5.313  1.00  0.00     0.058 C 
BRANCH  18  19
HETATM   19  C4  UNL     1     -25.759  -0.278  -4.304  1.00  0.00     0.044 C 
BRANCH  19  20
HETATM   20  C3  UNL     1     -27.147  -0.720  -4.698  1.00  0.00     0.005 C 
BRANCH  20  21
HETATM   21  C2  UNL     1     -27.831   0.425  -5.436  1.00  0.00    -0.004 C 
HETATM   22  C1  UNL     1     -27.908   0.071  -6.903  1.00  0.00     0.005 C 
ENDBRANCH  20  21
ENDBRANCH  19  20
ENDBRANCH  18  19
ENDBRANCH   1  18
TORSDOF 9
ENDMDL
MODEL 4
REMARK VINA RESULT: -6.024192517      1.976      6.187
REMARK  9 active torsions:
REMARK  status: ('A' for Active; 'I' for Inactive)
REMARK    1  A    between atoms: C2_2  and  C3_3 
REMARK    2  A    between atoms: C3_3  and  C4_4 
REMARK    3  A    between atoms: C4_4  and  C5_5 
REMARK    4  A    between atoms: C5_5  and  N1_6 
REMARK    5  A    between atoms: N2_9  and  C8_10 
REMARK    6  A    between atoms: C8_10  and  C9_11 
REMARK    7  A    between atoms: C9_11  and  C10_12 
REMARK    8  A    between atoms: C12_14  and  N4_17 
REMARK    9  A    between atoms: N4_17  and  N5_19 
ROOT
HETATM    1  N1  UNL     1     -23.231   2.473  -7.432  1.00  0.00    -0.387 N 
HETATM    2  C6  UNL     1     -22.993   1.968  -6.171  1.00  0.00     0.142 C 
HETATM    3  C7  UNL     1     -24.339   1.878  -5.426  1.00  0.00     0.145 C 
HETATM    4  N2  UNL     1     -25.251   1.030  -6.072  1.00  0.00    -0.352 N 
HETATM    5  C12 UNL     1     -25.165   0.960  -7.479  1.00  0.00     0.226 C 
HETATM    6  C13 UNL     1     -24.250  -0.185  -7.800  1.00  0.00     0.117 C 
HETATM    7  N3  UNL     1     -23.550  -1.092  -8.068  1.00  0.00    -0.192 NA
HETATM    8  C14 UNL     1     -24.477   2.205  -8.057  1.00  0.00     0.193 C 
ENDROOT
BRANCH   5   9
HETATM    9  N4  UNL     1     -26.298   0.769  -8.274  1.00  0.00    -0.300 N 
ATOM     10  H4  UNL     1     -26.836   1.587  -8.562  1.00  0.00     0.183 HD
BRANCH   9  11
HETATM   11  N5  UNL     1     -26.710  -0.441  -8.674  1.00  0.00    -0.346 N 
ATOM     12  H52 UNL     1     -26.180  -1.250  -8.351  1.00  0.00     0.176 HD
ATOM     13  H51 UNL     1     -27.519  -0.577  -9.280  1.00  0.00     0.176 HD
ENDBRANCH   9  11
ENDBRANCH   5   9
BRANCH   4  14
HETATM   14  C8  UNL     1     -26.225   0.335  -5.372  1.00  0.00     0.062 C 
BRANCH  14  15
HETATM   15  C9  UNL     1     -25.848  -0.724  -4.406  1.00  0.00     0.044 C 
BRANCH  15  16
HETATM   16  C10 UNL     1     -26.872  -1.513  -3.704  1.00  0.00     0.001 C 
HETATM   17  C11 UNL     1     -28.130  -0.748  -3.337  1.00  0.00     0.005 C 
ENDBRANCH  15  16
ENDBRANCH  14  15
ENDBRANCH   4  14
BRANCH   1  18
HETATM   18  C5  UNL     1     -22.440   3.464  -8.001  1.00  0.00     0.058 C 
BRANCH  18  19
HETATM   19  C4  UNL     1     -21.068   3.702  -7.532  1.00  0.00     0.044 C 
BRANCH  19  20
HETATM   20  C3  UNL     1     -20.021   3.716  -8.618  1.00  0.00     0.005 C 
BRANCH  20  21
HETATM   21  C2  UNL     1     -20.580   2.999  -9.842  1.00  0.00    -0.004 C 
HETATM   22  C1  UNL     1     -19.551   2.005 -10.326  1.00  0.00     0.005 C 
ENDBRANCH  20  21
ENDBRANCH  19  20
ENDBRANCH  18  19
ENDBRANCH   1  18
TORSDOF 9
ENDMDL
MODEL 5
REMARK VINA RESULT: -5.997630484      2.830      5.444
REMARK  9 active torsions:
REMARK  status: ('A' for Active; 'I' for Inactive)
REMARK    1  A    between atoms: C2_2  and  C3_3 
REMARK    2  A    between atoms: C3_3  and  C4_4 
REMARK    3  A    between atoms: C4_4  and  C5_5 
REMARK    4  A    between atoms: C5_5  and  N1_6 
REMARK    5  A    between atoms: N2_9  and  C8_10 
REMARK    6  A    between atoms: C8_10  and  C9_11 
REMARK    7  A    between atoms: C9_11  and  C10_12 
REMARK    8  A    between atoms: C12_14  and  N4_17 
REMARK    9  A    between atoms: N4_17  and  N5_19 
ROOT
HETATM    1  N1  UNL     1     -20.406   3.255 -10.005  1.00  0.00    -0.387 N 
HETATM    2  C6  UNL     1     -20.917   3.943 -11.086  1.00  0.00     0.142 C 
HETATM    3  C7  UNL     1     -20.198   3.447 -12.355  1.00  0.00     0.145 C 
HETATM    4  N2  UNL     1     -20.391   2.075 -12.577  1.00  0.00    -0.352 N 
HETATM    5  C12 UNL     1     -20.541   1.263 -11.433  1.00  0.00     0.226 C 
HETATM    6  C13 UNL     1     -22.013   1.174 -11.156  1.00  0.00     0.117 C 
HETATM    7  N3  UNL     1     -23.165   1.080 -10.936  1.00  0.00    -0.192 NA
HETATM    8  C14 UNL     1     -19.932   1.931 -10.192  1.00  0.00     0.193 C 
ENDROOT
BRANCH   5   9
HETATM    9  N4  UNL     1     -20.074  -0.054 -11.403  1.00  0.00    -0.300 N 
ATOM     10  H4  UNL     1     -20.506  -0.740 -12.022  1.00  0.00     0.183 HD
BRANCH   9  11
HETATM   11  N5  UNL     1     -19.082  -0.454 -10.596  1.00  0.00    -0.346 N 
ATOM     12  H52 UNL     1     -18.999   0.003  -9.688  1.00  0.00     0.176 HD
ATOM     13  H51 UNL     1     -18.420  -1.186 -10.855  1.00  0.00     0.176 HD
ENDBRANCH   9  11
ENDBRANCH   5   9
BRANCH   4  14
HETATM   14  C8  UNL     1     -20.381   1.532 -13.853  1.00  0.00     0.062 C 
BRANCH  14  15
HETATM   15  C9  UNL     1     -21.383   1.956 -14.859  1.00  0.00     0.044 C 
BRANCH  15  16
HETATM   16  C10 UNL     1     -22.789   1.533 -14.759  1.00  0.00     0.001 C 
HETATM   17  C11 UNL     1     -23.740   2.593 -14.235  1.00  0.00     0.005 C 
ENDBRANCH  15  16
ENDBRANCH  14  15
ENDBRANCH   4  14
BRANCH   1  18
HETATM   18  C5  UNL     1     -20.064   3.885  -8.814  1.00  0.00     0.058 C 
BRANCH  18  19
HETATM   19  C4  UNL     1     -20.896   3.739  -7.612  1.00  0.00     0.044 C 
BRANCH  19  20
HETATM   20  C3  UNL     1     -22.339   3.391  -7.878  1.00  0.00     0.005 C 
BRANCH  20  21
HETATM   21  C2  UNL     1     -22.881   2.615  -6.683  1.00  0.00    -0.004 C 
HETATM   22  C1  UNL     1     -24.390   2.672  -6.719  1.00  0.00     0.005 C 
ENDBRANCH  20  21
ENDBRANCH  19  20
ENDBRANCH  18  19
ENDBRANCH   1  18
TORSDOF 9
ENDMDL
