MODEL 1
REMARK VINA RESULT: -8.307710457      0.000      0.000
REMARK  9 active torsions:
REMARK  status: ('A' for Active; 'I' for Inactive)
REMARK       I    between atoms: C1_4  and  N3_6 
REMARK    1  A    between atoms: N3_6  and  N4_8 
REMARK    2  A    between atoms: N4_8  and  C2_10 
REMARK    3  A    between atoms: N6_16  and  O1_17 
REMARK    4  A    between atoms: O1_17  and  C6_18 
REMARK    5  A    between atoms: C6_18  and  N8_22 
REMARK    6  A    between atoms: N8_22  and  C7_24 
REMARK    7  A    between atoms: C7_24  and  C8_25 
REMARK    8  A    between atoms: C8_25  and  N9_26 
REMARK    9  A    between atoms: N10_32  and  O2_33 
ROOT
HETATM    1  C2  UNL     1      23.095  -1.665  10.107  1.00  0.00     0.181 A 
HETATM    2  C3  UNL     1      23.889  -1.282   8.997  1.00  0.00     0.144 A 
HETATM    3  C4  UNL     1      23.548  -0.076   8.446  1.00  0.00     0.109 A 
HETATM    4  N5  UNL     1      22.549   0.730   8.878  1.00  0.00    -0.343 N 
ATOM      5  H5  UNL     1      22.361   1.617   8.411  1.00  0.00     0.167 HD
HETATM    6  C5  UNL     1      21.812   0.343   9.931  1.00  0.00     0.217 A 
HETATM    7  N6  UNL     1      22.090  -0.797  10.496  1.00  0.00    -0.188 N 
HETATM    8  S1  UNL     1      24.666   0.086   7.167  1.00  0.00    -0.062 SA
HETATM    9  C9  UNL     1      25.503  -1.374   7.393  1.00  0.00     0.175 A 
HETATM   10  N10 UNL     1      24.888  -1.930   8.447  1.00  0.00    -0.223 N 
ENDROOT
BRANCH   7  11
HETATM   11  O1  UNL     1      21.312  -1.190  11.597  1.00  0.00    -0.192 OA
BRANCH  11  12
HETATM   12  C6  UNL     1      19.919  -1.137  11.524  1.00  0.00     0.237 C 
HETATM   13  N7  UNL     1      19.380  -1.609  10.458  1.00  0.00    -0.364 N 
ATOM     14  H72 UNL     1      19.961  -1.996   9.714  1.00  0.00     0.159 HD
ATOM     15  H71 UNL     1      18.362  -1.570  10.405  1.00  0.00     0.159 HD
BRANCH  12  16
HETATM   16  N8  UNL     1      19.111  -0.599  12.558  1.00  0.00    -0.353 N 
ATOM     17  H8  UNL     1      18.220  -0.144  12.355  1.00  0.00     0.163 HD
BRANCH  16  18
HETATM   18  C7  UNL     1      19.606  -0.723  13.915  1.00  0.00     0.150 C 
BRANCH  18  19
HETATM   19  C8  UNL     1      18.824   0.203  14.855  1.00  0.00     0.249 C 
BRANCH  19  20
HETATM   20  N9  UNL     1      17.732  -0.528  15.432  1.00  0.00    -0.078 N 
ATOM     21  H93 UNL     1      16.890  -0.486  14.857  1.00  0.00     0.274 HD
ATOM     22  H92 UNL     1      17.879  -1.537  15.397  1.00  0.00     0.274 HD
ATOM     23  H91 UNL     1      17.570  -0.192  16.382  1.00  0.00     0.274 HD
ENDBRANCH  19  20
ENDBRANCH  18  19
ENDBRANCH  16  18
ENDBRANCH  12  16
ENDBRANCH  11  12
ENDBRANCH   7  11
BRANCH   1  24
HETATM   24  N4  UNL     1      23.188  -2.678  10.769  1.00  0.00    -0.279 N 
ATOM     25  H4  UNL     1      23.401  -2.341  11.708  1.00  0.00     0.189 HD
BRANCH  24  26
HETATM   26  N3  UNL     1      23.155  -3.963  10.896  1.00  0.00    -0.272 N 
HETATM   27  C1  UNL     1      23.233  -4.665  12.153  1.00  0.00     0.200 C 
HETATM   28  N1  UNL     1      22.460  -4.318  13.109  1.00  0.00    -0.372 N 
HETATM   29  N2  UNL     1      24.163  -5.712  12.280  1.00  0.00    -0.062 NA
ATOM     30  H12 UNL     1      22.515  -4.815  13.998  1.00  0.00     0.158 HD
ATOM     31  H11 UNL     1      21.785  -3.560  13.016  1.00  0.00     0.158 HD
ATOM     32  H3  UNL     1      23.068  -4.521  10.047  1.00  0.00     0.189 HD
ENDBRANCH  24  26
ENDBRANCH   1  24
BRANCH  10  33
HETATM   33  O2  UNL     1      25.416  -3.182   8.838  1.00  0.00    -0.282 OA
ATOM     34  H2  UNL     1      25.014  -4.036   8.728  1.00  0.00     0.245 HD
ENDBRANCH  10  33
TORSDOF 9
ENDMDL
MODEL 2
REMARK VINA RESULT: -8.004788297      1.360      2.660
REMARK  9 active torsions:
REMARK  status: ('A' for Active; 'I' for Inactive)
REMARK       I    between atoms: C1_4  and  N3_6 
REMARK    1  A    between atoms: N3_6  and  N4_8 
REMARK    2  A    between atoms: N4_8  and  C2_10 
REMARK    3  A    between atoms: N6_16  and  O1_17 
REMARK    4  A    between atoms: O1_17  and  C6_18 
REMARK    5  A    between atoms: C6_18  and  N8_22 
REMARK    6  A    between atoms: N8_22  and  C7_24 
REMARK    7  A    between atoms: C7_24  and  C8_25 
REMARK    8  A    between atoms: C8_25  and  N9_26 
REMARK    9  A    between atoms: N10_32  and  O2_33 
ROOT
HETATM    1  C2  UNL     1      22.978  -1.630  10.073  1.00  0.00     0.181 A 
HETATM    2  C3  UNL     1      23.868  -1.324   9.014  1.00  0.00     0.144 A 
HETATM    3  C4  UNL     1      23.650  -0.108   8.425  1.00  0.00     0.109 A 
HETATM    4  N5  UNL     1      22.685   0.774   8.778  1.00  0.00    -0.343 N 
ATOM      5  H5  UNL     1      22.591   1.663   8.287  1.00  0.00     0.167 HD
HETATM    6  C5  UNL     1      21.854   0.459   9.785  1.00  0.00     0.217 A 
HETATM    7  N6  UNL     1      22.014  -0.688  10.383  1.00  0.00    -0.188 N 
HETATM    8  S1  UNL     1      24.858  -0.047   7.221  1.00  0.00    -0.062 SA
HETATM    9  C9  UNL     1      25.574  -1.558   7.522  1.00  0.00     0.175 A 
HETATM   10  N10 UNL     1      24.853  -2.050   8.541  1.00  0.00    -0.223 N 
ENDROOT
BRANCH   7  11
HETATM   11  O1  UNL     1      21.139  -1.005  11.435  1.00  0.00    -0.192 OA
BRANCH  11  12
HETATM   12  C6  UNL     1      19.759  -0.960  11.235  1.00  0.00     0.237 C 
HETATM   13  N7  UNL     1      19.047  -0.545  12.221  1.00  0.00    -0.364 N 
ATOM     14  H72 UNL     1      19.492  -0.269  13.097  1.00  0.00     0.159 HD
ATOM     15  H71 UNL     1      18.039  -0.513  12.076  1.00  0.00     0.159 HD
BRANCH  12  16
HETATM   16  N8  UNL     1      19.141  -1.344  10.018  1.00  0.00    -0.353 N 
ATOM     17  H8  UNL     1      19.210  -2.298   9.663  1.00  0.00     0.163 HD
BRANCH  16  18
HETATM   18  C7  UNL     1      18.406  -0.321   9.300  1.00  0.00     0.150 C 
BRANCH  18  19
HETATM   19  C8  UNL     1      18.772  -0.349   7.810  1.00  0.00     0.249 C 
BRANCH  19  20
HETATM   20  N9  UNL     1      17.617   0.013   7.037  1.00  0.00    -0.078 N 
ATOM     21  H93 UNL     1      16.830  -0.617   7.196  1.00  0.00     0.274 HD
ATOM     22  H92 UNL     1      17.182   0.873   7.369  1.00  0.00     0.274 HD
ATOM     23  H91 UNL     1      17.878   0.065   6.052  1.00  0.00     0.274 HD
ENDBRANCH  19  20
ENDBRANCH  18  19
ENDBRANCH  16  18
ENDBRANCH  12  16
ENDBRANCH  11  12
ENDBRANCH   7  11
BRANCH   1  24
HETATM   24  N4  UNL     1      22.955  -2.635  10.753  1.00  0.00    -0.279 N 
ATOM     25  H4  UNL     1      22.872  -2.286  11.708  1.00  0.00     0.189 HD
BRANCH  24  26
HETATM   26  N3  UNL     1      22.982  -3.919  10.891  1.00  0.00    -0.272 N 
HETATM   27  C1  UNL     1      23.126  -4.607  12.150  1.00  0.00     0.200 C 
HETATM   28  N1  UNL     1      22.365  -4.286  13.125  1.00  0.00    -0.372 N 
HETATM   29  N2  UNL     1      24.104  -5.611  12.258  1.00  0.00    -0.062 NA
ATOM     30  H12 UNL     1      22.467  -4.773  14.016  1.00  0.00     0.158 HD
ATOM     31  H11 UNL     1      21.656  -3.558  13.046  1.00  0.00     0.158 HD
ATOM     32  H3  UNL     1      22.896  -4.488  10.048  1.00  0.00     0.189 HD
ENDBRANCH  24  26
ENDBRANCH   1  24
BRANCH  10  33
HETATM   33  O2  UNL     1      25.264  -3.328   8.982  1.00  0.00    -0.282 OA
ATOM     34  H2  UNL     1      24.714  -4.086   9.146  1.00  0.00     0.245 HD
ENDBRANCH  10  33
TORSDOF 9
ENDMDL
MODEL 3
REMARK VINA RESULT: -7.986016923      1.738      2.436
REMARK  9 active torsions:
REMARK  status: ('A' for Active; 'I' for Inactive)
REMARK       I    between atoms: C1_4  and  N3_6 
REMARK    1  A    between atoms: N3_6  and  N4_8 
REMARK    2  A    between atoms: N4_8  and  C2_10 
REMARK    3  A    between atoms: N6_16  and  O1_17 
REMARK    4  A    between atoms: O1_17  and  C6_18 
REMARK    5  A    between atoms: C6_18  and  N8_22 
REMARK    6  A    between atoms: N8_22  and  C7_24 
REMARK    7  A    between atoms: C7_24  and  C8_25 
REMARK    8  A    between atoms: C8_25  and  N9_26 
REMARK    9  A    between atoms: N10_32  and  O2_33 
ROOT
HETATM    1  C2  UNL     1      23.293  -1.279  10.012  1.00  0.00     0.181 A 
HETATM    2  C3  UNL     1      24.163  -1.287   8.894  1.00  0.00     0.144 A 
HETATM    3  C4  UNL     1      23.896  -0.320   7.961  1.00  0.00     0.109 A 
HETATM    4  N5  UNL     1      22.901   0.595   8.042  1.00  0.00    -0.343 N 
ATOM      5  H5  UNL     1      22.770   1.285   7.302  1.00  0.00     0.167 HD
HETATM    6  C5  UNL     1      22.090   0.580   9.112  1.00  0.00     0.217 A 
HETATM    7  N6  UNL     1      22.297  -0.319  10.033  1.00  0.00    -0.188 N 
HETATM    8  S1  UNL     1      25.092  -0.596   6.775  1.00  0.00    -0.062 SA
HETATM    9  C9  UNL     1      25.865  -1.914   7.516  1.00  0.00     0.175 A 
HETATM   10  N10 UNL     1      25.171  -2.090   8.650  1.00  0.00    -0.223 N 
ENDROOT
BRANCH   7  11
HETATM   11  O1  UNL     1      21.443  -0.324  11.147  1.00  0.00    -0.192 OA
BRANCH  11  12
HETATM   12  C6  UNL     1      20.075  -0.552  10.981  1.00  0.00     0.237 C 
HETATM   13  N7  UNL     1      19.675  -1.766  11.106  1.00  0.00    -0.364 N 
ATOM     14  H72 UNL     1      20.341  -2.510  11.315  1.00  0.00     0.159 HD
ATOM     15  H71 UNL     1      18.676  -1.932  10.984  1.00  0.00     0.159 HD
BRANCH  12  16
HETATM   16  N8  UNL     1      19.149   0.482  10.690  1.00  0.00    -0.353 N 
ATOM     17  H8  UNL     1      18.963   1.233  11.355  1.00  0.00     0.163 HD
BRANCH  16  18
HETATM   18  C7  UNL     1      18.479   0.425   9.406  1.00  0.00     0.150 C 
BRANCH  18  19
HETATM   19  C8  UNL     1      17.830   1.776   9.082  1.00  0.00     0.249 C 
BRANCH  19  20
HETATM   20  N9  UNL     1      18.716   2.832   9.485  1.00  0.00    -0.078 N 
ATOM     21  H93 UNL     1      18.889   2.830  10.490  1.00  0.00     0.274 HD
ATOM     22  H92 UNL     1      19.674   2.674   9.174  1.00  0.00     0.274 HD
ATOM     23  H91 UNL     1      18.343   3.724   9.157  1.00  0.00     0.274 HD
ENDBRANCH  19  20
ENDBRANCH  18  19
ENDBRANCH  16  18
ENDBRANCH  12  16
ENDBRANCH  11  12
ENDBRANCH   7  11
BRANCH   1  24
HETATM   24  N4  UNL     1      23.313  -2.023  10.970  1.00  0.00    -0.279 N 
ATOM     25  H4  UNL     1      22.714  -1.562  11.655  1.00  0.00     0.189 HD
BRANCH  24  26
HETATM   26  N3  UNL     1      23.702  -3.100  11.569  1.00  0.00    -0.272 N 
HETATM   27  C1  UNL     1      22.911  -4.298  11.701  1.00  0.00     0.200 C 
HETATM   28  N1  UNL     1      22.360  -4.797  10.663  1.00  0.00    -0.372 N 
HETATM   29  N2  UNL     1      22.774  -4.874  12.976  1.00  0.00    -0.062 NA
ATOM     30  H12 UNL     1      21.799  -5.645  10.756  1.00  0.00     0.158 HD
ATOM     31  H11 UNL     1      22.459  -4.380   9.738  1.00  0.00     0.158 HD
ATOM     32  H3  UNL     1      24.637  -3.103  11.978  1.00  0.00     0.189 HD
ENDBRANCH  24  26
ENDBRANCH   1  24
BRANCH  10  33
HETATM   33  O2  UNL     1      25.632  -3.154   9.457  1.00  0.00    -0.282 OA
ATOM     34  H2  UNL     1      26.387  -3.154  10.035  1.00  0.00     0.245 HD
ENDBRANCH  10  33
TORSDOF 9
ENDMDL
MODEL 4
REMARK VINA RESULT: -7.960723743      1.544      2.537
REMARK  9 active torsions:
REMARK  status: ('A' for Active; 'I' for Inactive)
REMARK       I    between atoms: C1_4  and  N3_6 
REMARK    1  A    between atoms: N3_6  and  N4_8 
REMARK    2  A    between atoms: N4_8  and  C2_10 
REMARK    3  A    between atoms: N6_16  and  O1_17 
REMARK    4  A    between atoms: O1_17  and  C6_18 
REMARK    5  A    between atoms: C6_18  and  N8_22 
REMARK    6  A    between atoms: N8_22  and  C7_24 
REMARK    7  A    between atoms: C7_24  and  C8_25 
REMARK    8  A    between atoms: C8_25  and  N9_26 
REMARK    9  A    between atoms: N10_32  and  O2_33 
ROOT
HETATM    1  C2  UNL     1      23.505  -1.243  10.079  1.00  0.00     0.181 A 
HETATM    2  C3  UNL     1      24.235  -1.280   8.865  1.00  0.00     0.144 A 
HETATM    3  C4  UNL     1      23.876  -0.317   7.960  1.00  0.00     0.109 A 
HETATM    4  N5  UNL     1      22.916   0.620   8.148  1.00  0.00    -0.343 N 
ATOM      5  H5  UNL     1      22.711   1.305   7.421  1.00  0.00     0.167 HD
HETATM    6  C5  UNL     1      22.239   0.631   9.308  1.00  0.00     0.217 A 
HETATM    7  N6  UNL     1      22.537  -0.264  10.208  1.00  0.00    -0.188 N 
HETATM    8  S1  UNL     1      24.916  -0.628   6.642  1.00  0.00    -0.062 SA
HETATM    9  C9  UNL     1      25.747  -1.955   7.301  1.00  0.00     0.175 A 
HETATM   10  N10 UNL     1      25.190  -2.106   8.512  1.00  0.00    -0.223 N 
ENDROOT
BRANCH   7  11
HETATM   11  O1  UNL     1      21.823  -0.240  11.415  1.00  0.00    -0.192 OA
BRANCH  11  12
HETATM   12  C6  UNL     1      20.644  -0.977  11.547  1.00  0.00     0.237 C 
HETATM   13  N7  UNL     1      20.414  -1.493  12.701  1.00  0.00    -0.364 N 
ATOM     14  H72 UNL     1      21.074  -1.358  13.467  1.00  0.00     0.159 HD
ATOM     15  H71 UNL     1      19.553  -2.031  12.797  1.00  0.00     0.159 HD
BRANCH  12  16
HETATM   16  N8  UNL     1      19.727  -1.164  10.482  1.00  0.00    -0.353 N 
ATOM     17  H8  UNL     1      19.675  -2.046   9.972  1.00  0.00     0.163 HD
BRANCH  16  18
HETATM   18  C7  UNL     1      18.865  -0.046  10.150  1.00  0.00     0.150 C 
BRANCH  18  19
HETATM   19  C8  UNL     1      18.213  -0.264   8.779  1.00  0.00     0.249 C 
BRANCH  19  20
HETATM   20  N9  UNL     1      19.225  -0.642   7.832  1.00  0.00    -0.078 N 
ATOM     21  H93 UNL     1      20.151  -0.307   8.100  1.00  0.00     0.274 HD
ATOM     22  H92 UNL     1      19.423  -1.642   7.855  1.00  0.00     0.274 HD
ATOM     23  H91 UNL     1      18.950  -0.321   6.904  1.00  0.00     0.274 HD
ENDBRANCH  19  20
ENDBRANCH  18  19
ENDBRANCH  16  18
ENDBRANCH  12  16
ENDBRANCH  11  12
ENDBRANCH   7  11
BRANCH   1  24
HETATM   24  N4  UNL     1      23.625  -1.979  11.036  1.00  0.00    -0.279 N 
ATOM     25  H4  UNL     1      23.293  -1.420  11.822  1.00  0.00     0.189 HD
BRANCH  24  26
HETATM   26  N3  UNL     1      23.957  -3.107  11.573  1.00  0.00    -0.272 N 
HETATM   27  C1  UNL     1      23.075  -4.239  11.714  1.00  0.00     0.200 C 
HETATM   28  N1  UNL     1      22.422  -4.650  10.697  1.00  0.00    -0.372 N 
HETATM   29  N2  UNL     1      22.967  -4.851  12.975  1.00  0.00    -0.062 NA
ATOM     30  H12 UNL     1      21.798  -5.451  10.797  1.00  0.00     0.158 HD
ATOM     31  H11 UNL     1      22.501  -4.207   9.782  1.00  0.00     0.158 HD
ATOM     32  H3  UNL     1      24.911  -3.203  11.921  1.00  0.00     0.189 HD
ENDBRANCH  24  26
ENDBRANCH   1  24
BRANCH  10  33
HETATM   33  O2  UNL     1      25.725  -3.172   9.271  1.00  0.00    -0.282 OA
ATOM     34  H2  UNL     1      26.508  -3.676   9.084  1.00  0.00     0.245 HD
ENDBRANCH  10  33
TORSDOF 9
ENDMDL
MODEL 5
REMARK VINA RESULT: -7.600520361      2.768      4.157
REMARK  9 active torsions:
REMARK  status: ('A' for Active; 'I' for Inactive)
REMARK       I    between atoms: C1_4  and  N3_6 
REMARK    1  A    between atoms: N3_6  and  N4_8 
REMARK    2  A    between atoms: N4_8  and  C2_10 
REMARK    3  A    between atoms: N6_16  and  O1_17 
REMARK    4  A    between atoms: O1_17  and  C6_18 
REMARK    5  A    between atoms: C6_18  and  N8_22 
REMARK    6  A    between atoms: N8_22  and  C7_24 
REMARK    7  A    between atoms: C7_24  and  C8_25 
REMARK    8  A    between atoms: C8_25  and  N9_26 
REMARK    9  A    between atoms: N10_32  and  O2_33 
ROOT
HETATM    1  C2  UNL     1      21.629  -1.195  10.842  1.00  0.00     0.181 A 
HETATM    2  C3  UNL     1      22.818  -1.834  10.411  1.00  0.00     0.144 A 
HETATM    3  C4  UNL     1      23.417  -1.244   9.330  1.00  0.00     0.109 A 
HETATM    4  N5  UNL     1      22.964  -0.143   8.684  1.00  0.00    -0.343 N 
ATOM      5  H5  UNL     1      23.473   0.235   7.885  1.00  0.00     0.167 HD
HETATM    6  C5  UNL     1      21.834   0.442   9.114  1.00  0.00     0.217 A 
HETATM    7  N6  UNL     1      21.219  -0.077  10.139  1.00  0.00    -0.188 N 
HETATM    8  S1  UNL     1      24.787  -2.230   9.070  1.00  0.00    -0.062 SA
HETATM    9  C9  UNL     1      24.531  -3.333  10.337  1.00  0.00     0.175 A 
HETATM   10  N10 UNL     1      23.400  -2.898  10.911  1.00  0.00    -0.223 N 
ENDROOT
BRANCH   7  11
HETATM   11  O1  UNL     1      20.040   0.545  10.578  1.00  0.00    -0.192 OA
BRANCH  11  12
HETATM   12  C6  UNL     1      18.940   0.644   9.724  1.00  0.00     0.237 C 
HETATM   13  N7  UNL     1      18.359  -0.456   9.405  1.00  0.00    -0.364 N 
ATOM     14  H72 UNL     1      18.702  -1.345   9.769  1.00  0.00     0.159 HD
ATOM     15  H71 UNL     1      17.555  -0.384   8.781  1.00  0.00     0.159 HD
BRANCH  12  16
HETATM   16  N8  UNL     1      18.463   1.880   9.218  1.00  0.00    -0.353 N 
ATOM     17  H8  UNL     1      19.019   2.733   9.284  1.00  0.00     0.163 HD
BRANCH  16  18
HETATM   18  C7  UNL     1      17.150   1.878   8.604  1.00  0.00     0.150 C 
BRANCH  18  19
HETATM   19  C8  UNL     1      16.330   3.079   9.093  1.00  0.00     0.249 C 
BRANCH  19  20
HETATM   20  N9  UNL     1      17.194   3.979   9.804  1.00  0.00    -0.078 N 
ATOM     21  H93 UNL     1      17.811   3.493  10.454  1.00  0.00     0.274 HD
ATOM     22  H92 UNL     1      17.911   4.385   9.202  1.00  0.00     0.274 HD
ATOM     23  H91 UNL     1      16.628   4.691  10.266  1.00  0.00     0.274 HD
ENDBRANCH  19  20
ENDBRANCH  18  19
ENDBRANCH  16  18
ENDBRANCH  12  16
ENDBRANCH  11  12
ENDBRANCH   7  11
BRANCH   1  24
HETATM   24  N4  UNL     1      20.912  -1.514  11.768  1.00  0.00    -0.279 N 
ATOM     25  H4  UNL     1      20.214  -2.124  11.342  1.00  0.00     0.189 HD
BRANCH  24  26
HETATM   26  N3  UNL     1      20.578  -1.479  13.016  1.00  0.00    -0.272 N 
HETATM   27  C1  UNL     1      19.678  -0.515  13.598  1.00  0.00     0.200 C 
HETATM   28  N1  UNL     1      18.543  -0.313  13.049  1.00  0.00    -0.372 N 
HETATM   29  N2  UNL     1      20.087   0.171  14.755  1.00  0.00    -0.062 NA
ATOM     30  H12 UNL     1      17.906   0.369  13.461  1.00  0.00     0.158 HD
ATOM     31  H11 UNL     1      18.246  -0.811  12.210  1.00  0.00     0.158 HD
ATOM     32  H3  UNL     1      20.980  -2.185  13.633  1.00  0.00     0.189 HD
ENDBRANCH  24  26
ENDBRANCH   1  24
BRANCH  10  33
HETATM   33  O2  UNL     1      22.971  -3.670  12.014  1.00  0.00    -0.282 OA
ATOM     34  H2  UNL     1      23.486  -3.932  12.768  1.00  0.00     0.245 HD
ENDBRANCH  10  33
TORSDOF 9
ENDMDL
