MODEL 1
REMARK VINA RESULT: -6.498384163      0.000      0.000
REMARK  5 active torsions:
REMARK  status: ('A' for Active; 'I' for Inactive)
REMARK    1  A    between atoms: C2_2  and  C3_6 
REMARK    2  A    between atoms: C3_6  and  N2_7 
REMARK    3  A    between atoms: C3_6  and  C4_11 
REMARK    4  A    between atoms: C4_11  and  O2_13 
REMARK    5  A    between atoms: O2_13  and  C5_14 
ROOT
HETATM    1  C5  UNL     1      -3.535  52.388  11.893  1.00  0.00     0.151 C 
HETATM    2  C6  UNL     1      -3.153  51.848  10.532  1.00  0.00     0.063 C 
HETATM    3  C7  UNL     1      -4.246  51.309  12.665  1.00  0.00     0.063 C 
HETATM    4  C8  UNL     1      -2.277  52.667  12.608  1.00  0.00     0.097 C 
HETATM    5  N3  UNL     1      -1.281  52.893  13.155  1.00  0.00    -0.194 NA
ENDROOT
BRANCH   1   6
HETATM    6  O2  UNL     1      -4.249  53.585  11.827  1.00  0.00    -0.294 OA
BRANCH   6   7
HETATM    7  C4  UNL     1      -4.450  54.363  12.956  1.00  0.00     0.297 C 
HETATM    8  O1  UNL     1      -3.609  55.278  13.141  1.00  0.00    -0.262 OA
BRANCH   7   9
HETATM    9  C3  UNL     1      -5.588  54.142  13.901  1.00  0.00     0.326 C 
BRANCH   9  10
HETATM   10  C2  UNL     1      -6.362  55.375  14.069  1.00  0.00     0.016 C 
HETATM   11  C1  UNL     1      -7.467  55.711  13.130  1.00  0.00     0.065 C 
HETATM   12  N1  UNL     1      -6.108  56.176  15.012  1.00  0.00    -0.404 N 
ATOM     13  H12 UNL     1      -6.647  57.034  15.129  1.00  0.00     0.155 HD
ATOM     14  H11 UNL     1      -5.351  55.945  15.655  1.00  0.00     0.155 HD
ENDBRANCH   9  10
BRANCH   9  15
HETATM   15  N2  UNL     1      -5.059  53.652  15.162  1.00  0.00    -0.061 N 
ATOM     16  H23 UNL     1      -4.773  52.676  15.087  1.00  0.00     0.275 HD
ATOM     17  H22 UNL     1      -4.152  54.070  15.369  1.00  0.00     0.275 HD
ATOM     18  H21 UNL     1      -5.713  53.787  15.933  1.00  0.00     0.275 HD
ENDBRANCH   9  15
ENDBRANCH   7   9
ENDBRANCH   6   7
ENDBRANCH   1   6
TORSDOF 5
ENDMDL
MODEL 2
REMARK VINA RESULT: -6.332837435      1.366      1.609
REMARK  5 active torsions:
REMARK  status: ('A' for Active; 'I' for Inactive)
REMARK    1  A    between atoms: C2_2  and  C3_6 
REMARK    2  A    between atoms: C3_6  and  N2_7 
REMARK    3  A    between atoms: C3_6  and  C4_11 
REMARK    4  A    between atoms: C4_11  and  O2_13 
REMARK    5  A    between atoms: O2_13  and  C5_14 
ROOT
HETATM    1  C5  UNL     1      -3.572  51.530  12.366  1.00  0.00     0.151 C 
HETATM    2  C6  UNL     1      -5.025  51.166  12.150  1.00  0.00     0.063 C 
HETATM    3  C7  UNL     1      -2.827  50.308  12.833  1.00  0.00     0.063 C 
HETATM    4  C8  UNL     1      -3.023  51.888  11.046  1.00  0.00     0.097 C 
HETATM    5  N3  UNL     1      -2.606  52.178  10.005  1.00  0.00    -0.194 NA
ENDROOT
BRANCH   1   6
HETATM    6  O2  UNL     1      -3.402  52.636  13.200  1.00  0.00    -0.294 OA
BRANCH   6   7
HETATM    7  C4  UNL     1      -4.211  53.754  13.081  1.00  0.00     0.297 C 
HETATM    8  O1  UNL     1      -3.833  54.610  12.242  1.00  0.00    -0.262 OA
BRANCH   7   9
HETATM    9  C3  UNL     1      -5.455  53.946  13.890  1.00  0.00     0.326 C 
BRANCH   9  10
HETATM   10  C2  UNL     1      -5.988  55.297  13.697  1.00  0.00     0.016 C 
HETATM   11  C1  UNL     1      -7.332  55.503  13.090  1.00  0.00     0.065 C 
HETATM   12  N1  UNL     1      -5.321  56.312  14.043  1.00  0.00    -0.404 N 
ATOM     13  H12 UNL     1      -5.692  57.253  13.909  1.00  0.00     0.155 HD
ATOM     14  H11 UNL     1      -4.401  56.170  14.459  1.00  0.00     0.155 HD
ENDBRANCH   9  10
BRANCH   9  15
HETATM   15  N2  UNL     1      -5.153  53.669  15.283  1.00  0.00    -0.061 N 
ATOM     16  H23 UNL     1      -4.190  53.353  15.396  1.00  0.00     0.275 HD
ATOM     17  H22 UNL     1      -5.106  54.529  15.828  1.00  0.00     0.275 HD
ATOM     18  H21 UNL     1      -5.810  53.006  15.695  1.00  0.00     0.275 HD
ENDBRANCH   9  15
ENDBRANCH   7   9
ENDBRANCH   6   7
ENDBRANCH   1   6
TORSDOF 5
ENDMDL
MODEL 3
REMARK VINA RESULT: -6.293077551      1.415      1.522
REMARK  5 active torsions:
REMARK  status: ('A' for Active; 'I' for Inactive)
REMARK    1  A    between atoms: C2_2  and  C3_6 
REMARK    2  A    between atoms: C3_6  and  N2_7 
REMARK    3  A    between atoms: C3_6  and  C4_11 
REMARK    4  A    between atoms: C4_11  and  O2_13 
REMARK    5  A    between atoms: O2_13  and  C5_14 
ROOT
HETATM    1  C5  UNL     1      -3.644  51.481  12.237  1.00  0.00     0.151 C 
HETATM    2  C6  UNL     1      -2.989  51.703  10.891  1.00  0.00     0.063 C 
HETATM    3  C7  UNL     1      -5.099  51.158  12.025  1.00  0.00     0.063 C 
HETATM    4  C8  UNL     1      -3.020  50.281  12.821  1.00  0.00     0.097 C 
HETATM    5  N3  UNL     1      -2.514  49.342  13.274  1.00  0.00    -0.194 NA
ENDROOT
BRANCH   1   6
HETATM    6  O2  UNL     1      -3.434  52.533  13.128  1.00  0.00    -0.294 OA
BRANCH   6   7
HETATM    7  C4  UNL     1      -4.200  53.687  13.069  1.00  0.00     0.297 C 
HETATM    8  O1  UNL     1      -3.786  54.572  12.278  1.00  0.00    -0.262 OA
BRANCH   7   9
HETATM    9  C3  UNL     1      -5.439  53.882  13.884  1.00  0.00     0.326 C 
BRANCH   9  10
HETATM   10  C2  UNL     1      -5.993  55.220  13.663  1.00  0.00     0.016 C 
HETATM   11  C1  UNL     1      -7.320  55.394  13.012  1.00  0.00     0.065 C 
HETATM   12  N1  UNL     1      -5.358  56.251  14.021  1.00  0.00    -0.404 N 
ATOM     13  H12 UNL     1      -5.743  57.183  13.867  1.00  0.00     0.155 HD
ATOM     14  H11 UNL     1      -4.449  56.132  14.467  1.00  0.00     0.155 HD
ENDBRANCH   9  10
BRANCH   9  15
HETATM   15  N2  UNL     1      -5.120  53.644  15.281  1.00  0.00    -0.061 N 
ATOM     16  H23 UNL     1      -4.172  53.952  15.501  1.00  0.00     0.275 HD
ATOM     17  H22 UNL     1      -5.640  54.275  15.891  1.00  0.00     0.275 HD
ATOM     18  H21 UNL     1      -5.263  52.670  15.549  1.00  0.00     0.275 HD
ENDBRANCH   9  15
ENDBRANCH   7   9
ENDBRANCH   6   7
ENDBRANCH   1   6
TORSDOF 5
ENDMDL
MODEL 4
REMARK VINA RESULT: -6.268023757      1.125      1.211
REMARK  5 active torsions:
REMARK  status: ('A' for Active; 'I' for Inactive)
REMARK    1  A    between atoms: C2_2  and  C3_6 
REMARK    2  A    between atoms: C3_6  and  N2_7 
REMARK    3  A    between atoms: C3_6  and  C4_11 
REMARK    4  A    between atoms: C4_11  and  O2_13 
REMARK    5  A    between atoms: O2_13  and  C5_14 
ROOT
HETATM    1  C5  UNL     1      -2.658  52.293  12.304  1.00  0.00     0.151 C 
HETATM    2  C6  UNL     1      -3.759  52.090  11.286  1.00  0.00     0.063 C 
HETATM    3  C7  UNL     1      -2.145  50.947  12.744  1.00  0.00     0.063 C 
HETATM    4  C8  UNL     1      -1.549  52.965  11.603  1.00  0.00     0.097 C 
HETATM    5  N3  UNL     1      -0.689  53.502  11.043  1.00  0.00    -0.194 NA
ENDROOT
BRANCH   1   6
HETATM    6  O2  UNL     1      -3.037  53.116  13.365  1.00  0.00    -0.294 OA
BRANCH   6   7
HETATM    7  C4  UNL     1      -4.078  54.020  13.234  1.00  0.00     0.297 C 
HETATM    8  O1  UNL     1      -3.845  55.012  12.498  1.00  0.00    -0.262 OA
BRANCH   7   9
HETATM    9  C3  UNL     1      -5.398  53.842  13.915  1.00  0.00     0.326 C 
BRANCH   9  10
HETATM   10  C2  UNL     1      -6.164  55.091  13.883  1.00  0.00     0.016 C 
HETATM   11  C1  UNL     1      -7.261  55.283  12.895  1.00  0.00     0.065 C 
HETATM   12  N1  UNL     1      -5.910  56.028  14.691  1.00  0.00    -0.404 N 
ATOM     13  H12 UNL     1      -6.443  56.897  14.669  1.00  0.00     0.155 HD
ATOM     14  H11 UNL     1      -5.159  55.896  15.368  1.00  0.00     0.155 HD
ENDBRANCH   9  10
BRANCH   9  15
HETATM   15  N2  UNL     1      -5.164  53.378  15.271  1.00  0.00    -0.061 N 
ATOM     16  H23 UNL     1      -4.520  53.994  15.767  1.00  0.00     0.275 HD
ATOM     17  H22 UNL     1      -5.991  53.506  15.854  1.00  0.00     0.275 HD
ATOM     18  H21 UNL     1      -4.841  52.410  15.296  1.00  0.00     0.275 HD
ENDBRANCH   9  15
ENDBRANCH   7   9
ENDBRANCH   6   7
ENDBRANCH   1   6
TORSDOF 5
ENDMDL
MODEL 5
REMARK VINA RESULT: -6.210072166      1.725      4.631
REMARK  5 active torsions:
REMARK  status: ('A' for Active; 'I' for Inactive)
REMARK    1  A    between atoms: C2_2  and  C3_6 
REMARK    2  A    between atoms: C3_6  and  N2_7 
REMARK    3  A    between atoms: C3_6  and  C4_11 
REMARK    4  A    between atoms: C4_11  and  O2_13 
REMARK    5  A    between atoms: O2_13  and  C5_14 
ROOT
HETATM    1  C5  UNL     1      -6.414  53.722  12.912  1.00  0.00     0.151 C 
HETATM    2  C6  UNL     1      -5.934  53.218  14.256  1.00  0.00     0.063 C 
HETATM    3  C7  UNL     1      -7.187  52.627  12.227  1.00  0.00     0.063 C 
HETATM    4  C8  UNL     1      -7.367  54.813  13.184  1.00  0.00     0.097 C 
HETATM    5  N3  UNL     1      -8.107  55.676  13.411  1.00  0.00    -0.194 NA
ENDROOT
BRANCH   1   6
HETATM    6  O2  UNL     1      -5.389  54.253  12.128  1.00  0.00    -0.294 OA
BRANCH   6   7
HETATM    7  C4  UNL     1      -4.061  54.125  12.502  1.00  0.00     0.297 C 
HETATM    8  O1  UNL     1      -3.575  55.108  13.116  1.00  0.00    -0.262 OA
BRANCH   7   9
HETATM    9  C3  UNL     1      -3.247  52.907  12.203  1.00  0.00     0.326 C 
BRANCH   9  10
HETATM   10  C2  UNL     1      -1.817  53.222  12.252  1.00  0.00     0.016 C 
HETATM   11  C1  UNL     1      -1.019  53.323  10.998  1.00  0.00     0.065 C 
HETATM   12  N1  UNL     1      -1.233  53.413  13.354  1.00  0.00    -0.404 N 
ATOM     13  H12 UNL     1      -0.237  53.632  13.388  1.00  0.00     0.155 HD
ATOM     14  H11 UNL     1      -1.779  53.344  14.213  1.00  0.00     0.155 HD
ENDBRANCH   9  10
BRANCH   9  15
HETATM   15  N2  UNL     1      -3.650  52.383  10.910  1.00  0.00    -0.061 N 
ATOM     16  H23 UNL     1      -3.653  53.114  10.200  1.00  0.00     0.275 HD
ATOM     17  H22 UNL     1      -2.929  51.778  10.516  1.00  0.00     0.275 HD
ATOM     18  H21 UNL     1      -4.550  51.905  10.952  1.00  0.00     0.275 HD
ENDBRANCH   9  15
ENDBRANCH   7   9
ENDBRANCH   6   7
ENDBRANCH   1   6
TORSDOF 5
ENDMDL
