MODEL 1
REMARK VINA RESULT: -5.785803304      0.000      0.000
REMARK  4 active torsions:
REMARK  status: ('A' for Active; 'I' for Inactive)
REMARK    1  A    between atoms: O1_2  and  C2_3 
REMARK    2  A    between atoms: C2_3  and  C3_5 
REMARK    3  A    between atoms: C8_12  and  O3_13 
REMARK    4  A    between atoms: C9_15  and  C10_16 
ROOT
HETATM    1  C3  UNL     1      -7.107  53.235  11.969  1.00  0.00     0.049 C 
HETATM    2  C4  UNL     1      -7.788  52.130  11.818  1.00  0.00     0.018 C 
HETATM    3  C5  UNL     1      -9.270  52.172  11.857  1.00  0.00     0.069 C 
HETATM    4  N1  UNL     1      -7.168  50.867  11.561  1.00  0.00    -0.364 N 
ATOM      5  H1  UNL     1      -7.759  50.042  11.458  1.00  0.00     0.165 HD
HETATM    6  C6  UNL     1      -5.907  50.735  11.457  1.00  0.00     0.021 C 
HETATM    7  C7  UNL     1      -5.362  49.380  11.196  1.00  0.00     0.066 C 
HETATM    8  C8  UNL     1      -5.016  51.906  11.545  1.00  0.00     0.139 C 
HETATM    9  C9  UNL     1      -3.872  51.714  12.511  1.00  0.00     0.231 C 
HETATM   10  O5  UNL     1      -3.805  52.869  13.277  1.00  0.00    -0.369 OA
HETATM   11  C12 UNL     1      -5.073  53.372  13.376  1.00  0.00     0.130 C 
HETATM   12  C13 UNL     1      -5.830  52.612  14.429  1.00  0.00     0.040 C 
HETATM   13  C14 UNL     1      -5.628  53.166  11.987  1.00  0.00     0.099 C 
ENDROOT
BRANCH   1  14
HETATM   14  C2  UNL     1      -7.728  54.529  12.173  1.00  0.00     0.291 C 
HETATM   15  O2  UNL     1      -8.232  54.947  13.239  1.00  0.00    -0.260 OA
BRANCH  14  16
HETATM   16  O1  UNL     1      -7.789  55.423  11.101  1.00  0.00    -0.323 OA
HETATM   17  C1  UNL     1      -8.870  56.314  10.922  1.00  0.00     0.213 C 
ENDBRANCH  14  16
ENDBRANCH   1  14
BRANCH   8  18
HETATM   18  O3  UNL     1      -4.543  52.099  10.233  1.00  0.00    -0.380 OA
ATOM     19  H3  UNL     1      -4.313  53.019  10.190  1.00  0.00     0.211 HD
ENDBRANCH   8  18
BRANCH   9  20
HETATM   20  C10 UNL     1      -2.574  51.533  11.832  1.00  0.00     0.155 C 
HETATM   21  C11 UNL     1      -1.882  50.230  11.905  1.00  0.00     0.094 C 
HETATM   22  O4  UNL     1      -2.046  52.430  11.207  1.00  0.00    -0.295 OA
ENDBRANCH   9  20
TORSDOF 4
ENDMDL
MODEL 2
REMARK VINA RESULT: -5.719853999      2.617      5.520
REMARK  4 active torsions:
REMARK  status: ('A' for Active; 'I' for Inactive)
REMARK    1  A    between atoms: O1_2  and  C2_3 
REMARK    2  A    between atoms: C2_3  and  C3_5 
REMARK    3  A    between atoms: C8_12  and  O3_13 
REMARK    4  A    between atoms: C9_15  and  C10_16 
ROOT
HETATM    1  C3  UNL     1      -2.398  51.900  11.351  1.00  0.00     0.049 C 
HETATM    2  C4  UNL     1      -2.661  52.711  12.340  1.00  0.00     0.018 C 
HETATM    3  C5  UNL     1      -1.571  53.530  12.924  1.00  0.00     0.069 C 
HETATM    4  N1  UNL     1      -3.979  52.893  12.865  1.00  0.00    -0.364 N 
ATOM      5  H1  UNL     1      -4.113  53.540  13.643  1.00  0.00     0.165 HD
HETATM    6  C6  UNL     1      -4.989  52.276  12.399  1.00  0.00     0.021 C 
HETATM    7  C7  UNL     1      -6.313  52.529  13.018  1.00  0.00     0.066 C 
HETATM    8  C8  UNL     1      -4.854  51.373  11.242  1.00  0.00     0.139 C 
HETATM    9  C9  UNL     1      -5.485  50.020  11.464  1.00  0.00     0.231 C 
HETATM   10  O5  UNL     1      -4.563  49.079  11.028  1.00  0.00    -0.369 OA
HETATM   11  C12 UNL     1      -3.315  49.602  11.225  1.00  0.00     0.130 C 
HETATM   12  C13 UNL     1      -2.929  49.440  12.669  1.00  0.00     0.040 C 
HETATM   13  C14 UNL     1      -3.486  51.046  10.820  1.00  0.00     0.099 C 
ENDROOT
BRANCH   1  14
HETATM   14  C2  UNL     1      -1.078  51.752  10.773  1.00  0.00     0.291 C 
HETATM   15  O2  UNL     1      -0.114  51.135  11.281  1.00  0.00    -0.260 OA
BRANCH  14  16
HETATM   16  O1  UNL     1      -0.814  52.339   9.533  1.00  0.00    -0.323 OA
HETATM   17  C1  UNL     1       0.140  53.368   9.372  1.00  0.00     0.213 C 
ENDBRANCH  14  16
ENDBRANCH   1  14
BRANCH   8  18
HETATM   18  O3  UNL     1      -5.478  52.053  10.178  1.00  0.00    -0.380 OA
ATOM     19  H3  UNL     1      -6.207  51.499   9.930  1.00  0.00     0.211 HD
ENDBRANCH   8  18
BRANCH   9  20
HETATM   20  C10 UNL     1      -6.732  49.837  10.697  1.00  0.00     0.155 C 
HETATM   21  C11 UNL     1      -6.790  48.827   9.619  1.00  0.00     0.094 C 
HETATM   22  O4  UNL     1      -7.727  50.495  10.922  1.00  0.00    -0.295 OA
ENDBRANCH   9  20
TORSDOF 4
ENDMDL
MODEL 3
REMARK VINA RESULT: -5.652192759      3.829      5.453
REMARK  4 active torsions:
REMARK  status: ('A' for Active; 'I' for Inactive)
REMARK    1  A    between atoms: O1_2  and  C2_3 
REMARK    2  A    between atoms: C2_3  and  C3_5 
REMARK    3  A    between atoms: C8_12  and  O3_13 
REMARK    4  A    between atoms: C9_15  and  C10_16 
ROOT
HETATM    1  C3  UNL     1      -8.276  55.355  10.676  1.00  0.00     0.049 C 
HETATM    2  C4  UNL     1      -9.147  56.206  10.205  1.00  0.00     0.018 C 
HETATM    3  C5  UNL     1      -9.996  56.981  11.143  1.00  0.00     0.069 C 
HETATM    4  N1  UNL     1      -9.293  56.473   8.807  1.00  0.00    -0.364 N 
ATOM      5  H1  UNL     1      -9.997  57.148   8.507  1.00  0.00     0.165 HD
HETATM    6  C6  UNL     1      -8.577  55.900   7.925  1.00  0.00     0.021 C 
HETATM    7  C7  UNL     1      -8.811  56.240   6.501  1.00  0.00     0.066 C 
HETATM    8  C8  UNL     1      -7.511  54.959   8.315  1.00  0.00     0.139 C 
HETATM    9  C9  UNL     1      -7.570  53.648   7.568  1.00  0.00     0.231 C 
HETATM   10  O5  UNL     1      -7.411  52.647   8.515  1.00  0.00    -0.369 OA
HETATM   11  C12 UNL     1      -7.934  53.108   9.693  1.00  0.00     0.130 C 
HETATM   12  C13 UNL     1      -9.430  52.965   9.664  1.00  0.00     0.040 C 
HETATM   13  C14 UNL     1      -7.480  54.547   9.724  1.00  0.00     0.099 C 
ENDROOT
BRANCH   1  14
HETATM   14  C2  UNL     1      -8.081  55.120  12.093  1.00  0.00     0.291 C 
HETATM   15  O2  UNL     1      -8.699  54.289  12.796  1.00  0.00    -0.260 OA
BRANCH  14  16
HETATM   16  O1  UNL     1      -7.120  55.871  12.775  1.00  0.00    -0.323 OA
HETATM   17  C1  UNL     1      -6.195  55.284  13.665  1.00  0.00     0.213 C 
ENDBRANCH  14  16
ENDBRANCH   1  14
BRANCH   8  18
HETATM   18  O3  UNL     1      -6.310  55.642   8.043  1.00  0.00    -0.380 OA
ATOM     19  H3  UNL     1      -5.631  55.106   8.435  1.00  0.00     0.211 HD
ENDBRANCH   8  18
BRANCH   9  20
HETATM   20  C10 UNL     1      -6.495  53.512   6.566  1.00  0.00     0.155 C 
HETATM   21  C11 UNL     1      -6.828  53.507   5.126  1.00  0.00     0.094 C 
HETATM   22  O4  UNL     1      -5.329  53.401   6.886  1.00  0.00    -0.295 OA
ENDBRANCH   9  20
TORSDOF 4
ENDMDL
MODEL 4
REMARK VINA RESULT: -5.588949304      2.036      5.076
REMARK  4 active torsions:
REMARK  status: ('A' for Active; 'I' for Inactive)
REMARK    1  A    between atoms: O1_2  and  C2_3 
REMARK    2  A    between atoms: C2_3  and  C3_5 
REMARK    3  A    between atoms: C8_12  and  O3_13 
REMARK    4  A    between atoms: C9_15  and  C10_16 
ROOT
HETATM    1  C3  UNL     1      -6.362  51.396  10.260  1.00  0.00     0.049 C 
HETATM    2  C4  UNL     1      -5.676  50.801  11.199  1.00  0.00     0.018 C 
HETATM    3  C5  UNL     1      -4.985  49.522  10.902  1.00  0.00     0.069 C 
HETATM    4  N1  UNL     1      -5.511  51.353  12.508  1.00  0.00    -0.364 N 
ATOM      5  H1  UNL     1      -4.966  50.833  13.195  1.00  0.00     0.165 HD
HETATM    6  C6  UNL     1      -6.019  52.470  12.845  1.00  0.00     0.021 C 
HETATM    7  C7  UNL     1      -5.796  52.953  14.230  1.00  0.00     0.066 C 
HETATM    8  C8  UNL     1      -6.769  53.283  11.870  1.00  0.00     0.139 C 
HETATM    9  C9  UNL     1      -8.113  53.741  12.383  1.00  0.00     0.231 C 
HETATM   10  O5  UNL     1      -9.026  53.500  11.367  1.00  0.00    -0.369 OA
HETATM   11  C12 UNL     1      -8.584  52.412  10.665  1.00  0.00     0.130 C 
HETATM   12  C13 UNL     1      -8.948  51.158  11.409  1.00  0.00     0.040 C 
HETATM   13  C14 UNL     1      -7.094  52.640  10.590  1.00  0.00     0.099 C 
ENDROOT
BRANCH   1  14
HETATM   14  C2  UNL     1      -6.487  50.874   8.914  1.00  0.00     0.291 C 
HETATM   15  O2  UNL     1      -7.161  49.878   8.568  1.00  0.00    -0.260 OA
BRANCH  14  16
HETATM   16  O1  UNL     1      -5.806  51.514   7.876  1.00  0.00    -0.323 OA
HETATM   17  C1  UNL     1      -4.396  51.588   7.830  1.00  0.00     0.213 C 
ENDBRANCH  14  16
ENDBRANCH   1  14
BRANCH   8  18
HETATM   18  O3  UNL     1      -5.931  54.381  11.597  1.00  0.00    -0.380 OA
ATOM     19  H3  UNL     1      -5.506  54.164  10.776  1.00  0.00     0.211 HD
ENDBRANCH   8  18
BRANCH   9  20
HETATM   20  C10 UNL     1      -8.143  55.182  12.701  1.00  0.00     0.155 C 
HETATM   21  C11 UNL     1      -8.741  56.133  11.741  1.00  0.00     0.094 C 
HETATM   22  O4  UNL     1      -7.688  55.621  13.737  1.00  0.00    -0.295 OA
ENDBRANCH   9  20
TORSDOF 4
ENDMDL
MODEL 5
REMARK VINA RESULT: -5.565765971      3.517      5.228
REMARK  4 active torsions:
REMARK  status: ('A' for Active; 'I' for Inactive)
REMARK    1  A    between atoms: O1_2  and  C2_3 
REMARK    2  A    between atoms: C2_3  and  C3_5 
REMARK    3  A    between atoms: C8_12  and  O3_13 
REMARK    4  A    between atoms: C9_15  and  C10_16 
ROOT
HETATM    1  C3  UNL     1      -2.458  51.749  11.504  1.00  0.00     0.049 C 
HETATM    2  C4  UNL     1      -3.213  50.725  11.800  1.00  0.00     0.018 C 
HETATM    3  C5  UNL     1      -3.599  50.484  13.211  1.00  0.00     0.069 C 
HETATM    4  N1  UNL     1      -3.739  49.837  10.809  1.00  0.00    -0.364 N 
ATOM      5  H1  UNL     1      -4.319  49.054  11.110  1.00  0.00     0.165 HD
HETATM    6  C6  UNL     1      -3.509  49.989   9.567  1.00  0.00     0.021 C 
HETATM    7  C7  UNL     1      -4.095  49.009   8.620  1.00  0.00     0.066 C 
HETATM    8  C8  UNL     1      -2.722  51.136   9.080  1.00  0.00     0.139 C 
HETATM    9  C9  UNL     1      -1.612  50.741   8.136  1.00  0.00     0.231 C 
HETATM   10  O5  UNL     1      -0.480  51.429   8.548  1.00  0.00    -0.369 OA
HETATM   11  C12 UNL     1      -0.575  51.605   9.901  1.00  0.00     0.130 C 
HETATM   12  C13 UNL     1      -0.166  50.337  10.598  1.00  0.00     0.040 C 
HETATM   13  C14 UNL     1      -2.033  51.940  10.098  1.00  0.00     0.099 C 
ENDROOT
BRANCH   1  14
HETATM   14  C2  UNL     1      -1.968  52.687  12.493  1.00  0.00     0.291 C 
HETATM   15  O2  UNL     1      -1.034  52.487  13.302  1.00  0.00    -0.260 OA
BRANCH  14  16
HETATM   16  O1  UNL     1      -2.567  53.946  12.584  1.00  0.00    -0.323 OA
HETATM   17  C1  UNL     1      -3.860  54.130  13.123  1.00  0.00     0.213 C 
ENDBRANCH  14  16
ENDBRANCH   1  14
BRANCH   8  18
HETATM   18  O3  UNL     1      -3.658  51.970   8.439  1.00  0.00    -0.380 OA
ATOM     19  H3  UNL     1      -3.515  51.829   7.511  1.00  0.00     0.211 HD
ENDBRANCH   8  18
BRANCH   9  20
HETATM   20  C10 UNL     1      -1.894  51.111   6.735  1.00  0.00     0.155 C 
HETATM   21  C11 UNL     1      -2.435  50.100   5.803  1.00  0.00     0.094 C 
HETATM   22  O4  UNL     1      -1.695  52.232   6.314  1.00  0.00    -0.295 OA
ENDBRANCH   9  20
TORSDOF 4
ENDMDL
