MODEL 1
REMARK VINA RESULT: -6.408566250      0.000      0.000
REMARK  9 active torsions:
REMARK  status: ('A' for Active; 'I' for Inactive)
REMARK       I    between atoms: C1_4  and  N2_5 
REMARK       I    between atoms: C1_4  and  N8_27 
REMARK    1  A    between atoms: N2_5  and  C2_7 
REMARK    2  A    between atoms: C3_8  and  C4_9 
REMARK    3  A    between atoms: C4_9  and  N3_10 
REMARK    4  A    between atoms: C4_9  and  O1_14 
REMARK    5  A    between atoms: C5_17  and  N4_18 
REMARK    6  A    between atoms: N5_21  and  C6_22 
REMARK    7  A    between atoms: C6_22  and  N6_23 
REMARK    8  A    between atoms: N6_23  and  N7_24 
REMARK    9  A    between atoms: N8_27  and  N9_29 
ROOT
HETATM    1  C2  UNL     1      14.701  17.315  18.025  1.00  0.00     0.162 A 
HETATM    2  C3  UNL     1      13.872  17.147  19.086  1.00  0.00     0.157 A 
HETATM    3  O2  UNL     1      12.633  16.991  18.561  1.00  0.00    -0.275 OA
HETATM    4  C5  UNL     1      12.687  17.058  17.272  1.00  0.00     0.227 A 
HETATM    5  N5  UNL     1      13.944  17.259  16.864  1.00  0.00    -0.280 N 
ENDROOT
BRANCH   1   6
HETATM    6  N2  UNL     1      16.080  17.466  17.976  1.00  0.00    -0.173 N 
HETATM    7  C1  UNL     1      16.941  18.521  18.284  1.00  0.00     0.696 C 
HETATM    8  N1  UNL     1      17.598  19.100  17.302  1.00  0.00    -0.233 N 
HETATM    9  N8  UNL     1      17.243  19.018  19.579  1.00  0.00    -0.072 N 
ATOM     10  H12 UNL     1      17.381  18.743  16.372  1.00  0.00     0.174 HD
ATOM     11  H11 UNL     1      18.226  19.871  17.528  1.00  0.00     0.174 HD
ATOM     12  H8  UNL     1      16.604  18.797  20.343  1.00  0.00     0.212 HD
ATOM     13  H2  UNL     1      16.566  16.633  17.646  1.00  0.00     0.186 HD
BRANCH   9  14
HETATM   14  N9  UNL     1      18.364  19.790  19.859  1.00  0.00    -0.024 N 
HETATM   15  O3  UNL     1      19.152  19.390  20.730  1.00  0.00    -0.516 OA
HETATM   16  O4  UNL     1      18.633  20.967  19.218  1.00  0.00    -0.516 OA
ENDBRANCH   9  14
ENDBRANCH   1   6
BRANCH   2  17
HETATM   17  C4  UNL     1      14.064  17.115  20.556  1.00  0.00     0.378 C 
BRANCH  17  18
HETATM   18  N3  UNL     1      14.454  18.316  21.186  1.00  0.00    -0.047 N 
ATOM     19  H33 UNL     1      15.367  18.188  21.622  1.00  0.00     0.277 HD
ATOM     20  H32 UNL     1      14.679  19.013  20.476  1.00  0.00     0.277 HD
ATOM     21  H31 UNL     1      13.808  18.721  21.864  1.00  0.00     0.277 HD
ENDBRANCH  17  18
BRANCH  17  22
HETATM   22  O1  UNL     1      14.824  16.027  20.992  1.00  0.00    -0.365 OA
ATOM     23  H1  UNL     1      15.061  16.078  21.910  1.00  0.00     0.212 HD
ENDBRANCH  17  22
ENDBRANCH   2  17
BRANCH   5  24
HETATM   24  C6  UNL     1      14.393  17.389  15.497  1.00  0.00     0.269 C 
BRANCH  24  25
HETATM   25  N6  UNL     1      13.534  18.279  14.749  1.00  0.00    -0.128 NA
BRANCH  25  26
HETATM   26  N7  UNL     1      14.149  18.795  13.628  1.00  0.00    -0.347 N 
ATOM     27  H72 UNL     1      14.981  18.377  13.213  1.00  0.00     0.172 HD
ATOM     28  H71 UNL     1      13.681  19.627  13.270  1.00  0.00     0.172 HD
ENDBRANCH  25  26
ENDBRANCH  24  25
ENDBRANCH   5  24
BRANCH   4  29
HETATM   29  N4  UNL     1      11.651  16.943  16.509  1.00  0.00    -0.365 N 
ATOM     30  H42 UNL     1      10.728  17.337  16.689  1.00  0.00     0.159 HD
ATOM     31  H41 UNL     1      11.656  16.430  15.626  1.00  0.00     0.159 HD
ENDBRANCH   4  29
TORSDOF 9
ENDMDL
MODEL 2
REMARK VINA RESULT: -6.216112868      1.555      1.754
REMARK  9 active torsions:
REMARK  status: ('A' for Active; 'I' for Inactive)
REMARK       I    between atoms: C1_4  and  N2_5 
REMARK       I    between atoms: C1_4  and  N8_27 
REMARK    1  A    between atoms: N2_5  and  C2_7 
REMARK    2  A    between atoms: C3_8  and  C4_9 
REMARK    3  A    between atoms: C4_9  and  N3_10 
REMARK    4  A    between atoms: C4_9  and  O1_14 
REMARK    5  A    between atoms: C5_17  and  N4_18 
REMARK    6  A    between atoms: N5_21  and  C6_22 
REMARK    7  A    between atoms: C6_22  and  N6_23 
REMARK    8  A    between atoms: N6_23  and  N7_24 
REMARK    9  A    between atoms: N8_27  and  N9_29 
ROOT
HETATM    1  C2  UNL     1      14.539  17.431  17.636  1.00  0.00     0.162 A 
HETATM    2  C3  UNL     1      13.865  17.037  18.746  1.00  0.00     0.157 A 
HETATM    3  O2  UNL     1      12.743  16.426  18.296  1.00  0.00    -0.275 OA
HETATM    4  C5  UNL     1      12.720  16.440  17.004  1.00  0.00     0.227 A 
HETATM    5  N5  UNL     1      13.807  17.050  16.521  1.00  0.00    -0.280 N 
ENDROOT
BRANCH   1   6
HETATM    6  N2  UNL     1      15.772  18.056  17.506  1.00  0.00    -0.173 N 
HETATM    7  C1  UNL     1      17.017  17.855  18.105  1.00  0.00     0.696 C 
HETATM    8  N1  UNL     1      17.478  18.783  18.915  1.00  0.00    -0.233 N 
HETATM    9  N8  UNL     1      17.895  16.762  17.889  1.00  0.00    -0.072 N 
ATOM     10  H12 UNL     1      16.846  19.569  19.071  1.00  0.00     0.174 HD
ATOM     11  H11 UNL     1      18.387  18.636  19.354  1.00  0.00     0.174 HD
ATOM     12  H8  UNL     1      17.513  15.907  17.483  1.00  0.00     0.212 HD
ATOM     13  H2  UNL     1      15.767  18.821  16.831  1.00  0.00     0.186 HD
BRANCH   9  14
HETATM   14  N9  UNL     1      19.249  16.795  18.201  1.00  0.00    -0.024 N 
HETATM   15  O3  UNL     1      19.697  15.932  18.971  1.00  0.00    -0.516 OA
HETATM   16  O4  UNL     1      20.103  17.736  17.698  1.00  0.00    -0.516 OA
ENDBRANCH   9  14
ENDBRANCH   1   6
BRANCH   2  17
HETATM   17  C4  UNL     1      14.113  17.152  20.204  1.00  0.00     0.378 C 
BRANCH  17  18
HETATM   18  N3  UNL     1      14.528  18.409  20.694  1.00  0.00    -0.047 N 
ATOM     19  H33 UNL     1      15.441  18.314  21.138  1.00  0.00     0.277 HD
ATOM     20  H32 UNL     1      14.761  19.018  19.910  1.00  0.00     0.277 HD
ATOM     21  H31 UNL     1      13.893  18.898  21.325  1.00  0.00     0.277 HD
ENDBRANCH  17  18
BRANCH  17  22
HETATM   22  O1  UNL     1      14.889  16.111  20.718  1.00  0.00    -0.365 OA
ATOM     23  H1  UNL     1      14.373  15.407  21.093  1.00  0.00     0.212 HD
ENDBRANCH  17  22
ENDBRANCH   2  17
BRANCH   5  24
HETATM   24  C6  UNL     1      14.127  17.258  15.128  1.00  0.00     0.269 C 
BRANCH  24  25
HETATM   25  N6  UNL     1      13.306  18.301  14.554  1.00  0.00    -0.128 NA
BRANCH  25  26
HETATM   26  N7  UNL     1      13.787  18.752  13.345  1.00  0.00    -0.347 N 
ATOM     27  H72 UNL     1      14.555  18.298  12.851  1.00  0.00     0.172 HD
ATOM     28  H71 UNL     1      13.294  19.579  13.008  1.00  0.00     0.172 HD
ENDBRANCH  25  26
ENDBRANCH  24  25
ENDBRANCH   5  24
BRANCH   4  29
HETATM   29  N4  UNL     1      11.764  15.927  16.303  1.00  0.00    -0.365 N 
ATOM     30  H42 UNL     1      11.071  15.256  16.637  1.00  0.00     0.159 HD
ATOM     31  H41 UNL     1      11.604  16.148  15.320  1.00  0.00     0.159 HD
ENDBRANCH   4  29
TORSDOF 9
ENDMDL
MODEL 3
REMARK VINA RESULT: -6.050728895      3.038      6.981
REMARK  9 active torsions:
REMARK  status: ('A' for Active; 'I' for Inactive)
REMARK       I    between atoms: C1_4  and  N2_5 
REMARK       I    between atoms: C1_4  and  N8_27 
REMARK    1  A    between atoms: N2_5  and  C2_7 
REMARK    2  A    between atoms: C3_8  and  C4_9 
REMARK    3  A    between atoms: C4_9  and  N3_10 
REMARK    4  A    between atoms: C4_9  and  O1_14 
REMARK    5  A    between atoms: C5_17  and  N4_18 
REMARK    6  A    between atoms: N5_21  and  C6_22 
REMARK    7  A    between atoms: C6_22  and  N6_23 
REMARK    8  A    between atoms: N6_23  and  N7_24 
REMARK    9  A    between atoms: N8_27  and  N9_29 
ROOT
HETATM    1  C2  UNL     1      13.397  16.677  16.856  1.00  0.00     0.162 A 
HETATM    2  C3  UNL     1      14.055  17.331  15.866  1.00  0.00     0.157 A 
HETATM    3  O2  UNL     1      15.089  17.964  16.470  1.00  0.00    -0.275 OA
HETATM    4  C5  UNL     1      15.075  17.724  17.739  1.00  0.00     0.227 A 
HETATM    5  N5  UNL     1      14.049  16.929  18.056  1.00  0.00    -0.280 N 
ENDROOT
BRANCH   1   6
HETATM    6  N2  UNL     1      12.297  15.832  16.801  1.00  0.00    -0.173 N 
HETATM    7  C1  UNL     1      11.865  14.880  15.876  1.00  0.00     0.696 C 
HETATM    8  N1  UNL     1      10.765  15.122  15.197  1.00  0.00    -0.233 N 
HETATM    9  N8  UNL     1      12.459  13.617  15.620  1.00  0.00    -0.072 N 
ATOM     10  H12 UNL     1      10.339  16.030  15.381  1.00  0.00     0.174 HD
ATOM     11  H11 UNL     1      10.450  14.427  14.520  1.00  0.00     0.174 HD
ATOM     12  H8  UNL     1      13.425  13.467  15.914  1.00  0.00     0.212 HD
ATOM     13  H2  UNL     1      11.675  15.926  17.604  1.00  0.00     0.186 HD
BRANCH   9  14
HETATM   14  N9  UNL     1      11.794  12.573  14.988  1.00  0.00    -0.024 N 
HETATM   15  O3  UNL     1      11.998  11.416  15.388  1.00  0.00    -0.516 OA
HETATM   16  O4  UNL     1      10.928  12.766  13.949  1.00  0.00    -0.516 OA
ENDBRANCH   9  14
ENDBRANCH   1   6
BRANCH   2  17
HETATM   17  C4  UNL     1      13.857  17.462  14.402  1.00  0.00     0.378 C 
BRANCH  17  18
HETATM   18  N3  UNL     1      13.696  18.766  13.884  1.00  0.00    -0.047 N 
ATOM     19  H33 UNL     1      12.756  18.863  13.500  1.00  0.00     0.277 HD
ATOM     20  H32 UNL     1      13.657  19.433  14.654  1.00  0.00     0.277 HD
ATOM     21  H31 UNL     1      14.378  19.083  13.196  1.00  0.00     0.277 HD
ENDBRANCH  17  18
BRANCH  17  22
HETATM   22  O1  UNL     1      12.907  16.577  13.890  1.00  0.00    -0.365 OA
ATOM     23  H1  UNL     1      12.916  15.728  14.314  1.00  0.00     0.212 HD
ENDBRANCH  17  22
ENDBRANCH   2  17
BRANCH   5  24
HETATM   24  C6  UNL     1      13.710  16.448  19.375  1.00  0.00     0.269 C 
BRANCH  24  25
HETATM   25  N6  UNL     1      13.339  17.539  20.248  1.00  0.00    -0.128 NA
BRANCH  25  26
HETATM   26  N7  UNL     1      14.199  17.683  21.315  1.00  0.00    -0.347 N 
ATOM     27  H72 UNL     1      14.107  17.143  22.175  1.00  0.00     0.172 HD
ATOM     28  H71 UNL     1      14.924  18.379  21.146  1.00  0.00     0.172 HD
ENDBRANCH  25  26
ENDBRANCH  24  25
ENDBRANCH   5  24
BRANCH   4  29
HETATM   29  N4  UNL     1      15.947  18.202  18.564  1.00  0.00    -0.365 N 
ATOM     30  H42 UNL     1      15.775  18.450  19.539  1.00  0.00     0.159 HD
ATOM     31  H41 UNL     1      16.919  18.383  18.314  1.00  0.00     0.159 HD
ENDBRANCH   4  29
TORSDOF 9
ENDMDL
MODEL 4
REMARK VINA RESULT: -5.980232870      2.302      6.152
REMARK  9 active torsions:
REMARK  status: ('A' for Active; 'I' for Inactive)
REMARK       I    between atoms: C1_4  and  N2_5 
REMARK       I    between atoms: C1_4  and  N8_27 
REMARK    1  A    between atoms: N2_5  and  C2_7 
REMARK    2  A    between atoms: C3_8  and  C4_9 
REMARK    3  A    between atoms: C4_9  and  N3_10 
REMARK    4  A    between atoms: C4_9  and  O1_14 
REMARK    5  A    between atoms: C5_17  and  N4_18 
REMARK    6  A    between atoms: N5_21  and  C6_22 
REMARK    7  A    between atoms: C6_22  and  N6_23 
REMARK    8  A    between atoms: N6_23  and  N7_24 
REMARK    9  A    between atoms: N8_27  and  N9_29 
ROOT
HETATM    1  C2  UNL     1      17.980  18.527  18.608  1.00  0.00     0.162 A 
HETATM    2  C3  UNL     1      19.146  17.866  18.393  1.00  0.00     0.157 A 
HETATM    3  O2  UNL     1      19.927  18.143  19.465  1.00  0.00    -0.275 OA
HETATM    4  C5  UNL     1      19.296  18.919  20.284  1.00  0.00     0.227 A 
HETATM    5  N5  UNL     1      18.076  19.202  19.817  1.00  0.00    -0.280 N 
ENDROOT
BRANCH   1   6
HETATM    6  N2  UNL     1      16.811  18.557  17.860  1.00  0.00    -0.173 N 
HETATM    7  C1  UNL     1      15.655  17.773  17.857  1.00  0.00     0.696 C 
HETATM    8  N1  UNL     1      15.415  17.017  16.808  1.00  0.00    -0.233 N 
HETATM    9  N8  UNL     1      14.650  17.742  18.858  1.00  0.00    -0.072 N 
ATOM     10  H12 UNL     1      16.138  17.039  16.089  1.00  0.00     0.174 HD
ATOM     11  H11 UNL     1      14.571  16.444  16.806  1.00  0.00     0.174 HD
ATOM     12  H8  UNL     1      14.880  18.098  19.786  1.00  0.00     0.212 HD
ATOM     13  H2  UNL     1      16.792  19.307  17.170  1.00  0.00     0.186 HD
BRANCH   9  14
HETATM   14  N9  UNL     1      13.368  17.252  18.638  1.00  0.00    -0.024 N 
HETATM   15  O3  UNL     1      13.177  16.032  18.747  1.00  0.00    -0.516 OA
HETATM   16  O4  UNL     1      12.313  18.056  18.308  1.00  0.00    -0.516 OA
ENDBRANCH   9  14
ENDBRANCH   1   6
BRANCH   2  17
HETATM   17  C4  UNL     1      19.658  16.995  17.307  1.00  0.00     0.378 C 
BRANCH  17  18
HETATM   18  N3  UNL     1      20.493  17.591  16.338  1.00  0.00    -0.047 N 
ATOM     19  H33 UNL     1      21.231  18.118  16.805  1.00  0.00     0.277 HD
ATOM     20  H32 UNL     1      21.042  16.867  15.873  1.00  0.00     0.277 HD
ATOM     21  H31 UNL     1      20.048  18.181  15.635  1.00  0.00     0.277 HD
ENDBRANCH  17  18
BRANCH  17  22
HETATM   22  O1  UNL     1      18.671  16.197  16.725  1.00  0.00    -0.365 OA
ATOM     23  H1  UNL     1      18.960  15.757  15.935  1.00  0.00     0.212 HD
ENDBRANCH  17  22
ENDBRANCH   2  17
BRANCH   5  24
HETATM   24  C6  UNL     1      17.085  20.037  20.454  1.00  0.00     0.269 C 
BRANCH  24  25
HETATM   25  N6  UNL     1      15.978  19.249  20.946  1.00  0.00    -0.128 NA
BRANCH  25  26
HETATM   26  N7  UNL     1      15.028  20.010  21.593  1.00  0.00    -0.347 N 
ATOM     27  H72 UNL     1      14.591  20.826  21.166  1.00  0.00     0.172 HD
ATOM     28  H71 UNL     1      14.819  19.667  22.530  1.00  0.00     0.172 HD
ENDBRANCH  25  26
ENDBRANCH  24  25
ENDBRANCH   5  24
BRANCH   4  29
HETATM   29  N4  UNL     1      19.802  19.345  21.393  1.00  0.00    -0.365 N 
ATOM     30  H42 UNL     1      20.619  18.960  21.865  1.00  0.00     0.159 HD
ATOM     31  H41 UNL     1      19.420  20.131  21.920  1.00  0.00     0.159 HD
ENDBRANCH   4  29
TORSDOF 9
ENDMDL
MODEL 5
REMARK VINA RESULT: -5.882624001      7.333      9.472
REMARK  9 active torsions:
REMARK  status: ('A' for Active; 'I' for Inactive)
REMARK       I    between atoms: C1_4  and  N2_5 
REMARK       I    between atoms: C1_4  and  N8_27 
REMARK    1  A    between atoms: N2_5  and  C2_7 
REMARK    2  A    between atoms: C3_8  and  C4_9 
REMARK    3  A    between atoms: C4_9  and  N3_10 
REMARK    4  A    between atoms: C4_9  and  O1_14 
REMARK    5  A    between atoms: C5_17  and  N4_18 
REMARK    6  A    between atoms: N5_21  and  C6_22 
REMARK    7  A    between atoms: C6_22  and  N6_23 
REMARK    8  A    between atoms: N6_23  and  N7_24 
REMARK    9  A    between atoms: N8_27  and  N9_29 
ROOT
HETATM    1  C2  UNL     1      16.928  11.787  13.265  1.00  0.00     0.162 A 
HETATM    2  C3  UNL     1      17.692  12.681  13.943  1.00  0.00     0.157 A 
HETATM    3  O2  UNL     1      18.897  12.083  14.106  1.00  0.00    -0.275 OA
HETATM    4  C5  UNL     1      18.884  10.907  13.572  1.00  0.00     0.227 A 
HETATM    5  N5  UNL     1      17.690  10.651  13.028  1.00  0.00    -0.280 N 
ENDROOT
BRANCH   1   6
HETATM    6  N2  UNL     1      15.629  11.892  12.788  1.00  0.00    -0.173 N 
HETATM    7  C1  UNL     1      14.383  11.546  13.315  1.00  0.00     0.696 C 
HETATM    8  N1  UNL     1      13.712  10.569  12.744  1.00  0.00    -0.233 N 
HETATM    9  N8  UNL     1      13.711  12.185  14.389  1.00  0.00    -0.072 N 
ATOM     10  H12 UNL     1      14.195  10.111  11.972  1.00  0.00     0.174 HD
ATOM     11  H11 UNL     1      12.802  10.317  13.129  1.00  0.00     0.174 HD
ATOM     12  H8  UNL     1      14.257  12.767  15.024  1.00  0.00     0.212 HD
ATOM     13  H2  UNL     1      15.573  12.308  11.858  1.00  0.00     0.186 HD
BRANCH   9  14
HETATM   14  N9  UNL     1      12.346  12.057  14.620  1.00  0.00    -0.024 N 
HETATM   15  O3  UNL     1      11.965  11.217  15.449  1.00  0.00    -0.516 OA
HETATM   16  O4  UNL     1      11.410  12.816  13.975  1.00  0.00    -0.516 OA
ENDBRANCH   9  14
ENDBRANCH   1   6
BRANCH   2  17
HETATM   17  C4  UNL     1      17.460  14.043  14.482  1.00  0.00     0.378 C 
BRANCH  17  18
HETATM   18  N3  UNL     1      18.187  14.418  15.632  1.00  0.00    -0.047 N 
ATOM     19  H33 UNL     1      19.112  13.988  15.602  1.00  0.00     0.277 HD
ATOM     20  H32 UNL     1      18.434  15.405  15.569  1.00  0.00     0.277 HD
ATOM     21  H31 UNL     1      17.757  14.234  16.538  1.00  0.00     0.277 HD
ENDBRANCH  17  18
BRANCH  17  22
HETATM   22  O1  UNL     1      16.107  14.373  14.590  1.00  0.00    -0.365 OA
ATOM     23  H1  UNL     1      15.957  15.212  15.007  1.00  0.00     0.212 HD
ENDBRANCH  17  22
ENDBRANCH   2  17
BRANCH   5  24
HETATM   24  C6  UNL     1      17.299   9.440  12.345  1.00  0.00     0.269 C 
BRANCH  24  25
HETATM   25  N6  UNL     1      16.281   8.729  13.085  1.00  0.00    -0.128 NA
BRANCH  25  26
HETATM   26  N7  UNL     1      16.779   8.104  14.208  1.00  0.00    -0.347 N 
ATOM     27  H72 UNL     1      17.733   7.749  14.266  1.00  0.00     0.172 HD
ATOM     28  H71 UNL     1      16.093   8.040  14.960  1.00  0.00     0.172 HD
ENDBRANCH  25  26
ENDBRANCH  24  25
ENDBRANCH   5  24
BRANCH   4  29
HETATM   29  N4  UNL     1      19.901  10.111  13.578  1.00  0.00    -0.365 N 
ATOM     30  H42 UNL     1      20.751  10.231  14.128  1.00  0.00     0.159 HD
ATOM     31  H41 UNL     1      19.953   9.260  13.017  1.00  0.00     0.159 HD
ENDBRANCH   4  29
TORSDOF 9
ENDMDL
