MODEL 1
REMARK VINA RESULT: -7.381885311      0.000      0.000
REMARK  5 active torsions:
REMARK  status: ('A' for Active; 'I' for Inactive)
REMARK    1  A    between atoms: O1_2  and  C2_3 
REMARK    2  A    between atoms: C2_3  and  C3_4 
REMARK    3  A    between atoms: C3_4  and  C6_7 
REMARK    4  A    between atoms: C6_7  and  O2_8 
REMARK    5  A    between atoms: O2_8  and  C7_9 
ROOT
HETATM    1  C2  UNL     1      25.661   3.345   8.265  1.00  0.00     0.204 C 
HETATM    2  O4  UNL     1      25.607   3.970   7.043  1.00  0.00    -0.319 OA
HETATM    3  C9  UNL     1      25.584   5.270   6.851  1.00  0.00     0.298 C 
HETATM    4  O5  UNL     1      26.522   5.551   5.811  1.00  0.00    -0.323 OA
HETATM    5  C10 UNL     1      27.471   6.385   6.334  1.00  0.00     0.160 C 
HETATM    6  C11 UNL     1      28.853   6.101   5.816  1.00  0.00     0.078 C 
HETATM    7  C12 UNL     1      27.125   7.814   5.927  1.00  0.00     0.078 C 
HETATM    8  O6  UNL     1      27.385   6.303   7.722  1.00  0.00    -0.343 OA
HETATM    9  C13 UNL     1      26.007   6.220   7.897  1.00  0.00     0.212 C 
HETATM   10  C14 UNL     1      25.642   5.685   9.259  1.00  0.00     0.193 C 
HETATM   11  O7  UNL     1      26.536   6.319  10.159  1.00  0.00    -0.345 OA
HETATM   12  C15 UNL     1      27.438   5.371  10.568  1.00  0.00     0.158 C 
HETATM   13  C16 UNL     1      27.009   4.849  11.922  1.00  0.00     0.078 C 
HETATM   14  C17 UNL     1      28.788   6.005  10.699  1.00  0.00     0.078 C 
HETATM   15  O8  UNL     1      27.395   4.378   9.596  1.00  0.00    -0.343 OA
HETATM   16  C18 UNL     1      25.995   4.254   9.425  1.00  0.00     0.220 C 
ENDROOT
BRANCH   1  17
HETATM   17  O1  UNL     1      26.621   2.392   8.083  1.00  0.00    -0.357 OA
HETATM   18  C1  UNL     1      27.380   1.818   8.975  1.00  0.00     0.205 C 
ENDBRANCH   1  17
BRANCH   1  19
HETATM   19  C3  UNL     1      24.325   2.680   8.463  1.00  0.00     0.034 C 
HETATM   20  C4  UNL     1      23.133   3.424   7.953  1.00  0.00     0.023 C 
HETATM   21  C5  UNL     1      24.279   1.283   7.863  1.00  0.00     0.023 C 
BRANCH  19  22
HETATM   22  C6  UNL     1      24.053   2.449   9.964  1.00  0.00     0.193 C 
BRANCH  22  23
HETATM   23  O2  UNL     1      22.850   3.101  10.325  1.00  0.00    -0.321 OA
BRANCH  23  24
HETATM   24  C7  UNL     1      22.050   2.741  11.367  1.00  0.00     0.254 C 
HETATM   25  C8  UNL     1      21.887   3.680  12.500  1.00  0.00     0.126 C 
HETATM   26  O3  UNL     1      21.487   1.620  11.311  1.00  0.00    -0.266 OA
ENDBRANCH  23  24
ENDBRANCH  22  23
ENDBRANCH  19  22
ENDBRANCH   1  19
TORSDOF 5
ENDMDL
MODEL 2
REMARK VINA RESULT: -7.271993201      1.847      4.155
REMARK  5 active torsions:
REMARK  status: ('A' for Active; 'I' for Inactive)
REMARK    1  A    between atoms: O1_2  and  C2_3 
REMARK    2  A    between atoms: C2_3  and  C3_4 
REMARK    3  A    between atoms: C3_4  and  C6_7 
REMARK    4  A    between atoms: C6_7  and  O2_8 
REMARK    5  A    between atoms: O2_8  and  C7_9 
ROOT
HETATM    1  C2  UNL     1      26.145   3.348   9.318  1.00  0.00     0.204 C 
HETATM    2  O4  UNL     1      27.266   4.003   8.869  1.00  0.00    -0.319 OA
HETATM    3  C9  UNL     1      27.550   5.268   9.087  1.00  0.00     0.298 C 
HETATM    4  O5  UNL     1      28.920   5.323   9.482  1.00  0.00    -0.323 OA
HETATM    5  C10 UNL     1      28.961   5.858  10.740  1.00  0.00     0.160 C 
HETATM    6  C11 UNL     1      30.014   5.234  11.611  1.00  0.00     0.078 C 
HETATM    7  C12 UNL     1      29.302   7.340  10.615  1.00  0.00     0.078 C 
HETATM    8  O6  UNL     1      27.681   5.758  11.281  1.00  0.00    -0.343 OA
HETATM    9  C13 UNL     1      26.899   6.038  10.163  1.00  0.00     0.212 C 
HETATM   10  C14 UNL     1      25.474   5.576  10.341  1.00  0.00     0.193 C 
HETATM   11  O7  UNL     1      25.136   5.922  11.674  1.00  0.00    -0.345 OA
HETATM   12  C15 UNL     1      25.087   4.756  12.394  1.00  0.00     0.158 C 
HETATM   13  C16 UNL     1      23.642   4.324  12.517  1.00  0.00     0.078 C 
HETATM   14  C17 UNL     1      25.636   5.005  13.765  1.00  0.00     0.078 C 
HETATM   15  O8  UNL     1      25.838   3.841  11.665  1.00  0.00    -0.343 OA
HETATM   16  C18 UNL     1      25.350   4.098  10.361  1.00  0.00     0.220 C 
ENDROOT
BRANCH   1  17
HETATM   17  O1  UNL     1      26.648   2.181   9.816  1.00  0.00    -0.357 OA
HETATM   18  C1  UNL     1      27.835   1.945  10.302  1.00  0.00     0.205 C 
ENDBRANCH   1  17
BRANCH   1  19
HETATM   19  C3  UNL     1      25.307   3.055   8.102  1.00  0.00     0.034 C 
HETATM   20  C4  UNL     1      26.014   2.421   6.948  1.00  0.00     0.023 C 
HETATM   21  C5  UNL     1      24.100   2.188   8.427  1.00  0.00     0.023 C 
BRANCH  19  22
HETATM   22  C6  UNL     1      24.692   4.355   7.544  1.00  0.00     0.193 C 
BRANCH  22  23
HETATM   23  O2  UNL     1      25.337   4.691   6.330  1.00  0.00    -0.321 OA
BRANCH  23  24
HETATM   24  C7  UNL     1      25.780   5.936   6.000  1.00  0.00     0.254 C 
HETATM   25  C8  UNL     1      27.202   6.112   5.628  1.00  0.00     0.126 C 
HETATM   26  O3  UNL     1      24.950   6.878   6.029  1.00  0.00    -0.266 OA
ENDBRANCH  23  24
ENDBRANCH  22  23
ENDBRANCH  19  22
ENDBRANCH   1  19
TORSDOF 5
ENDMDL
MODEL 3
REMARK VINA RESULT: -6.947994350      1.708      3.112
REMARK  5 active torsions:
REMARK  status: ('A' for Active; 'I' for Inactive)
REMARK    1  A    between atoms: O1_2  and  C2_3 
REMARK    2  A    between atoms: C2_3  and  C3_4 
REMARK    3  A    between atoms: C3_4  and  C6_7 
REMARK    4  A    between atoms: C6_7  and  O2_8 
REMARK    5  A    between atoms: O2_8  and  C7_9 
ROOT
HETATM    1  C2  UNL     1      27.246   4.642  10.650  1.00  0.00     0.204 C 
HETATM    2  O4  UNL     1      26.502   4.979   9.545  1.00  0.00    -0.319 OA
HETATM    3  C9  UNL     1      26.519   6.145   8.940  1.00  0.00     0.298 C 
HETATM    4  O5  UNL     1      26.605   5.883   7.539  1.00  0.00    -0.323 OA
HETATM    5  C10 UNL     1      27.761   6.458   7.088  1.00  0.00     0.160 C 
HETATM    6  C11 UNL     1      28.451   5.642   6.032  1.00  0.00     0.078 C 
HETATM    7  C12 UNL     1      27.410   7.803   6.459  1.00  0.00     0.078 C 
HETATM    8  O6  UNL     1      28.570   6.703   8.196  1.00  0.00    -0.343 OA
HETATM    9  C13 UNL     1      27.620   7.107   9.132  1.00  0.00     0.212 C 
HETATM   10  C14 UNL     1      28.145   7.018  10.543  1.00  0.00     0.193 C 
HETATM   11  O7  UNL     1      29.475   7.505  10.476  1.00  0.00    -0.345 OA
HETATM   12  C15 UNL     1      30.309   6.427  10.619  1.00  0.00     0.158 C 
HETATM   13  C16 UNL     1      30.781   6.369  12.056  1.00  0.00     0.078 C 
HETATM   14  C17 UNL     1      31.498   6.605   9.726  1.00  0.00     0.078 C 
HETATM   15  O8  UNL     1      29.538   5.319  10.285  1.00  0.00    -0.343 OA
HETATM   16  C18 UNL     1      28.348   5.619  10.991  1.00  0.00     0.220 C 
ENDROOT
BRANCH   1  17
HETATM   17  O1  UNL     1      27.748   3.416  10.324  1.00  0.00    -0.357 OA
HETATM   18  C1  UNL     1      27.397   2.624   9.349  1.00  0.00     0.205 C 
ENDBRANCH   1  17
BRANCH   1  19
HETATM   19  C3  UNL     1      26.275   4.500  11.791  1.00  0.00     0.034 C 
HETATM   20  C4  UNL     1      26.487   3.332  12.700  1.00  0.00     0.023 C 
HETATM   21  C5  UNL     1      26.217   5.747  12.661  1.00  0.00     0.023 C 
BRANCH  19  22
HETATM   22  C6  UNL     1      24.834   4.350  11.259  1.00  0.00     0.193 C 
BRANCH  22  23
HETATM   23  O2  UNL     1      24.531   2.975  11.117  1.00  0.00    -0.321 OA
BRANCH  23  24
HETATM   24  C7  UNL     1      24.024   2.401   9.991  1.00  0.00     0.254 C 
HETATM   25  C8  UNL     1      23.557   3.275   8.892  1.00  0.00     0.126 C 
HETATM   26  O3  UNL     1      23.980   1.147   9.945  1.00  0.00    -0.266 OA
ENDBRANCH  23  24
ENDBRANCH  22  23
ENDBRANCH  19  22
ENDBRANCH   1  19
TORSDOF 5
ENDMDL
MODEL 4
REMARK VINA RESULT: -6.909523857      1.992      3.077
REMARK  5 active torsions:
REMARK  status: ('A' for Active; 'I' for Inactive)
REMARK    1  A    between atoms: O1_2  and  C2_3 
REMARK    2  A    between atoms: C2_3  and  C3_4 
REMARK    3  A    between atoms: C3_4  and  C6_7 
REMARK    4  A    between atoms: C6_7  and  O2_8 
REMARK    5  A    between atoms: O2_8  and  C7_9 
ROOT
HETATM    1  C2  UNL     1      27.239   4.504  10.874  1.00  0.00     0.204 C 
HETATM    2  O4  UNL     1      26.426   4.790   9.804  1.00  0.00    -0.319 OA
HETATM    3  C9  UNL     1      26.363   5.945   9.181  1.00  0.00     0.298 C 
HETATM    4  O5  UNL     1      26.388   5.662   7.782  1.00  0.00    -0.323 OA
HETATM    5  C10 UNL     1      27.495   6.276   7.262  1.00  0.00     0.160 C 
HETATM    6  C11 UNL     1      28.163   5.470   6.184  1.00  0.00     0.078 C 
HETATM    7  C12 UNL     1      27.056   7.594   6.631  1.00  0.00     0.078 C 
HETATM    8  O6  UNL     1      28.348   6.574   8.323  1.00  0.00    -0.343 OA
HETATM    9  C13 UNL     1      27.432   6.954   9.300  1.00  0.00     0.212 C 
HETATM   10  C14 UNL     1      28.031   6.912  10.683  1.00  0.00     0.193 C 
HETATM   11  O7  UNL     1      29.334   7.452  10.540  1.00  0.00    -0.345 OA
HETATM   12  C15 UNL     1      30.219   6.412  10.657  1.00  0.00     0.158 C 
HETATM   13  C16 UNL     1      30.766   6.399  12.068  1.00  0.00     0.078 C 
HETATM   14  C17 UNL     1      31.352   6.623   9.700  1.00  0.00     0.078 C 
HETATM   15  O8  UNL     1      29.479   5.267  10.380  1.00  0.00    -0.343 OA
HETATM   16  C18 UNL     1      28.315   5.531  11.142  1.00  0.00     0.220 C 
ENDROOT
BRANCH   1  17
HETATM   17  O1  UNL     1      27.774   3.293  10.542  1.00  0.00    -0.357 OA
HETATM   18  C1  UNL     1      27.341   2.421   9.675  1.00  0.00     0.205 C 
ENDBRANCH   1  17
BRANCH   1  19
HETATM   19  C3  UNL     1      26.334   4.342  12.066  1.00  0.00     0.034 C 
HETATM   20  C4  UNL     1      26.771   3.356  13.101  1.00  0.00     0.023 C 
HETATM   21  C5  UNL     1      26.074   5.661  12.778  1.00  0.00     0.023 C 
BRANCH  19  22
HETATM   22  C6  UNL     1      24.932   3.877  11.621  1.00  0.00     0.193 C 
BRANCH  22  23
HETATM   23  O2  UNL     1      23.955   4.495  12.438  1.00  0.00    -0.321 OA
BRANCH  23  24
HETATM   24  C7  UNL     1      22.877   3.862  12.979  1.00  0.00     0.254 C 
HETATM   25  C8  UNL     1      22.406   4.275  14.320  1.00  0.00     0.126 C 
HETATM   26  O3  UNL     1      22.334   2.953  12.303  1.00  0.00    -0.266 OA
ENDBRANCH  23  24
ENDBRANCH  22  23
ENDBRANCH  19  22
ENDBRANCH   1  19
TORSDOF 5
ENDMDL
MODEL 5
REMARK VINA RESULT: -6.882712633      2.589      4.203
REMARK  5 active torsions:
REMARK  status: ('A' for Active; 'I' for Inactive)
REMARK    1  A    between atoms: O1_2  and  C2_3 
REMARK    2  A    between atoms: C2_3  and  C3_4 
REMARK    3  A    between atoms: C3_4  and  C6_7 
REMARK    4  A    between atoms: C6_7  and  O2_8 
REMARK    5  A    between atoms: O2_8  and  C7_9 
ROOT
HETATM    1  C2  UNL     1      25.165   4.687  11.730  1.00  0.00     0.204 C 
HETATM    2  O4  UNL     1      25.008   5.313  10.517  1.00  0.00    -0.319 OA
HETATM    3  C9  UNL     1      25.980   5.651   9.700  1.00  0.00     0.298 C 
HETATM    4  O5  UNL     1      25.581   5.244   8.391  1.00  0.00    -0.323 OA
HETATM    5  C10 UNL     1      26.507   4.343   7.943  1.00  0.00     0.160 C 
HETATM    6  C11 UNL     1      25.903   3.230   7.134  1.00  0.00     0.078 C 
HETATM    7  C12 UNL     1      27.486   5.079   7.035  1.00  0.00     0.078 C 
HETATM    8  O6  UNL     1      27.216   3.883   9.052  1.00  0.00    -0.343 OA
HETATM    9  C13 UNL     1      27.324   5.053   9.800  1.00  0.00     0.212 C 
HETATM   10  C14 UNL     1      27.659   4.771  11.243  1.00  0.00     0.193 C 
HETATM   11  O7  UNL     1      28.633   3.741  11.204  1.00  0.00    -0.345 OA
HETATM   12  C15 UNL     1      28.021   2.590  11.631  1.00  0.00     0.158 C 
HETATM   13  C16 UNL     1      28.366   2.372  13.088  1.00  0.00     0.078 C 
HETATM   14  C17 UNL     1      28.541   1.434  10.832  1.00  0.00     0.078 C 
HETATM   15  O8  UNL     1      26.660   2.808  11.450  1.00  0.00    -0.343 OA
HETATM   16  C18 UNL     1      26.544   4.118  11.972  1.00  0.00     0.220 C 
ENDROOT
BRANCH   1  17
HETATM   17  O1  UNL     1      24.218   3.705  11.696  1.00  0.00    -0.357 OA
HETATM   18  C1  UNL     1      23.540   3.260  10.675  1.00  0.00     0.205 C 
ENDBRANCH   1  17
BRANCH   1  19
HETATM   19  C3  UNL     1      24.802   5.699  12.783  1.00  0.00     0.034 C 
HETATM   20  C4  UNL     1      25.676   5.737  13.995  1.00  0.00     0.023 C 
HETATM   21  C5  UNL     1      24.736   7.114  12.227  1.00  0.00     0.023 C 
BRANCH  19  22
HETATM   22  C6  UNL     1      23.376   5.440  13.312  1.00  0.00     0.193 C 
BRANCH  22  23
HETATM   23  O2  UNL     1      23.283   5.906  14.646  1.00  0.00    -0.321 OA
BRANCH  23  24
HETATM   24  C7  UNL     1      22.387   5.456  15.568  1.00  0.00     0.254 C 
HETATM   25  C8  UNL     1      22.367   6.084  16.908  1.00  0.00     0.126 C 
HETATM   26  O3  UNL     1      21.618   4.524  15.228  1.00  0.00    -0.266 OA
ENDBRANCH  23  24
ENDBRANCH  22  23
ENDBRANCH  19  22
ENDBRANCH   1  19
TORSDOF 5
ENDMDL
