MODEL 1
REMARK VINA RESULT: -6.220206133      0.000      0.000
REMARK  13 active torsions:
REMARK  status: ('A' for Active; 'I' for Inactive)
REMARK    1  A    between atoms: N1_1  and  C1_5 
REMARK    2  A    between atoms: C1_5  and  C2_6 
REMARK    3  A    between atoms: C2_6  and  C3_7 
REMARK    4  A    between atoms: C3_7  and  C4_8 
REMARK    5  A    between atoms: C4_8  and  N2_9 
REMARK    6  A    between atoms: N2_9  and  C5_11 
REMARK    7  A    between atoms: C6_12  and  O1_13 
REMARK    8  A    between atoms: C7_15  and  C8_16 
REMARK    9  A    between atoms: C8_16  and  O2_17 
REMARK   10  A    between atoms: C9_20  and  N3_21 
REMARK   11  A    between atoms: N3_21  and  C10_24 
REMARK   12  A    between atoms: C14_31  and  O4_32 
REMARK   13  A    between atoms: C15_34  and  O5_35 
ROOT
HETATM    1  C5  UNL     1      13.270   2.164  16.176  1.00  0.00     0.141 C 
HETATM    2  C6  UNL     1      14.618   2.757  15.897  1.00  0.00     0.174 C 
HETATM    3  C7  UNL     1      14.641   4.256  16.001  1.00  0.00     0.178 C 
HETATM    4  O3  UNL     1      13.465   4.791  16.483  1.00  0.00    -0.347 OA
HETATM    5  C9  UNL     1      12.349   4.462  15.777  1.00  0.00     0.353 C 
HETATM    6  C15 UNL     1      12.145   2.990  15.580  1.00  0.00     0.199 C 
ENDROOT
BRANCH   5   7
HETATM    7  N3  UNL     1      11.197   5.110  16.373  1.00  0.00    -0.039 N 
ATOM      8  H32 UNL     1      10.626   4.448  16.898  1.00  0.00     0.280 HD
ATOM      9  H31 UNL     1      11.469   5.726  17.139  1.00  0.00     0.280 HD
BRANCH   7  10
HETATM   10  C10 UNL     1      10.413   5.814  15.381  1.00  0.00     0.230 C 
HETATM   11  C11 UNL     1      10.876   7.245  15.140  1.00  0.00     0.075 C 
HETATM   12  C12 UNL     1      10.855   7.804  16.534  1.00  0.00     0.242 C 
HETATM   13  C14 UNL     1       9.423   7.499  14.729  1.00  0.00     0.158 C 
HETATM   14  N4  UNL     1       9.560   7.261  16.999  1.00  0.00    -0.066 N 
HETATM   15  C13 UNL     1       9.160   6.496  15.870  1.00  0.00     0.245 C 
ATOM     16  H42 UNL     1       9.591   6.753  17.883  1.00  0.00     0.277 HD
ATOM     17  H41 UNL     1       8.884   7.956  17.318  1.00  0.00     0.277 HD
BRANCH  13  18
HETATM   18  O4  UNL     1       9.142   6.991  13.478  1.00  0.00    -0.393 OA
ATOM     19  H4  UNL     1       9.737   7.324  12.816  1.00  0.00     0.210 HD
ENDBRANCH  13  18
ENDBRANCH   7  10
ENDBRANCH   5   7
BRANCH   6  20
HETATM   20  O5  UNL     1      11.989   2.653  14.238  1.00  0.00    -0.389 OA
ATOM     21  H5  UNL     1      11.979   3.446  13.715  1.00  0.00     0.210 HD
ENDBRANCH   6  20
BRANCH   3  22
HETATM   22  C8  UNL     1      15.055   4.895  14.678  1.00  0.00     0.198 C 
BRANCH  22  23
HETATM   23  O2  UNL     1      16.429   4.752  14.474  1.00  0.00    -0.398 OA
ATOM     24  H2  UNL     1      16.639   3.855  14.245  1.00  0.00     0.209 HD
ENDBRANCH  22  23
ENDBRANCH   3  22
BRANCH   1  25
HETATM   25  N2  UNL     1      13.072   0.825  15.754  1.00  0.00    -0.412 N 
ATOM     26  H2  UNL     1      13.058   0.564  14.767  1.00  0.00     0.153 HD
BRANCH  25  27
HETATM   27  C4  UNL     1      12.895  -0.141  16.799  1.00  0.00     0.114 C 
BRANCH  27  28
HETATM   28  C3  UNL     1      13.943  -1.208  16.844  1.00  0.00     0.021 C 
BRANCH  28  29
HETATM   29  C2  UNL     1      15.038  -0.912  17.845  1.00  0.00     0.029 C 
BRANCH  29  30
HETATM   30  C1  UNL     1      16.375  -1.444  17.318  1.00  0.00     0.229 C 
BRANCH  30  31
HETATM   31  N1  UNL     1      17.243  -0.347  16.909  1.00  0.00    -0.079 N 
ATOM     32  H13 UNL     1      16.901   0.108  16.063  1.00  0.00     0.274 HD
ATOM     33  H12 UNL     1      17.177   0.445  17.548  1.00  0.00     0.274 HD
ATOM     34  H11 UNL     1      18.205  -0.667  16.803  1.00  0.00     0.274 HD
ENDBRANCH  30  31
ENDBRANCH  29  30
ENDBRANCH  28  29
ENDBRANCH  27  28
ENDBRANCH  25  27
ENDBRANCH   1  25
BRANCH   2  35
HETATM   35  O1  UNL     1      15.581   2.217  16.759  1.00  0.00    -0.391 OA
ATOM     36  H1  UNL     1      16.453   2.482  16.493  1.00  0.00     0.210 HD
ENDBRANCH   2  35
TORSDOF 13
ENDMDL
MODEL 2
REMARK VINA RESULT: -6.044088944      1.430      1.763
REMARK  13 active torsions:
REMARK  status: ('A' for Active; 'I' for Inactive)
REMARK    1  A    between atoms: N1_1  and  C1_5 
REMARK    2  A    between atoms: C1_5  and  C2_6 
REMARK    3  A    between atoms: C2_6  and  C3_7 
REMARK    4  A    between atoms: C3_7  and  C4_8 
REMARK    5  A    between atoms: C4_8  and  N2_9 
REMARK    6  A    between atoms: N2_9  and  C5_11 
REMARK    7  A    between atoms: C6_12  and  O1_13 
REMARK    8  A    between atoms: C7_15  and  C8_16 
REMARK    9  A    between atoms: C8_16  and  O2_17 
REMARK   10  A    between atoms: C9_20  and  N3_21 
REMARK   11  A    between atoms: N3_21  and  C10_24 
REMARK   12  A    between atoms: C14_31  and  O4_32 
REMARK   13  A    between atoms: C15_34  and  O5_35 
ROOT
HETATM    1  C5  UNL     1      12.470   2.784  15.862  1.00  0.00     0.141 C 
HETATM    2  C6  UNL     1      13.381   3.236  14.761  1.00  0.00     0.174 C 
HETATM    3  C7  UNL     1      13.320   4.717  14.509  1.00  0.00     0.178 C 
HETATM    4  O3  UNL     1      12.560   5.400  15.435  1.00  0.00    -0.347 OA
HETATM    5  C9  UNL     1      11.275   4.968  15.560  1.00  0.00     0.353 C 
HETATM    6  C15 UNL     1      11.133   3.501  15.832  1.00  0.00     0.199 C 
ENDROOT
BRANCH   5   7
HETATM    7  N3  UNL     1      10.588   5.787  16.540  1.00  0.00    -0.039 N 
ATOM      8  H32 UNL     1      10.467   5.290  17.423  1.00  0.00     0.280 HD
ATOM      9  H31 UNL     1      11.178   6.551  16.869  1.00  0.00     0.280 HD
BRANCH   7  10
HETATM   10  C10 UNL     1       9.325   6.275  16.030  1.00  0.00     0.230 C 
HETATM   11  C11 UNL     1       9.454   7.066  14.735  1.00  0.00     0.075 C 
HETATM   12  C12 UNL     1      10.471   8.103  15.119  1.00  0.00     0.242 C 
HETATM   13  C14 UNL     1       8.173   7.766  15.196  1.00  0.00     0.158 C 
HETATM   14  N4  UNL     1       9.946   8.484  16.448  1.00  0.00    -0.066 N 
HETATM   15  C13 UNL     1       8.842   7.596  16.575  1.00  0.00     0.245 C 
ATOM     16  H42 UNL     1      10.622   8.452  17.211  1.00  0.00     0.277 HD
ATOM     17  H41 UNL     1       9.726   9.473  16.564  1.00  0.00     0.277 HD
BRANCH  13  18
HETATM   18  O4  UNL     1       7.059   6.969  15.028  1.00  0.00    -0.393 OA
ATOM     19  H4  UNL     1       6.319   7.458  14.687  1.00  0.00     0.210 HD
ENDBRANCH  13  18
ENDBRANCH   7  10
ENDBRANCH   5   7
BRANCH   6  20
HETATM   20  O5  UNL     1      10.294   2.872  14.914  1.00  0.00    -0.389 OA
ATOM     21  H5  UNL     1       9.661   3.500  14.587  1.00  0.00     0.210 HD
ENDBRANCH   6  20
BRANCH   3  22
HETATM   22  C8  UNL     1      12.876   5.016  13.079  1.00  0.00     0.198 C 
BRANCH  22  23
HETATM   23  O2  UNL     1      12.335   3.874  12.486  1.00  0.00    -0.398 OA
ATOM     24  H2  UNL     1      12.475   3.890  11.546  1.00  0.00     0.209 HD
ENDBRANCH  22  23
ENDBRANCH   3  22
BRANCH   1  25
HETATM   25  N2  UNL     1      12.196   1.394  15.921  1.00  0.00    -0.412 N 
ATOM     26  H2  UNL     1      11.765   0.893  15.143  1.00  0.00     0.153 HD
BRANCH  25  27
HETATM   27  C4  UNL     1      12.563   0.735  17.141  1.00  0.00     0.114 C 
BRANCH  27  28
HETATM   28  C3  UNL     1      13.499  -0.420  16.966  1.00  0.00     0.021 C 
BRANCH  28  29
HETATM   29  C2  UNL     1      14.945  -0.044  17.206  1.00  0.00     0.029 C 
BRANCH  29  30
HETATM   30  C1  UNL     1      15.754  -1.300  17.546  1.00  0.00     0.229 C 
BRANCH  30  31
HETATM   31  N1  UNL     1      17.121  -1.183  17.055  1.00  0.00    -0.079 N 
ATOM     32  H13 UNL     1      17.163  -1.251  16.038  1.00  0.00     0.274 HD
ATOM     33  H12 UNL     1      17.480  -0.233  17.160  1.00  0.00     0.274 HD
ATOM     34  H11 UNL     1      17.728  -1.867  17.505  1.00  0.00     0.274 HD
ENDBRANCH  30  31
ENDBRANCH  29  30
ENDBRANCH  28  29
ENDBRANCH  27  28
ENDBRANCH  25  27
ENDBRANCH   1  25
BRANCH   2  35
HETATM   35  O1  UNL     1      14.703   2.866  15.033  1.00  0.00    -0.391 OA
ATOM     36  H1  UNL     1      15.043   3.362  15.768  1.00  0.00     0.210 HD
ENDBRANCH   2  35
TORSDOF 13
ENDMDL
MODEL 3
REMARK VINA RESULT: -6.041983678      2.523      5.045
REMARK  13 active torsions:
REMARK  status: ('A' for Active; 'I' for Inactive)
REMARK    1  A    between atoms: N1_1  and  C1_5 
REMARK    2  A    between atoms: C1_5  and  C2_6 
REMARK    3  A    between atoms: C2_6  and  C3_7 
REMARK    4  A    between atoms: C3_7  and  C4_8 
REMARK    5  A    between atoms: C4_8  and  N2_9 
REMARK    6  A    between atoms: N2_9  and  C5_11 
REMARK    7  A    between atoms: C6_12  and  O1_13 
REMARK    8  A    between atoms: C7_15  and  C8_16 
REMARK    9  A    between atoms: C8_16  and  O2_17 
REMARK   10  A    between atoms: C9_20  and  N3_21 
REMARK   11  A    between atoms: N3_21  and  C10_24 
REMARK   12  A    between atoms: C14_31  and  O4_32 
REMARK   13  A    between atoms: C15_34  and  O5_35 
ROOT
HETATM    1  C5  UNL     1      12.411   3.522  15.236  1.00  0.00     0.141 C 
HETATM    2  C6  UNL     1      11.770   3.855  13.922  1.00  0.00     0.174 C 
HETATM    3  C7  UNL     1      12.490   4.936  13.166  1.00  0.00     0.178 C 
HETATM    4  O3  UNL     1      13.685   5.308  13.746  1.00  0.00    -0.347 OA
HETATM    5  C9  UNL     1      13.595   5.724  15.039  1.00  0.00     0.353 C 
HETATM    6  C15 UNL     1      12.912   4.758  15.960  1.00  0.00     0.199 C 
ENDROOT
BRANCH   5   7
HETATM    7  N3  UNL     1      14.912   6.108  15.510  1.00  0.00    -0.039 N 
ATOM      8  H32 UNL     1      15.144   7.063  15.235  1.00  0.00     0.280 HD
ATOM      9  H31 UNL     1      14.926   6.228  16.523  1.00  0.00     0.280 HD
BRANCH   7  10
HETATM   10  C10 UNL     1      15.925   5.171  15.074  1.00  0.00     0.230 C 
HETATM   11  C11 UNL     1      16.962   4.852  16.143  1.00  0.00     0.075 C 
HETATM   12  C12 UNL     1      17.436   6.228  16.519  1.00  0.00     0.242 C 
HETATM   13  C14 UNL     1      17.891   4.565  14.960  1.00  0.00     0.158 C 
HETATM   14  N4  UNL     1      17.572   6.819  15.171  1.00  0.00    -0.066 N 
HETATM   15  C13 UNL     1      17.115   5.751  14.352  1.00  0.00     0.245 C 
ATOM     16  H42 UNL     1      17.094   7.710  15.034  1.00  0.00     0.277 HD
ATOM     17  H41 UNL     1      18.499   7.179  14.943  1.00  0.00     0.277 HD
BRANCH  13  18
HETATM   18  O4  UNL     1      17.604   3.358  14.358  1.00  0.00    -0.393 OA
ATOM     19  H4  UNL     1      18.309   3.065  13.792  1.00  0.00     0.210 HD
ENDBRANCH  13  18
ENDBRANCH   7  10
ENDBRANCH   5   7
BRANCH   6  20
HETATM   20  O5  UNL     1      11.856   5.347  16.652  1.00  0.00    -0.389 OA
ATOM     21  H5  UNL     1      12.200   5.872  17.364  1.00  0.00     0.210 HD
ENDBRANCH   6  20
BRANCH   3  22
HETATM   22  C8  UNL     1      11.581   6.138  12.920  1.00  0.00     0.198 C 
BRANCH  22  23
HETATM   23  O2  UNL     1      11.083   6.116  11.616  1.00  0.00    -0.398 OA
ATOM     24  H2  UNL     1      10.269   6.602  11.563  1.00  0.00     0.209 HD
ENDBRANCH  22  23
ENDBRANCH   3  22
BRANCH   1  25
HETATM   25  N2  UNL     1      11.616   2.794  16.157  1.00  0.00    -0.412 N 
ATOM     26  H2  UNL     1      10.611   2.948  16.246  1.00  0.00     0.153 HD
BRANCH  25  27
HETATM   27  C4  UNL     1      12.312   1.828  16.957  1.00  0.00     0.114 C 
BRANCH  27  28
HETATM   28  C3  UNL     1      13.161   0.873  16.177  1.00  0.00     0.021 C 
BRANCH  28  29
HETATM   29  C2  UNL     1      14.474   0.563  16.863  1.00  0.00     0.029 C 
BRANCH  29  30
HETATM   30  C1  UNL     1      15.510   1.630  16.497  1.00  0.00     0.229 C 
BRANCH  30  31
HETATM   31  N1  UNL     1      16.799   1.019  16.199  1.00  0.00    -0.079 N 
ATOM     32  H13 UNL     1      16.828   0.041  16.487  1.00  0.00     0.274 HD
ATOM     33  H12 UNL     1      16.931   0.888  15.196  1.00  0.00     0.274 HD
ATOM     34  H11 UNL     1      17.560   1.558  16.612  1.00  0.00     0.274 HD
ENDBRANCH  30  31
ENDBRANCH  29  30
ENDBRANCH  28  29
ENDBRANCH  27  28
ENDBRANCH  25  27
ENDBRANCH   1  25
BRANCH   2  35
HETATM   35  O1  UNL     1      11.674   2.712  13.119  1.00  0.00    -0.391 OA
ATOM     36  H1  UNL     1      10.765   2.456  13.012  1.00  0.00     0.210 HD
ENDBRANCH   2  35
TORSDOF 13
ENDMDL
MODEL 4
REMARK VINA RESULT: -6.009796928      2.412      4.986
REMARK  13 active torsions:
REMARK  status: ('A' for Active; 'I' for Inactive)
REMARK    1  A    between atoms: N1_1  and  C1_5 
REMARK    2  A    between atoms: C1_5  and  C2_6 
REMARK    3  A    between atoms: C2_6  and  C3_7 
REMARK    4  A    between atoms: C3_7  and  C4_8 
REMARK    5  A    between atoms: C4_8  and  N2_9 
REMARK    6  A    between atoms: N2_9  and  C5_11 
REMARK    7  A    between atoms: C6_12  and  O1_13 
REMARK    8  A    between atoms: C7_15  and  C8_16 
REMARK    9  A    between atoms: C8_16  and  O2_17 
REMARK   10  A    between atoms: C9_20  and  N3_21 
REMARK   11  A    between atoms: N3_21  and  C10_24 
REMARK   12  A    between atoms: C14_31  and  O4_32 
REMARK   13  A    between atoms: C15_34  and  O5_35 
ROOT
HETATM    1  C5  UNL     1      12.661   3.220  14.973  1.00  0.00     0.141 C 
HETATM    2  C6  UNL     1      11.780   3.692  13.856  1.00  0.00     0.174 C 
HETATM    3  C7  UNL     1      12.234   4.989  13.248  1.00  0.00     0.178 C 
HETATM    4  O3  UNL     1      13.455   5.420  13.723  1.00  0.00    -0.347 OA
HETATM    5  C9  UNL     1      13.528   5.571  15.074  1.00  0.00     0.353 C 
HETATM    6  C15 UNL     1      13.123   4.360  15.861  1.00  0.00     0.199 C 
ENDROOT
BRANCH   5   7
HETATM    7  N3  UNL     1      14.850   6.052  15.431  1.00  0.00    -0.039 N 
ATOM      8  H32 UNL     1      15.027   6.979  15.044  1.00  0.00     0.280 HD
ATOM      9  H31 UNL     1      14.908   6.280  16.423  1.00  0.00     0.280 HD
BRANCH   7  10
HETATM   10  C10 UNL     1      15.878   5.111  15.043  1.00  0.00     0.230 C 
HETATM   11  C11 UNL     1      16.889   4.822  16.145  1.00  0.00     0.075 C 
HETATM   12  C12 UNL     1      17.346   6.208  16.501  1.00  0.00     0.242 C 
HETATM   13  C14 UNL     1      17.849   4.514  14.993  1.00  0.00     0.158 C 
HETATM   14  N4  UNL     1      17.514   6.770  15.144  1.00  0.00    -0.066 N 
HETATM   15  C13 UNL     1      17.083   5.681  14.338  1.00  0.00     0.245 C 
ATOM     16  H42 UNL     1      17.035   7.655  14.974  1.00  0.00     0.277 HD
ATOM     17  H41 UNL     1      18.444   7.129  14.932  1.00  0.00     0.277 HD
BRANCH  13  18
HETATM   18  O4  UNL     1      17.584   3.291  14.411  1.00  0.00    -0.393 OA
ATOM     19  H4  UNL     1      17.582   2.586  15.048  1.00  0.00     0.210 HD
ENDBRANCH  13  18
ENDBRANCH   7  10
ENDBRANCH   5   7
BRANCH   6  20
HETATM   20  O5  UNL     1      12.131   4.647  16.796  1.00  0.00    -0.389 OA
ATOM     21  H5  UNL     1      12.533   4.995  17.583  1.00  0.00     0.210 HD
ENDBRANCH   6  20
BRANCH   3  22
HETATM   22  C8  UNL     1      11.162   6.067  13.380  1.00  0.00     0.198 C 
BRANCH  22  23
HETATM   23  O2  UNL     1      10.732   6.488  12.121  1.00  0.00    -0.398 OA
ATOM     24  H2  UNL     1      11.392   7.033  11.709  1.00  0.00     0.209 HD
ENDBRANCH  22  23
ENDBRANCH   3  22
BRANCH   1  25
HETATM   25  N2  UNL     1      12.118   2.224  15.824  1.00  0.00    -0.412 N 
ATOM     26  H2  UNL     1      11.127   2.200  16.067  1.00  0.00     0.153 HD
BRANCH  25  27
HETATM   27  C4  UNL     1      13.048   1.252  16.321  1.00  0.00     0.114 C 
BRANCH  27  28
HETATM   28  C3  UNL     1      12.447   0.223  17.227  1.00  0.00     0.021 C 
BRANCH  28  29
HETATM   29  C2  UNL     1      13.483  -0.509  18.051  1.00  0.00     0.029 C 
BRANCH  29  30
HETATM   30  C1  UNL     1      14.823  -0.512  17.308  1.00  0.00     0.229 C 
BRANCH  30  31
HETATM   31  N1  UNL     1      15.634  -1.654  17.708  1.00  0.00    -0.079 N 
ATOM     32  H13 UNL     1      15.378  -2.496  17.193  1.00  0.00     0.274 HD
ATOM     33  H12 UNL     1      16.598  -1.564  17.386  1.00  0.00     0.274 HD
ATOM     34  H11 UNL     1      15.585  -1.798  18.716  1.00  0.00     0.274 HD
ENDBRANCH  30  31
ENDBRANCH  29  30
ENDBRANCH  28  29
ENDBRANCH  27  28
ENDBRANCH  25  27
ENDBRANCH   1  25
BRANCH   2  35
HETATM   35  O1  UNL     1      11.690   2.717  12.855  1.00  0.00    -0.391 OA
ATOM     36  H1  UNL     1      11.220   3.054  12.102  1.00  0.00     0.210 HD
ENDBRANCH   2  35
TORSDOF 13
ENDMDL
MODEL 5
REMARK VINA RESULT: -6.007593772      2.362      4.635
REMARK  13 active torsions:
REMARK  status: ('A' for Active; 'I' for Inactive)
REMARK    1  A    between atoms: N1_1  and  C1_5 
REMARK    2  A    between atoms: C1_5  and  C2_6 
REMARK    3  A    between atoms: C2_6  and  C3_7 
REMARK    4  A    between atoms: C3_7  and  C4_8 
REMARK    5  A    between atoms: C4_8  and  N2_9 
REMARK    6  A    between atoms: N2_9  and  C5_11 
REMARK    7  A    between atoms: C6_12  and  O1_13 
REMARK    8  A    between atoms: C7_15  and  C8_16 
REMARK    9  A    between atoms: C8_16  and  O2_17 
REMARK   10  A    between atoms: C9_20  and  N3_21 
REMARK   11  A    between atoms: N3_21  and  C10_24 
REMARK   12  A    between atoms: C14_31  and  O4_32 
REMARK   13  A    between atoms: C15_34  and  O5_35 
ROOT
HETATM    1  C5  UNL     1      12.685   2.617  15.135  1.00  0.00     0.141 C 
HETATM    2  C6  UNL     1      11.803   3.387  14.198  1.00  0.00     0.174 C 
HETATM    3  C7  UNL     1      12.357   4.736  13.834  1.00  0.00     0.178 C 
HETATM    4  O3  UNL     1      13.637   4.948  14.302  1.00  0.00    -0.347 OA
HETATM    5  C9  UNL     1      13.791   4.809  15.647  1.00  0.00     0.353 C 
HETATM    6  C15 UNL     1      13.304   3.503  16.200  1.00  0.00     0.199 C 
ENDROOT
BRANCH   5   7
HETATM    7  N3  UNL     1      15.170   5.085  16.002  1.00  0.00    -0.039 N 
ATOM      8  H32 UNL     1      15.234   5.591  16.886  1.00  0.00     0.280 HD
ATOM      9  H31 UNL     1      15.664   4.235  16.269  1.00  0.00     0.280 HD
BRANCH   7  10
HETATM   10  C10 UNL     1      15.859   5.787  14.940  1.00  0.00     0.230 C 
HETATM   11  C11 UNL     1      17.355   5.500  14.890  1.00  0.00     0.075 C 
HETATM   12  C12 UNL     1      17.769   5.832  16.296  1.00  0.00     0.242 C 
HETATM   13  C14 UNL     1      17.458   6.886  14.248  1.00  0.00     0.158 C 
HETATM   14  N4  UNL     1      17.022   7.094  16.483  1.00  0.00    -0.066 N 
HETATM   15  C13 UNL     1      16.324   7.188  15.248  1.00  0.00     0.245 C 
ATOM     16  H42 UNL     1      16.439   7.137  17.318  1.00  0.00     0.277 HD
ATOM     17  H41 UNL     1      17.590   7.906  16.727  1.00  0.00     0.277 HD
BRANCH  13  18
HETATM   18  O4  UNL     1      17.041   6.880  12.933  1.00  0.00    -0.393 OA
ATOM     19  H4  UNL     1      16.406   7.565  12.758  1.00  0.00     0.210 HD
ENDBRANCH  13  18
ENDBRANCH   7  10
ENDBRANCH   5   7
BRANCH   6  20
HETATM   20  O5  UNL     1      12.393   3.678  17.239  1.00  0.00    -0.389 OA
ATOM     21  H5  UNL     1      12.348   2.881  17.754  1.00  0.00     0.210 HD
ENDBRANCH   6  20
BRANCH   3  22
HETATM   22  C8  UNL     1      11.407   5.855  14.254  1.00  0.00     0.198 C 
BRANCH  22  23
HETATM   23  O2  UNL     1      10.486   5.388  15.194  1.00  0.00    -0.398 OA
ATOM     24  H2  UNL     1       9.755   5.990  15.271  1.00  0.00     0.209 HD
ENDBRANCH  22  23
ENDBRANCH   3  22
BRANCH   1  25
HETATM   25  N2  UNL     1      12.086   1.519  15.803  1.00  0.00    -0.412 N 
ATOM     26  H2  UNL     1      11.078   1.457  15.945  1.00  0.00     0.153 HD
BRANCH  25  27
HETATM   27  C4  UNL     1      12.986   0.503  16.266  1.00  0.00     0.114 C 
BRANCH  27  28
HETATM   28  C3  UNL     1      12.675  -0.027  17.631  1.00  0.00     0.021 C 
BRANCH  28  29
HETATM   29  C2  UNL     1      13.833  -0.785  18.241  1.00  0.00     0.029 C 
BRANCH  29  30
HETATM   30  C1  UNL     1      15.023  -0.772  17.276  1.00  0.00     0.229 C 
BRANCH  30  31
HETATM   31  N1  UNL     1      16.013  -1.770  17.662  1.00  0.00    -0.079 N 
ATOM     32  H13 UNL     1      16.484  -1.517  18.530  1.00  0.00     0.274 HD
ATOM     33  H12 UNL     1      15.574  -2.637  17.972  1.00  0.00     0.274 HD
ATOM     34  H11 UNL     1      16.677  -1.933  16.905  1.00  0.00     0.274 HD
ENDBRANCH  30  31
ENDBRANCH  29  30
ENDBRANCH  28  29
ENDBRANCH  27  28
ENDBRANCH  25  27
ENDBRANCH   1  25
BRANCH   2  35
HETATM   35  O1  UNL     1      11.566   2.652  13.030  1.00  0.00    -0.391 OA
ATOM     36  H1  UNL     1      10.855   3.038  12.532  1.00  0.00     0.210 HD
ENDBRANCH   2  35
TORSDOF 13
ENDMDL
