MODEL 1
REMARK VINA RESULT: -6.789276458      0.000      0.000
REMARK  3 active torsions:
REMARK  status: ('A' for Active; 'I' for Inactive)
REMARK    1  A    between atoms: C3_5  and  C4_6 
REMARK    2  A    between atoms: C4_6  and  N2_7 
REMARK    3  A    between atoms: N2_7  and  N3_9 
ROOT
HETATM    1  C1  UNL     1      13.325  35.865  38.343  1.00  0.00     0.047 C 
HETATM    2  C2  UNL     1      13.163  35.633  39.653  1.00  0.00     0.080 A 
HETATM    3  N1  UNL     1      13.849  36.329  40.575  1.00  0.00    -0.339 N 
ATOM      4  H1  UNL     1      14.501  37.044  40.251  1.00  0.00     0.167 HD
HETATM    5  C3  UNL     1      13.727  36.141  41.885  1.00  0.00     0.125 A 
HETATM    6  N4  UNL     1      12.872  35.203  42.313  1.00  0.00    -0.305 N 
ATOM      7  H4  UNL     1      12.763  35.041  43.315  1.00  0.00     0.170 HD
HETATM    8  C5  UNL     1      12.151  34.468  41.437  1.00  0.00     0.299 A 
HETATM    9  O1  UNL     1      11.353  33.594  41.809  1.00  0.00    -0.264 OA
HETATM   10  C6  UNL     1      12.282  34.670  40.061  1.00  0.00     0.265 A 
HETATM   11  O2  UNL     1      11.598  33.970  39.265  1.00  0.00    -0.280 OA
ENDROOT
BRANCH   5  12
HETATM   12  C4  UNL     1      14.424  36.850  42.764  1.00  0.00     0.155 C 
BRANCH  12  13
HETATM   13  N2  UNL     1      14.220  36.743  44.147  1.00  0.00    -0.315 N 
ATOM     14  H2  UNL     1      14.404  35.860  44.622  1.00  0.00     0.185 HD
BRANCH  13  15
HETATM   15  N3  UNL     1      13.767  37.836  44.869  1.00  0.00    -0.345 N 
ATOM     16  H32 UNL     1      14.122  38.763  44.636  1.00  0.00     0.176 HD
ATOM     17  H31 UNL     1      13.088  37.707  45.620  1.00  0.00     0.176 HD
ENDBRANCH  13  15
ENDBRANCH  12  13
ENDBRANCH   5  12
TORSDOF 3
ENDMDL
MODEL 2
REMARK VINA RESULT: -6.622206448      1.113      1.192
REMARK  3 active torsions:
REMARK  status: ('A' for Active; 'I' for Inactive)
REMARK    1  A    between atoms: C3_5  and  C4_6 
REMARK    2  A    between atoms: C4_6  and  N2_7 
REMARK    3  A    between atoms: N2_7  and  N3_9 
ROOT
HETATM    1  C1  UNL     1      13.472  35.646  38.410  1.00  0.00     0.047 C 
HETATM    2  C2  UNL     1      13.244  35.525  39.726  1.00  0.00     0.080 A 
HETATM    3  N1  UNL     1      13.892  36.292  40.619  1.00  0.00    -0.339 N 
ATOM      4  H1  UNL     1      14.567  36.973  40.268  1.00  0.00     0.167 HD
HETATM    5  C3  UNL     1      13.706  36.215  41.933  1.00  0.00     0.125 A 
HETATM    6  N4  UNL     1      12.821  35.322  42.395  1.00  0.00    -0.305 N 
ATOM      7  H4  UNL     1      12.662  35.246  43.400  1.00  0.00     0.170 HD
HETATM    8  C5  UNL     1      12.135  34.521  41.549  1.00  0.00     0.299 A 
HETATM    9  O1  UNL     1      11.311  33.687  41.953  1.00  0.00    -0.264 OA
HETATM   10  C6  UNL     1      12.334  34.606  40.169  1.00  0.00     0.265 A 
HETATM   11  O2  UNL     1      11.681  33.846  39.402  1.00  0.00    -0.280 OA
ENDROOT
BRANCH   5  12
HETATM   12  C4  UNL     1      14.367  36.991  42.782  1.00  0.00     0.155 C 
BRANCH  12  13
HETATM   13  N2  UNL     1      15.741  37.240  42.657  1.00  0.00    -0.315 N 
ATOM     14  H2  UNL     1      16.403  36.464  42.677  1.00  0.00     0.185 HD
BRANCH  13  15
HETATM   15  N3  UNL     1      16.202  38.538  42.509  1.00  0.00    -0.345 N 
ATOM     16  H32 UNL     1      15.705  39.295  42.977  1.00  0.00     0.176 HD
ATOM     17  H31 UNL     1      17.027  38.726  41.939  1.00  0.00     0.176 HD
ENDBRANCH  13  15
ENDBRANCH  12  13
ENDBRANCH   5  12
TORSDOF 3
ENDMDL
MODEL 3
REMARK VINA RESULT: -6.576458841      0.899      2.309
REMARK  3 active torsions:
REMARK  status: ('A' for Active; 'I' for Inactive)
REMARK    1  A    between atoms: C3_5  and  C4_6 
REMARK    2  A    between atoms: C4_6  and  N2_7 
REMARK    3  A    between atoms: N2_7  and  N3_9 
ROOT
HETATM    1  C1  UNL     1      11.942  33.100  42.313  1.00  0.00     0.047 C 
HETATM    2  C2  UNL     1      12.446  34.235  41.808  1.00  0.00     0.080 A 
HETATM    3  N1  UNL     1      13.122  35.101  42.582  1.00  0.00    -0.339 N 
ATOM      4  H1  UNL     1      13.243  34.872  43.568  1.00  0.00     0.167 HD
HETATM    5  C3  UNL     1      13.643  36.240  42.135  1.00  0.00     0.125 A 
HETATM    6  N4  UNL     1      13.485  36.543  40.839  1.00  0.00    -0.305 N 
ATOM      7  H4  UNL     1      13.876  37.412  40.475  1.00  0.00     0.170 HD
HETATM    8  C5  UNL     1      12.815  35.714  40.008  1.00  0.00     0.299 A 
HETATM    9  O1  UNL     1      12.656  35.972  38.806  1.00  0.00    -0.264 OA
HETATM   10  C6  UNL     1      12.270  34.517  40.482  1.00  0.00     0.265 A 
HETATM   11  O2  UNL     1      11.650  33.762  39.685  1.00  0.00    -0.280 OA
ENDROOT
BRANCH   5  12
HETATM   12  C4  UNL     1      14.304  37.069  42.932  1.00  0.00     0.155 C 
BRANCH  12  13
HETATM   13  N2  UNL     1      14.263  36.960  44.329  1.00  0.00    -0.315 N 
ATOM     14  H2  UNL     1      14.684  36.153  44.789  1.00  0.00     0.185 HD
BRANCH  13  15
HETATM   15  N3  UNL     1      13.652  37.947  45.086  1.00  0.00    -0.345 N 
ATOM     16  H32 UNL     1      13.484  38.860  44.665  1.00  0.00     0.176 HD
ATOM     17  H31 UNL     1      13.376  37.755  46.050  1.00  0.00     0.176 HD
ENDBRANCH  13  15
ENDBRANCH  12  13
ENDBRANCH   5  12
TORSDOF 3
ENDMDL
MODEL 4
REMARK VINA RESULT: -6.573735314      1.664      2.753
REMARK  3 active torsions:
REMARK  status: ('A' for Active; 'I' for Inactive)
REMARK    1  A    between atoms: C3_5  and  C4_6 
REMARK    2  A    between atoms: C4_6  and  N2_7 
REMARK    3  A    between atoms: N2_7  and  N3_9 
ROOT
HETATM    1  C1  UNL     1      12.249  33.498  42.185  1.00  0.00     0.047 C 
HETATM    2  C2  UNL     1      12.977  34.271  41.367  1.00  0.00     0.080 A 
HETATM    3  N1  UNL     1      14.068  34.920  41.808  1.00  0.00    -0.339 N 
ATOM      4  H1  UNL     1      14.329  34.809  42.788  1.00  0.00     0.167 HD
HETATM    5  C3  UNL     1      14.825  35.698  41.041  1.00  0.00     0.125 A 
HETATM    6  N4  UNL     1      14.483  35.845  39.754  1.00  0.00    -0.305 N 
ATOM      7  H4  UNL     1      15.050  36.437  39.147  1.00  0.00     0.170 HD
HETATM    8  C5  UNL     1      13.397  35.219  39.248  1.00  0.00     0.299 A 
HETATM    9  O1  UNL     1      13.060  35.339  38.061  1.00  0.00    -0.264 OA
HETATM   10  C6  UNL     1      12.604  34.401  40.058  1.00  0.00     0.265 A 
HETATM   11  O2  UNL     1      11.596  33.829  39.560  1.00  0.00    -0.280 OA
ENDROOT
BRANCH   5  12
HETATM   12  C4  UNL     1      15.895  36.322  41.516  1.00  0.00     0.155 C 
BRANCH  12  13
HETATM   13  N2  UNL     1      15.828  37.213  42.596  1.00  0.00    -0.315 N 
ATOM     14  H2  UNL     1      15.351  36.937  43.454  1.00  0.00     0.185 HD
BRANCH  13  15
HETATM   15  N3  UNL     1      16.406  38.468  42.499  1.00  0.00    -0.345 N 
ATOM     16  H32 UNL     1      17.263  38.577  41.957  1.00  0.00     0.176 HD
ATOM     17  H31 UNL     1      15.977  39.267  42.966  1.00  0.00     0.176 HD
ENDBRANCH  13  15
ENDBRANCH  12  13
ENDBRANCH   5  12
TORSDOF 3
ENDMDL
MODEL 5
REMARK VINA RESULT: -6.568667487      2.178      3.545
REMARK  3 active torsions:
REMARK  status: ('A' for Active; 'I' for Inactive)
REMARK    1  A    between atoms: C3_5  and  C4_6 
REMARK    2  A    between atoms: C4_6  and  N2_7 
REMARK    3  A    between atoms: N2_7  and  N3_9 
ROOT
HETATM    1  C1  UNL     1      11.987  33.640  41.763  1.00  0.00     0.047 C 
HETATM    2  C2  UNL     1      12.804  34.328  40.953  1.00  0.00     0.080 A 
HETATM    3  N1  UNL     1      13.996  34.775  41.382  1.00  0.00    -0.339 N 
ATOM      4  H1  UNL     1      14.265  34.577  42.346  1.00  0.00     0.167 HD
HETATM    5  C3  UNL     1      14.845  35.461  40.623  1.00  0.00     0.125 A 
HETATM    6  N4  UNL     1      14.493  35.722  39.357  1.00  0.00    -0.305 N 
ATOM      7  H4  UNL     1      15.129  36.247  38.756  1.00  0.00     0.170 HD
HETATM    8  C5  UNL     1      13.308  35.300  38.864  1.00  0.00     0.299 A 
HETATM    9  O1  UNL     1      12.960  35.530  37.696  1.00  0.00    -0.264 OA
HETATM   10  C6  UNL     1      12.419  34.579  39.665  1.00  0.00     0.265 A 
HETATM   11  O2  UNL     1      11.319  34.197  39.180  1.00  0.00    -0.280 OA
ENDROOT
BRANCH   5  12
HETATM   12  C4  UNL     1      16.014  35.886  41.085  1.00  0.00     0.155 C 
BRANCH  12  13
HETATM   13  N2  UNL     1      17.186  35.125  40.976  1.00  0.00    -0.315 N 
ATOM     14  H2  UNL     1      17.614  34.726  41.811  1.00  0.00     0.185 HD
BRANCH  13  15
HETATM   15  N3  UNL     1      17.766  34.915  39.735  1.00  0.00    -0.345 N 
ATOM     16  H32 UNL     1      18.642  35.387  39.513  1.00  0.00     0.176 HD
ATOM     17  H31 UNL     1      17.318  34.295  39.059  1.00  0.00     0.176 HD
ENDBRANCH  13  15
ENDBRANCH  12  13
ENDBRANCH   5  12
TORSDOF 3
ENDMDL
