MODEL 1
REMARK VINA RESULT: -8.503498844      0.000      0.000
REMARK  12 active torsions:
REMARK  status: ('A' for Active; 'I' for Inactive)
REMARK    1  A    between atoms: O1_2  and  C2_3 
REMARK    2  A    between atoms: C4_5  and  C5_6 
REMARK    3  A    between atoms: C5_6  and  N2_12 
REMARK       I    between atoms: N1_7  and  C6_9 
REMARK    4  A    between atoms: N2_12  and  N3_14 
REMARK       I    between atoms: N3_14  and  C8_16 
REMARK    5  A    between atoms: C8_16  and  C9_18 
REMARK    6  A    between atoms: C9_18  and  N4_19 
REMARK    7  A    between atoms: C9_18  and  C20_35 
REMARK       I    between atoms: N4_19  and  C10_21 
REMARK    8  A    between atoms: C10_21  and  C11_23 
REMARK    9  A    between atoms: C13_25  and  O5_26 
REMARK   10  A    between atoms: C15_28  and  O6_29 
REMARK   11  A    between atoms: C17_31  and  O7_32 
REMARK   12  A    between atoms: C26_41  and  O8_42 
ROOT
HETATM    1  N3  UNL     1      -7.789  17.917  24.287  1.00  0.00    -0.267 N 
ATOM      2  H3  UNL     1      -6.901  18.110  23.824  1.00  0.00     0.190 HD
HETATM    3  C8  UNL     1      -8.837  17.337  23.531  1.00  0.00     0.259 C 
HETATM    4  O3  UNL     1      -9.946  17.071  24.029  1.00  0.00    -0.269 OA
ENDROOT
BRANCH   3   5
HETATM    5  C9  UNL     1      -8.610  17.034  22.099  1.00  0.00     0.182 C 
BRANCH   5   6
HETATM    6  N4  UNL     1      -7.213  16.899  21.793  1.00  0.00    -0.343 N 
HETATM    7  C10 UNL     1      -6.674  17.496  20.630  1.00  0.00     0.252 C 
HETATM    8  O4  UNL     1      -7.440  18.136  19.869  1.00  0.00    -0.268 OA
ATOM      9  H4  UNL     1      -6.606  16.371  22.419  1.00  0.00     0.163 HD
BRANCH   7  10
HETATM   10  C11 UNL     1      -5.265  17.407  20.260  1.00  0.00     0.037 A 
HETATM   11  C12 UNL     1      -4.779  16.365  19.485  1.00  0.00     0.057 A 
HETATM   12  C13 UNL     1      -3.455  16.262  19.114  1.00  0.00     0.105 A 
HETATM   13  C15 UNL     1      -2.587  17.245  19.539  1.00  0.00     0.135 A 
HETATM   14  C17 UNL     1      -3.043  18.289  20.309  1.00  0.00     0.105 A 
HETATM   15  C19 UNL     1      -4.375  18.384  20.675  1.00  0.00     0.057 A 
BRANCH  12  16
HETATM   16  O5  UNL     1      -2.983  15.212  18.340  1.00  0.00    -0.353 OA
HETATM   17  C14 UNL     1      -3.182  15.105  16.963  1.00  0.00     0.210 C 
ENDBRANCH  12  16
BRANCH  13  18
HETATM   18  O6  UNL     1      -1.221  17.201  19.197  1.00  0.00    -0.351 OA
HETATM   19  C16 UNL     1      -0.334  16.438  20.017  1.00  0.00     0.210 C 
ENDBRANCH  13  18
BRANCH  14  20
HETATM   20  O7  UNL     1      -2.137  19.256  20.712  1.00  0.00    -0.353 OA
HETATM   21  C18 UNL     1      -1.633  19.369  22.026  1.00  0.00     0.210 C 
ENDBRANCH  14  20
ENDBRANCH   7  10
ENDBRANCH   5   6
BRANCH   5  22
HETATM   22  C20 UNL     1      -9.376  15.771  21.741  1.00  0.00     0.009 C 
HETATM   23  C21 UNL     1     -10.274  15.983  20.548  1.00  0.00     0.012 C 
HETATM   24  C22 UNL     1      -8.444  14.600  21.524  1.00  0.00     0.012 C 
ENDBRANCH   5  22
ENDBRANCH   3   5
BRANCH   1  25
HETATM   25  N2  UNL     1      -7.922  18.238  25.640  1.00  0.00    -0.282 N 
ATOM     26  H2  UNL     1      -8.402  19.108  25.873  1.00  0.00     0.188 HD
BRANCH  25  27
HETATM   27  C5  UNL     1      -7.443  17.452  26.710  1.00  0.00     0.133 C 
HETATM   28  N1  UNL     1      -6.186  17.525  27.029  1.00  0.00    -0.312 N 
HETATM   29  C6  UNL     1      -5.307  18.352  26.331  1.00  0.00     0.219 C 
ATOM     30  H1  UNL     1      -5.834  16.966  27.806  1.00  0.00     0.170 HD
HETATM   31  C7  UNL     1      -4.228  17.735  25.485  1.00  0.00     0.117 C 
HETATM   32  O2  UNL     1      -5.343  19.622  26.353  1.00  0.00    -0.274 OA
BRANCH  27  33
HETATM   33  C4  UNL     1      -8.298  16.557  27.496  1.00  0.00     0.013 A 
HETATM   34  C3  UNL     1      -8.976  15.478  26.975  1.00  0.00     0.055 A 
HETATM   35  C2  UNL     1      -9.780  14.670  27.757  1.00  0.00     0.102 A 
HETATM   36  C26 UNL     1      -9.937  14.922  29.108  1.00  0.00     0.107 A 
HETATM   37  C24 UNL     1      -9.259  16.001  29.635  1.00  0.00    -0.025 A 
HETATM   38  C23 UNL     1      -8.458  16.801  28.849  1.00  0.00     0.025 A 
HETATM   39  C25 UNL     1      -9.424  16.281  31.085  1.00  0.00     0.051 C 
BRANCH  35  40
HETATM   40  O1  UNL     1     -10.427  13.613  27.185  1.00  0.00    -0.353 OA
HETATM   41  C1  UNL     1     -11.363  13.712  26.143  1.00  0.00     0.210 C 
ENDBRANCH  35  40
BRANCH  36  42
HETATM   42  O8  UNL     1     -10.747  14.117  29.914  1.00  0.00    -0.353 OA
HETATM   43  C27 UNL     1     -12.157  14.332  29.932  1.00  0.00     0.210 C 
ENDBRANCH  36  42
ENDBRANCH  27  33
ENDBRANCH  25  27
ENDBRANCH   1  25
TORSDOF 12
ENDMDL
MODEL 2
REMARK VINA RESULT: -8.493083906      0.395      2.062
REMARK  12 active torsions:
REMARK  status: ('A' for Active; 'I' for Inactive)
REMARK    1  A    between atoms: O1_2  and  C2_3 
REMARK    2  A    between atoms: C4_5  and  C5_6 
REMARK    3  A    between atoms: C5_6  and  N2_12 
REMARK       I    between atoms: N1_7  and  C6_9 
REMARK    4  A    between atoms: N2_12  and  N3_14 
REMARK       I    between atoms: N3_14  and  C8_16 
REMARK    5  A    between atoms: C8_16  and  C9_18 
REMARK    6  A    between atoms: C9_18  and  N4_19 
REMARK    7  A    between atoms: C9_18  and  C20_35 
REMARK       I    between atoms: N4_19  and  C10_21 
REMARK    8  A    between atoms: C10_21  and  C11_23 
REMARK    9  A    between atoms: C13_25  and  O5_26 
REMARK   10  A    between atoms: C15_28  and  O6_29 
REMARK   11  A    between atoms: C17_31  and  O7_32 
REMARK   12  A    between atoms: C26_41  and  O8_42 
ROOT
HETATM    1  N3  UNL     1      -7.800  17.929  24.288  1.00  0.00    -0.267 N 
ATOM      2  H3  UNL     1      -6.907  18.125  23.835  1.00  0.00     0.190 HD
HETATM    3  C8  UNL     1      -8.838  17.347  23.519  1.00  0.00     0.259 C 
HETATM    4  O3  UNL     1      -9.952  17.078  24.003  1.00  0.00    -0.269 OA
ENDROOT
BRANCH   3   5
HETATM    5  C9  UNL     1      -8.593  17.047  22.089  1.00  0.00     0.182 C 
BRANCH   5   6
HETATM    6  N4  UNL     1      -7.192  16.925  21.798  1.00  0.00    -0.343 N 
HETATM    7  C10 UNL     1      -6.643  17.537  20.647  1.00  0.00     0.252 C 
HETATM    8  O4  UNL     1      -7.405  18.181  19.884  1.00  0.00    -0.268 OA
ATOM      9  H4  UNL     1      -6.588  16.394  22.425  1.00  0.00     0.163 HD
BRANCH   7  10
HETATM   10  C11 UNL     1      -5.229  17.462  20.292  1.00  0.00     0.037 A 
HETATM   11  C12 UNL     1      -4.327  18.439  20.682  1.00  0.00     0.057 A 
HETATM   12  C13 UNL     1      -2.986  18.388  20.367  1.00  0.00     0.105 A 
HETATM   13  C15 UNL     1      -2.535  17.312  19.633  1.00  0.00     0.135 A 
HETATM   14  C17 UNL     1      -3.410  16.329  19.233  1.00  0.00     0.105 A 
HETATM   15  C19 UNL     1      -4.755  16.390  19.554  1.00  0.00     0.057 A 
BRANCH  12  16
HETATM   16  O5  UNL     1      -2.095  19.374  20.763  1.00  0.00    -0.353 OA
HETATM   17  C14 UNL     1      -1.512  19.440  22.029  1.00  0.00     0.210 C 
ENDBRANCH  12  16
BRANCH  13  18
HETATM   18  O6  UNL     1      -1.177  17.197  19.276  1.00  0.00    -0.351 OA
HETATM   19  C16 UNL     1      -0.722  17.858  18.094  1.00  0.00     0.210 C 
ENDBRANCH  13  18
BRANCH  14  20
HETATM   20  O7  UNL     1      -2.914  15.265  18.498  1.00  0.00    -0.353 OA
HETATM   21  C18 UNL     1      -3.109  15.104  17.109  1.00  0.00     0.210 C 
ENDBRANCH  14  20
ENDBRANCH   7  10
ENDBRANCH   5   6
BRANCH   5  22
HETATM   22  C20 UNL     1      -9.345  15.778  21.722  1.00  0.00     0.009 C 
HETATM   23  C21 UNL     1     -10.243  15.987  20.530  1.00  0.00     0.012 C 
HETATM   24  C22 UNL     1      -8.399  14.619  21.498  1.00  0.00     0.012 C 
ENDBRANCH   5  22
ENDBRANCH   3   5
BRANCH   1  25
HETATM   25  N2  UNL     1      -7.950  18.248  25.639  1.00  0.00    -0.282 N 
ATOM     26  H2  UNL     1      -8.442  19.112  25.868  1.00  0.00     0.188 HD
BRANCH  25  27
HETATM   27  C5  UNL     1      -7.473  17.466  26.714  1.00  0.00     0.133 C 
HETATM   28  N1  UNL     1      -6.218  17.549  27.042  1.00  0.00    -0.312 N 
HETATM   29  C6  UNL     1      -5.341  18.382  26.349  1.00  0.00     0.219 C 
ATOM     30  H1  UNL     1      -5.868  16.994  27.822  1.00  0.00     0.170 HD
HETATM   31  C7  UNL     1      -4.252  17.773  25.511  1.00  0.00     0.117 C 
HETATM   32  O2  UNL     1      -5.386  19.652  26.369  1.00  0.00    -0.274 OA
BRANCH  27  33
HETATM   33  C4  UNL     1      -8.326  16.566  27.494  1.00  0.00     0.013 A 
HETATM   34  C3  UNL     1      -9.008  15.492  26.967  1.00  0.00     0.055 A 
HETATM   35  C2  UNL     1      -9.811  14.678  27.744  1.00  0.00     0.102 A 
HETATM   36  C26 UNL     1      -9.961  14.918  29.098  1.00  0.00     0.107 A 
HETATM   37  C24 UNL     1      -9.280  15.991  29.632  1.00  0.00    -0.025 A 
HETATM   38  C23 UNL     1      -8.480  16.797  28.850  1.00  0.00     0.025 A 
HETATM   39  C25 UNL     1      -9.439  16.258  31.085  1.00  0.00     0.051 C 
BRANCH  35  40
HETATM   40  O1  UNL     1     -10.461  13.628  27.164  1.00  0.00    -0.353 OA
HETATM   41  C1  UNL     1     -11.396  13.737  26.122  1.00  0.00     0.210 C 
ENDBRANCH  35  40
BRANCH  36  42
HETATM   42  O8  UNL     1     -10.770  14.107  29.899  1.00  0.00    -0.353 OA
HETATM   43  C27 UNL     1     -12.178  14.331  29.932  1.00  0.00     0.210 C 
ENDBRANCH  36  42
ENDBRANCH  27  33
ENDBRANCH  25  27
ENDBRANCH   1  25
TORSDOF 12
ENDMDL
MODEL 3
REMARK VINA RESULT: -8.347432127      1.575      2.485
REMARK  12 active torsions:
REMARK  status: ('A' for Active; 'I' for Inactive)
REMARK    1  A    between atoms: O1_2  and  C2_3 
REMARK    2  A    between atoms: C4_5  and  C5_6 
REMARK    3  A    between atoms: C5_6  and  N2_12 
REMARK       I    between atoms: N1_7  and  C6_9 
REMARK    4  A    between atoms: N2_12  and  N3_14 
REMARK       I    between atoms: N3_14  and  C8_16 
REMARK    5  A    between atoms: C8_16  and  C9_18 
REMARK    6  A    between atoms: C9_18  and  N4_19 
REMARK    7  A    between atoms: C9_18  and  C20_35 
REMARK       I    between atoms: N4_19  and  C10_21 
REMARK    8  A    between atoms: C10_21  and  C11_23 
REMARK    9  A    between atoms: C13_25  and  O5_26 
REMARK   10  A    between atoms: C15_28  and  O6_29 
REMARK   11  A    between atoms: C17_31  and  O7_32 
REMARK   12  A    between atoms: C26_41  and  O8_42 
ROOT
HETATM    1  N3  UNL     1      -9.135  17.897  24.431  1.00  0.00    -0.267 N 
ATOM      2  H3  UNL     1      -8.396  18.554  24.179  1.00  0.00     0.190 HD
HETATM    3  C8  UNL     1      -9.526  16.920  23.483  1.00  0.00     0.259 C 
HETATM    4  O3  UNL     1     -10.418  16.085  23.721  1.00  0.00    -0.269 OA
ENDROOT
BRANCH   3   5
HETATM    5  C9  UNL     1      -8.856  16.887  22.164  1.00  0.00     0.182 C 
BRANCH   5   6
HETATM    6  N4  UNL     1      -7.448  17.151  22.270  1.00  0.00    -0.343 N 
HETATM    7  C10 UNL     1      -6.812  18.027  21.359  1.00  0.00     0.252 C 
HETATM    8  O4  UNL     1      -7.500  18.562  20.456  1.00  0.00    -0.268 OA
ATOM      9  H4  UNL     1      -6.902  16.704  23.006  1.00  0.00     0.163 HD
BRANCH   7  10
HETATM   10  C11 UNL     1      -5.389  18.348  21.411  1.00  0.00     0.037 A 
HETATM   11  C12 UNL     1      -4.449  17.602  20.718  1.00  0.00     0.057 A 
HETATM   12  C13 UNL     1      -3.101  17.888  20.743  1.00  0.00     0.105 A 
HETATM   13  C15 UNL     1      -2.682  18.966  21.493  1.00  0.00     0.135 A 
HETATM   14  C17 UNL     1      -3.595  19.722  22.191  1.00  0.00     0.105 A 
HETATM   15  C19 UNL     1      -4.947  19.427  22.159  1.00  0.00     0.057 A 
BRANCH  12  16
HETATM   16  O5  UNL     1      -2.171  17.131  20.045  1.00  0.00    -0.353 OA
HETATM   17  C14 UNL     1      -1.734  15.867  20.442  1.00  0.00     0.210 C 
ENDBRANCH  12  16
BRANCH  13  18
HETATM   18  O6  UNL     1      -1.319  19.314  21.564  1.00  0.00    -0.351 OA
HETATM   19  C16 UNL     1      -0.506  18.696  22.562  1.00  0.00     0.210 C 
ENDBRANCH  13  18
BRANCH  14  20
HETATM   20  O7  UNL     1      -3.132  20.797  22.931  1.00  0.00    -0.353 OA
HETATM   21  C18 UNL     1      -3.969  21.738  23.569  1.00  0.00     0.210 C 
ENDBRANCH  14  20
ENDBRANCH   7  10
ENDBRANCH   5   6
BRANCH   5  22
HETATM   22  C20 UNL     1      -9.116  15.536  21.519  1.00  0.00     0.009 C 
HETATM   23  C21 UNL     1      -9.519  15.676  20.073  1.00  0.00     0.012 C 
HETATM   24  C22 UNL     1      -7.927  14.612  21.668  1.00  0.00     0.012 C 
ENDBRANCH   5  22
ENDBRANCH   3   5
BRANCH   1  25
HETATM   25  N2  UNL     1      -9.719  17.999  25.696  1.00  0.00    -0.282 N 
ATOM     26  H2  UNL     1     -10.564  18.565  25.779  1.00  0.00     0.188 HD
BRANCH  25  27
HETATM   27  C5  UNL     1      -9.231  17.380  26.867  1.00  0.00     0.133 C 
HETATM   28  N1  UNL     1      -8.028  17.661  27.270  1.00  0.00    -0.312 N 
HETATM   29  C6  UNL     1      -7.215  18.547  26.566  1.00  0.00     0.219 C 
ATOM     30  H1  UNL     1      -7.672  17.223  28.119  1.00  0.00     0.170 HD
HETATM   31  C7  UNL     1      -5.992  18.027  25.863  1.00  0.00     0.117 C 
HETATM   32  O2  UNL     1      -7.427  19.795  26.467  1.00  0.00    -0.274 OA
BRANCH  27  33
HETATM   33  C4  UNL     1     -10.019  16.438  27.666  1.00  0.00     0.013 A 
HETATM   34  C3  UNL     1      -9.542  15.771  28.772  1.00  0.00     0.055 A 
HETATM   35  C2  UNL     1     -10.323  14.882  29.487  1.00  0.00     0.102 A 
HETATM   36  C26 UNL     1     -11.629  14.625  29.110  1.00  0.00     0.107 A 
HETATM   37  C24 UNL     1     -12.112  15.291  28.003  1.00  0.00    -0.025 A 
HETATM   38  C23 UNL     1     -11.327  16.177  27.297  1.00  0.00     0.025 A 
HETATM   39  C25 UNL     1     -13.513  15.019  27.589  1.00  0.00     0.051 C 
BRANCH  35  40
HETATM   40  O1  UNL     1      -9.794  14.251  30.576  1.00  0.00    -0.353 OA
HETATM   41  C1  UNL     1      -9.463  14.879  31.787  1.00  0.00     0.210 C 
ENDBRANCH  35  40
BRANCH  36  42
HETATM   42  O8  UNL     1     -12.432  13.728  29.819  1.00  0.00    -0.353 OA
HETATM   43  C27 UNL     1     -13.106  14.168  30.997  1.00  0.00     0.210 C 
ENDBRANCH  36  42
ENDBRANCH  27  33
ENDBRANCH  25  27
ENDBRANCH   1  25
TORSDOF 12
ENDMDL
MODEL 4
REMARK VINA RESULT: -8.345603746      1.566      2.062
REMARK  12 active torsions:
REMARK  status: ('A' for Active; 'I' for Inactive)
REMARK    1  A    between atoms: O1_2  and  C2_3 
REMARK    2  A    between atoms: C4_5  and  C5_6 
REMARK    3  A    between atoms: C5_6  and  N2_12 
REMARK       I    between atoms: N1_7  and  C6_9 
REMARK    4  A    between atoms: N2_12  and  N3_14 
REMARK       I    between atoms: N3_14  and  C8_16 
REMARK    5  A    between atoms: C8_16  and  C9_18 
REMARK    6  A    between atoms: C9_18  and  N4_19 
REMARK    7  A    between atoms: C9_18  and  C20_35 
REMARK       I    between atoms: N4_19  and  C10_21 
REMARK    8  A    between atoms: C10_21  and  C11_23 
REMARK    9  A    between atoms: C13_25  and  O5_26 
REMARK   10  A    between atoms: C15_28  and  O6_29 
REMARK   11  A    between atoms: C17_31  and  O7_32 
REMARK   12  A    between atoms: C26_41  and  O8_42 
ROOT
HETATM    1  N3  UNL     1      -8.863  17.910  24.891  1.00  0.00    -0.267 N 
ATOM      2  H3  UNL     1      -8.002  18.397  24.642  1.00  0.00     0.190 HD
HETATM    3  C8  UNL     1      -9.482  17.085  23.920  1.00  0.00     0.259 C 
HETATM    4  O3  UNL     1     -10.532  16.459  24.153  1.00  0.00    -0.269 OA
ENDROOT
BRANCH   3   5
HETATM    5  C9  UNL     1      -8.863  16.960  22.580  1.00  0.00     0.182 C 
BRANCH   5   6
HETATM    6  N4  UNL     1      -7.458  17.261  22.608  1.00  0.00    -0.343 N 
HETATM    7  C10 UNL     1      -6.888  18.110  21.631  1.00  0.00     0.252 C 
HETATM    8  O4  UNL     1      -7.630  18.587  20.738  1.00  0.00    -0.268 OA
ATOM      9  H4  UNL     1      -6.868  16.860  23.336  1.00  0.00     0.163 HD
BRANCH   7  10
HETATM   10  C11 UNL     1      -5.472  18.465  21.600  1.00  0.00     0.037 A 
HETATM   11  C12 UNL     1      -4.555  17.739  20.856  1.00  0.00     0.057 A 
HETATM   12  C13 UNL     1      -3.215  18.057  20.804  1.00  0.00     0.105 A 
HETATM   13  C15 UNL     1      -2.781  19.148  21.527  1.00  0.00     0.135 A 
HETATM   14  C17 UNL     1      -3.671  19.885  22.274  1.00  0.00     0.105 A 
HETATM   15  C19 UNL     1      -5.015  19.556  22.320  1.00  0.00     0.057 A 
BRANCH  12  16
HETATM   16  O5  UNL     1      -2.308  17.321  20.056  1.00  0.00    -0.353 OA
HETATM   17  C14 UNL     1      -1.832  16.062  20.422  1.00  0.00     0.210 C 
ENDBRANCH  12  16
BRANCH  13  18
HETATM   18  O6  UNL     1      -1.425  19.529  21.519  1.00  0.00    -0.351 OA
HETATM   19  C16 UNL     1      -0.543  18.943  22.478  1.00  0.00     0.210 C 
ENDBRANCH  13  18
BRANCH  14  20
HETATM   20  O7  UNL     1      -3.193  20.973  22.984  1.00  0.00    -0.353 OA
HETATM   21  C18 UNL     1      -4.015  21.904  23.654  1.00  0.00     0.210 C 
ENDBRANCH  14  20
ENDBRANCH   7  10
ENDBRANCH   5   6
BRANCH   5  22
HETATM   22  C20 UNL     1      -9.115  15.557  22.056  1.00  0.00     0.009 C 
HETATM   23  C21 UNL     1      -9.512  15.568  20.601  1.00  0.00     0.012 C 
HETATM   24  C22 UNL     1      -7.924  14.654  22.290  1.00  0.00     0.012 C 
ENDBRANCH   5  22
ENDBRANCH   3   5
BRANCH   1  25
HETATM   25  N2  UNL     1      -9.384  18.086  26.175  1.00  0.00    -0.282 N 
ATOM     26  H2  UNL     1     -10.274  18.577  26.259  1.00  0.00     0.188 HD
BRANCH  25  27
HETATM   27  C5  UNL     1      -8.773  17.636  27.366  1.00  0.00     0.133 C 
HETATM   28  N1  UNL     1      -7.529  17.939  27.586  1.00  0.00    -0.312 N 
HETATM   29  C6  UNL     1      -6.790  18.685  26.669  1.00  0.00     0.219 C 
ATOM     30  H1  UNL     1      -7.084  17.625  28.448  1.00  0.00     0.170 HD
HETATM   31  C7  UNL     1      -5.662  18.029  25.924  1.00  0.00     0.117 C 
HETATM   32  O2  UNL     1      -6.997  19.910  26.404  1.00  0.00    -0.274 OA
BRANCH  27  33
HETATM   33  C4  UNL     1      -9.477  16.849  28.382  1.00  0.00     0.013 A 
HETATM   34  C3  UNL     1     -10.524  15.995  28.115  1.00  0.00     0.055 A 
HETATM   35  C2  UNL     1     -11.163  15.282  29.111  1.00  0.00     0.102 A 
HETATM   36  C26 UNL     1     -10.769  15.404  30.432  1.00  0.00     0.107 A 
HETATM   37  C24 UNL     1      -9.721  16.256  30.706  1.00  0.00    -0.025 A 
HETATM   38  C23 UNL     1      -9.088  16.963  29.705  1.00  0.00     0.025 A 
HETATM   39  C25 UNL     1      -9.293  16.395  32.122  1.00  0.00     0.051 C 
BRANCH  35  40
HETATM   40  O1  UNL     1     -12.195  14.451  28.785  1.00  0.00    -0.353 OA
HETATM   41  C1  UNL     1     -13.404  14.861  28.200  1.00  0.00     0.210 C 
ENDBRANCH  35  40
BRANCH  36  42
HETATM   42  O8  UNL     1     -11.404  14.692  31.453  1.00  0.00    -0.353 OA
HETATM   43  C27 UNL     1     -12.585  15.223  32.053  1.00  0.00     0.210 C 
ENDBRANCH  36  42
ENDBRANCH  27  33
ENDBRANCH  25  27
ENDBRANCH   1  25
TORSDOF 12
ENDMDL
MODEL 5
REMARK VINA RESULT: -8.303612713      1.660      2.256
REMARK  12 active torsions:
REMARK  status: ('A' for Active; 'I' for Inactive)
REMARK    1  A    between atoms: O1_2  and  C2_3 
REMARK    2  A    between atoms: C4_5  and  C5_6 
REMARK    3  A    between atoms: C5_6  and  N2_12 
REMARK       I    between atoms: N1_7  and  C6_9 
REMARK    4  A    between atoms: N2_12  and  N3_14 
REMARK       I    between atoms: N3_14  and  C8_16 
REMARK    5  A    between atoms: C8_16  and  C9_18 
REMARK    6  A    between atoms: C9_18  and  N4_19 
REMARK    7  A    between atoms: C9_18  and  C20_35 
REMARK       I    between atoms: N4_19  and  C10_21 
REMARK    8  A    between atoms: C10_21  and  C11_23 
REMARK    9  A    between atoms: C13_25  and  O5_26 
REMARK   10  A    between atoms: C15_28  and  O6_29 
REMARK   11  A    between atoms: C17_31  and  O7_32 
REMARK   12  A    between atoms: C26_41  and  O8_42 
ROOT
HETATM    1  N3  UNL     1      -8.185  17.506  24.190  1.00  0.00    -0.267 N 
ATOM      2  H3  UNL     1      -9.076  17.013  24.128  1.00  0.00     0.190 HD
HETATM    3  C8  UNL     1      -7.364  17.575  23.038  1.00  0.00     0.259 C 
HETATM    4  O3  UNL     1      -6.266  18.160  23.039  1.00  0.00    -0.269 OA
ENDROOT
BRANCH   3   5
HETATM    5  C9  UNL     1      -7.824  16.929  21.787  1.00  0.00     0.182 C 
BRANCH   5   6
HETATM    6  N4  UNL     1      -6.728  16.601  20.918  1.00  0.00    -0.343 N 
HETATM    7  C10 UNL     1      -6.632  17.187  19.634  1.00  0.00     0.252 C 
HETATM    8  O4  UNL     1      -7.524  17.990  19.268  1.00  0.00    -0.268 OA
ATOM      9  H4  UNL     1      -6.014  15.942  21.228  1.00  0.00     0.163 HD
BRANCH   7  10
HETATM   10  C11 UNL     1      -5.544  16.908  18.701  1.00  0.00     0.037 A 
HETATM   11  C12 UNL     1      -4.514  16.038  19.022  1.00  0.00     0.057 A 
HETATM   12  C13 UNL     1      -3.480  15.750  18.157  1.00  0.00     0.105 A 
HETATM   13  C15 UNL     1      -3.483  16.361  16.921  1.00  0.00     0.135 A 
HETATM   14  C17 UNL     1      -4.493  17.229  16.578  1.00  0.00     0.105 A 
HETATM   15  C19 UNL     1      -5.527  17.511  17.454  1.00  0.00     0.057 A 
BRANCH  12  16
HETATM   16  O5  UNL     1      -2.455  14.879  18.493  1.00  0.00    -0.353 OA
HETATM   17  C14 UNL     1      -1.449  15.172  19.415  1.00  0.00     0.210 C 
ENDBRANCH  12  16
BRANCH  13  18
HETATM   18  O6  UNL     1      -2.457  16.113  15.989  1.00  0.00    -0.351 OA
HETATM   19  C16 UNL     1      -1.294  16.942  16.014  1.00  0.00     0.210 C 
ENDBRANCH  13  18
BRANCH  14  20
HETATM   20  O7  UNL     1      -4.458  17.819  15.326  1.00  0.00    -0.353 OA
HETATM   21  C18 UNL     1      -4.350  19.210  15.109  1.00  0.00     0.210 C 
ENDBRANCH  14  20
ENDBRANCH   7  10
ENDBRANCH   5   6
BRANCH   5  22
HETATM   22  C20 UNL     1      -8.630  15.692  22.145  1.00  0.00     0.009 C 
HETATM   23  C21 UNL     1      -9.991  15.706  21.496  1.00  0.00     0.012 C 
HETATM   24  C22 UNL     1      -7.878  14.423  21.811  1.00  0.00     0.012 C 
ENDBRANCH   5  22
ENDBRANCH   3   5
BRANCH   1  25
HETATM   25  N2  UNL     1      -7.824  18.084  25.410  1.00  0.00    -0.282 N 
ATOM     26  H2  UNL     1      -7.861  19.101  25.478  1.00  0.00     0.188 HD
BRANCH  25  27
HETATM   27  C5  UNL     1      -7.411  17.369  26.555  1.00  0.00     0.133 C 
HETATM   28  N1  UNL     1      -6.184  17.491  26.962  1.00  0.00    -0.312 N 
HETATM   29  C6  UNL     1      -5.272  18.300  26.286  1.00  0.00     0.219 C 
ATOM     30  H1  UNL     1      -5.880  16.983  27.793  1.00  0.00     0.170 HD
HETATM   31  C7  UNL     1      -4.120  17.666  25.559  1.00  0.00     0.117 C 
HETATM   32  O2  UNL     1      -5.335  19.568  26.234  1.00  0.00    -0.274 OA
BRANCH  27  33
HETATM   33  C4  UNL     1      -8.304  16.497  27.324  1.00  0.00     0.013 A 
HETATM   34  C3  UNL     1      -8.988  15.426  26.793  1.00  0.00     0.055 A 
HETATM   35  C2  UNL     1      -9.829  14.640  27.559  1.00  0.00     0.102 A 
HETATM   36  C26 UNL     1     -10.018  14.906  28.903  1.00  0.00     0.107 A 
HETATM   37  C24 UNL     1      -9.334  15.977  29.440  1.00  0.00    -0.025 A 
HETATM   38  C23 UNL     1      -8.497  16.755  28.670  1.00  0.00     0.025 A 
HETATM   39  C25 UNL     1      -9.534  16.272  30.882  1.00  0.00     0.051 C 
BRANCH  35  40
HETATM   40  O1  UNL     1     -10.480  13.591  26.977  1.00  0.00    -0.353 OA
HETATM   41  C1  UNL     1     -11.533  13.709  26.055  1.00  0.00     0.210 C 
ENDBRANCH  35  40
BRANCH  36  42
HETATM   42  O8  UNL     1     -10.865  14.123  29.692  1.00  0.00    -0.353 OA
HETATM   43  C27 UNL     1     -12.267  14.385  29.693  1.00  0.00     0.210 C 
ENDBRANCH  36  42
ENDBRANCH  27  33
ENDBRANCH  25  27
ENDBRANCH   1  25
TORSDOF 12
ENDMDL
