MODEL 1
REMARK VINA RESULT: -9.514878697      0.000      0.000
REMARK  12 active torsions:
REMARK  status: ('A' for Active; 'I' for Inactive)
REMARK    1  A    between atoms: C3_5  and  C4_6 
REMARK    2  A    between atoms: C4_6  and  N2_7 
REMARK    3  A    between atoms: C7_10  and  C8_11 
REMARK    4  A    between atoms: C8_11  and  N3_12 
REMARK    5  A    between atoms: C16_22  and  C17_23 
REMARK    6  A    between atoms: C17_23  and  C18_24 
REMARK    7  A    between atoms: C18_24  and  N5_25 
REMARK       I    between atoms: N5_25  and  C19_27 
REMARK    8  A    between atoms: C19_27  and  C20_29 
REMARK    9  A    between atoms: C20_29  and  N6_30 
REMARK   10  A    between atoms: N8_37  and  C24_39 
REMARK   11  A    between atoms: C24_39  and  C25_40 
REMARK   12  A    between atoms: C25_40  and  C26_41 
ROOT
HETATM    1  N5  UNL     1      18.827  34.750  18.379  1.00  0.00    -0.359 N 
ATOM      2  H5  UNL     1      18.765  33.934  17.772  1.00  0.00     0.162 HD
HETATM    3  C19 UNL     1      18.049  35.877  18.050  1.00  0.00     0.235 C 
HETATM    4  O1  UNL     1      18.083  36.899  18.756  1.00  0.00    -0.272 OA
ENDROOT
BRANCH   1   5
HETATM    5  C18 UNL     1      19.713  34.676  19.530  1.00  0.00     0.128 C 
BRANCH   5   6
HETATM    6  C17 UNL     1      21.133  35.048  19.178  1.00  0.00     0.078 C 
BRANCH   6   7
HETATM    7  C16 UNL     1      21.456  34.477  17.849  1.00  0.00     0.033 A 
HETATM    8  C2  UNL     1      21.606  35.233  16.722  1.00  0.00     0.028 A 
HETATM    9  C1  UNL     1      21.428  36.715  16.803  1.00  0.00     0.070 C 
HETATM   10  N1  UNL     1      21.912  34.665  15.511  1.00  0.00    -0.356 N 
HETATM   11  C3  UNL     1      22.077  33.343  15.380  1.00  0.00     0.063 A 
ATOM     12  H1  UNL     1      22.016  35.264  14.692  1.00  0.00     0.166 HD
HETATM   13  C15 UNL     1      21.925  32.584  16.519  1.00  0.00     0.119 A 
HETATM   14  N4  UNL     1      21.627  33.122  17.712  1.00  0.00    -0.365 N 
ATOM     15  H4  UNL     1      21.526  32.517  18.528  1.00  0.00     0.165 HD
BRANCH  11  16
HETATM   16  C4  UNL     1      22.403  32.682  14.093  1.00  0.00     0.116 C 
BRANCH  16  17
HETATM   17  N2  UNL     1      21.715  31.473  13.869  1.00  0.00    -0.388 N 
HETATM   18  C5  UNL     1      20.899  31.357  12.721  1.00  0.00     0.122 C 
HETATM   19  C6  UNL     1      21.217  30.063  12.006  1.00  0.00     0.026 C 
HETATM   20  C7  UNL     1      20.921  28.852  12.872  1.00  0.00     0.017 C 
HETATM   21  C13 UNL     1      21.242  29.142  14.332  1.00  0.00     0.026 C 
HETATM   22  C14 UNL     1      22.263  30.281  14.410  1.00  0.00     0.122 C 
BRANCH  20  23
HETATM   23  C8  UNL     1      21.706  27.655  12.428  1.00  0.00     0.277 C 
BRANCH  23  24
HETATM   24  N3  UNL     1      22.097  27.773  11.057  1.00  0.00     0.088 N 
HETATM   25  C9  UNL     1      23.545  27.549  10.920  1.00  0.00     0.272 C 
HETATM   26  C10 UNL     1      23.665  26.041  11.159  1.00  0.00     0.032 C 
HETATM   27  C11 UNL     1      22.332  25.517  10.651  1.00  0.00     0.032 C 
HETATM   28  C12 UNL     1      21.547  26.734  10.216  1.00  0.00     0.272 C 
ENDBRANCH  23  24
ENDBRANCH  20  23
ENDBRANCH  16  17
ENDBRANCH  11  16
ENDBRANCH   6   7
ENDBRANCH   5   6
ENDBRANCH   1   5
BRANCH   3  29
HETATM   29  C20 UNL     1      17.182  35.844  16.850  1.00  0.00     0.236 C 
BRANCH  29  30
HETATM   30  N6  UNL     1      16.787  34.497  16.512  1.00  0.00    -0.291 N 
HETATM   31  C21 UNL     1      15.606  33.987  16.918  1.00  0.00     0.124 A 
HETATM   32 CL1  UNL     1      14.544  35.013  17.873  1.00  0.00    -0.063 Cl
HETATM   33  C22 UNL     1      15.228  32.704  16.601  1.00  0.00     0.132 A 
HETATM   34  N7  UNL     1      16.021  31.907  15.870  1.00  0.00    -0.345 N 
HETATM   35  C23 UNL     1      17.202  32.378  15.447  1.00  0.00     0.171 A 
ATOM     36  H7  UNL     1      15.730  30.957  15.640  1.00  0.00     0.167 HD
HETATM   37  N8  UNL     1      18.016  31.669  14.740  1.00  0.00    -0.371 N 
HETATM   38  C32 UNL     1      17.571  33.688  15.782  1.00  0.00     0.293 A 
ATOM     39  H8  UNL     1      18.894  32.104  14.459  1.00  0.00     0.161 HD
HETATM   40  O2  UNL     1      18.692  34.119  15.374  1.00  0.00    -0.264 OA
BRANCH  37  41
HETATM   41  C24 UNL     1      17.783  30.316  14.316  1.00  0.00     0.126 C 
BRANCH  41  42
HETATM   42  C25 UNL     1      17.304  30.351  12.879  1.00  0.00     0.058 C 
BRANCH  42  43
HETATM   43  C26 UNL     1      17.531  29.077  12.162  1.00  0.00    -0.055 A 
HETATM   44  C27 UNL     1      17.522  27.862  12.815  1.00  0.00     0.009 A 
HETATM   45  C28 UNL     1      17.733  26.663  12.147  1.00  0.00     0.026 A 
HETATM   46  C29 UNL     1      17.961  26.662  10.786  1.00  0.00     0.055 A 
HETATM   47 CL2  UNL     1      18.226  25.134   9.956  1.00  0.00    -0.083 Cl
HETATM   48  C30 UNL     1      17.973  27.870  10.118  1.00  0.00     0.056 A 
HETATM   49 CL3  UNL     1      18.263  27.856   8.393  1.00  0.00    -0.083 Cl
HETATM   50  C31 UNL     1      17.761  29.045  10.802  1.00  0.00     0.032 A 
ENDBRANCH  42  43
ENDBRANCH  41  42
ENDBRANCH  37  41
ENDBRANCH  29  30
ENDBRANCH   3  29
TORSDOF 12
ENDMDL
MODEL 2
REMARK VINA RESULT: -9.039038372      2.786      5.397
REMARK  12 active torsions:
REMARK  status: ('A' for Active; 'I' for Inactive)
REMARK    1  A    between atoms: C3_5  and  C4_6 
REMARK    2  A    between atoms: C4_6  and  N2_7 
REMARK    3  A    between atoms: C7_10  and  C8_11 
REMARK    4  A    between atoms: C8_11  and  N3_12 
REMARK    5  A    between atoms: C16_22  and  C17_23 
REMARK    6  A    between atoms: C17_23  and  C18_24 
REMARK    7  A    between atoms: C18_24  and  N5_25 
REMARK       I    between atoms: N5_25  and  C19_27 
REMARK    8  A    between atoms: C19_27  and  C20_29 
REMARK    9  A    between atoms: C20_29  and  N6_30 
REMARK   10  A    between atoms: N8_37  and  C24_39 
REMARK   11  A    between atoms: C24_39  and  C25_40 
REMARK   12  A    between atoms: C25_40  and  C26_41 
ROOT
HETATM    1  N5  UNL     1      20.894  35.948  16.978  1.00  0.00    -0.359 N 
ATOM      2  H5  UNL     1      19.915  35.773  17.201  1.00  0.00     0.162 HD
HETATM    3  C19 UNL     1      21.519  37.055  17.585  1.00  0.00     0.235 C 
HETATM    4  O1  UNL     1      22.712  37.315  17.352  1.00  0.00    -0.272 OA
ENDROOT
BRANCH   1   5
HETATM    5  C18 UNL     1      21.555  35.039  16.055  1.00  0.00     0.128 C 
BRANCH   5   6
HETATM    6  C17 UNL     1      22.261  33.915  16.773  1.00  0.00     0.078 C 
BRANCH   6   7
HETATM    7  C16 UNL     1      21.750  32.625  16.252  1.00  0.00     0.033 A 
HETATM    8  C2  UNL     1      22.340  31.940  15.229  1.00  0.00     0.028 A 
HETATM    9  C1  UNL     1      23.561  32.503  14.577  1.00  0.00     0.070 C 
HETATM   10  N1  UNL     1      21.838  30.744  14.781  1.00  0.00    -0.356 N 
HETATM   11  C3  UNL     1      20.745  30.196  15.326  1.00  0.00     0.063 A 
ATOM     12  H1  UNL     1      22.308  30.262  14.015  1.00  0.00     0.166 HD
HETATM   13  C15 UNL     1      20.152  30.891  16.357  1.00  0.00     0.119 A 
HETATM   14  N4  UNL     1      20.630  32.061  16.810  1.00  0.00    -0.365 N 
ATOM     15  H4  UNL     1      20.155  32.537  17.577  1.00  0.00     0.165 HD
BRANCH  11  16
HETATM   16  C4  UNL     1      20.161  28.909  14.874  1.00  0.00     0.116 C 
BRANCH  16  17
HETATM   17  N2  UNL     1      19.425  28.994  13.675  1.00  0.00    -0.388 N 
HETATM   18  C5  UNL     1      20.100  29.352  12.486  1.00  0.00     0.122 C 
HETATM   19  C6  UNL     1      19.733  28.381  11.387  1.00  0.00     0.026 C 
HETATM   20  C7  UNL     1      18.248  28.420  11.071  1.00  0.00     0.017 C 
HETATM   21  C13 UNL     1      17.434  28.653  12.337  1.00  0.00     0.026 C 
HETATM   22  C14 UNL     1      18.251  28.207  13.554  1.00  0.00     0.122 C 
BRANCH  20  23
HETATM   23  C8  UNL     1      17.791  27.149  10.423  1.00  0.00     0.277 C 
BRANCH  23  24
HETATM   24  N3  UNL     1      18.850  26.189  10.366  1.00  0.00     0.088 N 
HETATM   25  C9  UNL     1      18.578  25.076  11.291  1.00  0.00     0.272 C 
HETATM   26  C10 UNL     1      17.436  24.338  10.586  1.00  0.00     0.032 C 
HETATM   27  C11 UNL     1      17.717  24.617   9.118  1.00  0.00     0.032 C 
HETATM   28  C12 UNL     1      18.936  25.511   9.092  1.00  0.00     0.272 C 
ENDBRANCH  23  24
ENDBRANCH  20  23
ENDBRANCH  16  17
ENDBRANCH  11  16
ENDBRANCH   6   7
ENDBRANCH   5   6
ENDBRANCH   1   5
BRANCH   3  29
HETATM   29  C20 UNL     1      20.749  37.917  18.509  1.00  0.00     0.236 C 
BRANCH  29  30
HETATM   30  N6  UNL     1      19.380  38.079  18.075  1.00  0.00    -0.291 N 
HETATM   31  C21 UNL     1      18.988  39.165  17.379  1.00  0.00     0.124 A 
HETATM   32 CL1  UNL     1      20.192  40.388  17.001  1.00  0.00    -0.063 Cl
HETATM   33  C22 UNL     1      17.686  39.324  16.967  1.00  0.00     0.132 A 
HETATM   34  N7  UNL     1      16.753  38.401  17.241  1.00  0.00    -0.345 N 
HETATM   35  C23 UNL     1      17.105  37.307  17.931  1.00  0.00     0.171 A 
ATOM     36  H7  UNL     1      15.790  38.529  16.930  1.00  0.00     0.167 HD
HETATM   37  N8  UNL     1      16.262  36.377  18.230  1.00  0.00    -0.371 N 
HETATM   38  C32 UNL     1      18.437  37.163  18.344  1.00  0.00     0.293 A 
ATOM     39  H8  UNL     1      16.612  35.578  18.757  1.00  0.00     0.161 HD
HETATM   40  O2  UNL     1      18.754  36.122  18.996  1.00  0.00    -0.264 OA
BRANCH  37  41
HETATM   41  C24 UNL     1      14.869  36.377  17.880  1.00  0.00     0.126 C 
BRANCH  41  42
HETATM   42  C25 UNL     1      14.471  34.955  17.540  1.00  0.00     0.058 C 
BRANCH  42  43
HETATM   43  C26 UNL     1      15.394  34.310  16.581  1.00  0.00    -0.055 A 
HETATM   44  C27 UNL     1      15.990  35.014  15.556  1.00  0.00     0.009 A 
HETATM   45  C28 UNL     1      16.859  34.413  14.655  1.00  0.00     0.026 A 
HETATM   46  C29 UNL     1      17.150  33.069  14.768  1.00  0.00     0.055 A 
HETATM   47 CL2  UNL     1      18.253  32.325  13.618  1.00  0.00    -0.083 Cl
HETATM   48  C30 UNL     1      16.561  32.350  15.789  1.00  0.00     0.056 A 
HETATM   49 CL3  UNL     1      16.939  30.648  15.923  1.00  0.00    -0.083 Cl
HETATM   50  C31 UNL     1      15.704  32.968  16.670  1.00  0.00     0.032 A 
ENDBRANCH  42  43
ENDBRANCH  41  42
ENDBRANCH  37  41
ENDBRANCH  29  30
ENDBRANCH   3  29
TORSDOF 12
ENDMDL
MODEL 3
REMARK VINA RESULT: -8.977215807      2.826      9.075
REMARK  12 active torsions:
REMARK  status: ('A' for Active; 'I' for Inactive)
REMARK    1  A    between atoms: C3_5  and  C4_6 
REMARK    2  A    between atoms: C4_6  and  N2_7 
REMARK    3  A    between atoms: C7_10  and  C8_11 
REMARK    4  A    between atoms: C8_11  and  N3_12 
REMARK    5  A    between atoms: C16_22  and  C17_23 
REMARK    6  A    between atoms: C17_23  and  C18_24 
REMARK    7  A    between atoms: C18_24  and  N5_25 
REMARK       I    between atoms: N5_25  and  C19_27 
REMARK    8  A    between atoms: C19_27  and  C20_29 
REMARK    9  A    between atoms: C20_29  and  N6_30 
REMARK   10  A    between atoms: N8_37  and  C24_39 
REMARK   11  A    between atoms: C24_39  and  C25_40 
REMARK   12  A    between atoms: C25_40  and  C26_41 
ROOT
HETATM    1  N5  UNL     1      20.280  25.128   9.440  1.00  0.00    -0.359 N 
ATOM      2  H5  UNL     1      19.996  25.943   8.897  1.00  0.00     0.162 HD
HETATM    3  C19 UNL     1      19.281  24.422  10.138  1.00  0.00     0.235 C 
HETATM    4  O1  UNL     1      19.569  23.420  10.814  1.00  0.00    -0.272 OA
ENDROOT
BRANCH   1   5
HETATM    5  C18 UNL     1      21.690  24.771   9.443  1.00  0.00     0.128 C 
BRANCH   5   6
HETATM    6  C17 UNL     1      22.583  25.982   9.330  1.00  0.00     0.078 C 
BRANCH   6   7
HETATM    7  C16 UNL     1      22.473  26.771  10.581  1.00  0.00     0.033 A 
HETATM    8  C2  UNL     1      23.548  27.125  11.344  1.00  0.00     0.028 A 
HETATM    9  C1  UNL     1      24.917  26.698  10.925  1.00  0.00     0.070 C 
HETATM   10  N1  UNL     1      23.403  27.861  12.492  1.00  0.00    -0.356 N 
HETATM   11  C3  UNL     1      22.199  28.266  12.917  1.00  0.00     0.063 A 
ATOM     12  H1  UNL     1      24.231  28.107  13.035  1.00  0.00     0.166 HD
HETATM   13  C15 UNL     1      21.117  27.906  12.144  1.00  0.00     0.119 A 
HETATM   14  N4  UNL     1      21.240  27.187  11.017  1.00  0.00    -0.365 N 
ATOM     15  H4  UNL     1      20.407  26.947  10.479  1.00  0.00     0.165 HD
BRANCH  11  16
HETATM   16  C4  UNL     1      21.991  29.058  14.153  1.00  0.00     0.116 C 
BRANCH  16  17
HETATM   17  N2  UNL     1      22.204  30.443  13.999  1.00  0.00    -0.388 N 
HETATM   18  C5  UNL     1      21.301  31.186  13.206  1.00  0.00     0.122 C 
HETATM   19  C6  UNL     1      20.869  32.424  13.959  1.00  0.00     0.026 C 
HETATM   20  C7  UNL     1      22.042  33.342  14.256  1.00  0.00     0.017 C 
HETATM   21  C13 UNL     1      23.297  32.532  14.555  1.00  0.00     0.026 C 
HETATM   22  C14 UNL     1      22.897  31.132  15.028  1.00  0.00     0.122 C 
BRANCH  20  23
HETATM   23  C8  UNL     1      21.753  34.241  15.419  1.00  0.00     0.277 C 
BRANCH  23  24
HETATM   24  N3  UNL     1      21.187  33.511  16.510  1.00  0.00     0.088 N 
HETATM   25  C9  UNL     1      21.996  33.700  17.725  1.00  0.00     0.272 C 
HETATM   26  C10 UNL     1      21.677  35.148  18.107  1.00  0.00     0.032 C 
HETATM   27  C11 UNL     1      20.258  35.321  17.591  1.00  0.00     0.032 C 
HETATM   28  C12 UNL     1      19.896  34.014  16.924  1.00  0.00     0.272 C 
ENDBRANCH  23  24
ENDBRANCH  20  23
ENDBRANCH  16  17
ENDBRANCH  11  16
ENDBRANCH   6   7
ENDBRANCH   5   6
ENDBRANCH   1   5
BRANCH   3  29
HETATM   29  C20 UNL     1      17.875  24.878  10.067  1.00  0.00     0.236 C 
BRANCH  29  30
HETATM   30  N6  UNL     1      17.771  26.315  10.170  1.00  0.00    -0.291 N 
HETATM   31  C21 UNL     1      17.681  27.094   9.074  1.00  0.00     0.124 A 
HETATM   32 CL1  UNL     1      17.685  26.314   7.499  1.00  0.00    -0.063 Cl
HETATM   33  C22 UNL     1      17.585  28.462   9.169  1.00  0.00     0.132 A 
HETATM   34  N7  UNL     1      17.576  29.077  10.360  1.00  0.00    -0.345 N 
HETATM   35  C23 UNL     1      17.664  28.335  11.473  1.00  0.00     0.171 A 
ATOM     36  H7  UNL     1      17.504  30.092  10.419  1.00  0.00     0.167 HD
HETATM   37  N8  UNL     1      17.660  28.858  12.654  1.00  0.00    -0.371 N 
HETATM   38  C32 UNL     1      17.762  26.943  11.357  1.00  0.00     0.293 A 
ATOM     39  H8  UNL     1      17.729  28.222  13.448  1.00  0.00     0.161 HD
HETATM   40  O2  UNL     1      17.843  26.255  12.420  1.00  0.00    -0.264 OA
BRANCH  37  41
HETATM   41  C24 UNL     1      17.565  30.263  12.939  1.00  0.00     0.126 C 
BRANCH  41  42
HETATM   42  C25 UNL     1      17.496  30.432  14.443  1.00  0.00     0.058 C 
BRANCH  42  43
HETATM   43  C26 UNL     1      17.161  31.813  14.854  1.00  0.00    -0.055 A 
HETATM   44  C27 UNL     1      17.590  32.911  14.139  1.00  0.00     0.009 A 
HETATM   45  C28 UNL     1      17.277  34.209  14.520  1.00  0.00     0.026 A 
HETATM   46  C29 UNL     1      16.513  34.433  15.648  1.00  0.00     0.055 A 
HETATM   47 CL2  UNL     1      16.126  36.083  16.116  1.00  0.00    -0.083 Cl
HETATM   48  C30 UNL     1      16.077  33.343  16.375  1.00  0.00     0.056 A 
HETATM   49 CL3  UNL     1      15.109  33.638  17.803  1.00  0.00    -0.083 Cl
HETATM   50  C31 UNL     1      16.399  32.067  15.977  1.00  0.00     0.032 A 
ENDBRANCH  42  43
ENDBRANCH  41  42
ENDBRANCH  37  41
ENDBRANCH  29  30
ENDBRANCH   3  29
TORSDOF 12
ENDMDL
MODEL 4
REMARK VINA RESULT: -8.957066834      3.037      9.908
REMARK  12 active torsions:
REMARK  status: ('A' for Active; 'I' for Inactive)
REMARK    1  A    between atoms: C3_5  and  C4_6 
REMARK    2  A    between atoms: C4_6  and  N2_7 
REMARK    3  A    between atoms: C7_10  and  C8_11 
REMARK    4  A    between atoms: C8_11  and  N3_12 
REMARK    5  A    between atoms: C16_22  and  C17_23 
REMARK    6  A    between atoms: C17_23  and  C18_24 
REMARK    7  A    between atoms: C18_24  and  N5_25 
REMARK       I    between atoms: N5_25  and  C19_27 
REMARK    8  A    between atoms: C19_27  and  C20_29 
REMARK    9  A    between atoms: C20_29  and  N6_30 
REMARK   10  A    between atoms: N8_37  and  C24_39 
REMARK   11  A    between atoms: C24_39  and  C25_40 
REMARK   12  A    between atoms: C25_40  and  C26_41 
ROOT
HETATM    1  N5  UNL     1      19.501  25.953  11.297  1.00  0.00    -0.359 N 
ATOM      2  H5  UNL     1      20.171  26.373  11.940  1.00  0.00     0.162 HD
HETATM    3  C19 UNL     1      19.810  25.967   9.923  1.00  0.00     0.235 C 
HETATM    4  O1  UNL     1      19.032  25.466   9.093  1.00  0.00    -0.272 OA
ENDROOT
BRANCH   1   5
HETATM    5  C18 UNL     1      18.288  25.378  11.857  1.00  0.00     0.128 C 
BRANCH   5   6
HETATM    6  C17 UNL     1      17.126  26.340  11.798  1.00  0.00     0.078 C 
BRANCH   6   7
HETATM    7  C16 UNL     1      17.503  27.583  12.514  1.00  0.00     0.033 A 
HETATM    8  C2  UNL     1      17.324  28.833  11.995  1.00  0.00     0.028 A 
HETATM    9  C1  UNL     1      16.730  28.983  10.632  1.00  0.00     0.070 C 
HETATM   10  N1  UNL     1      17.681  29.958  12.693  1.00  0.00    -0.356 N 
HETATM   11  C3  UNL     1      18.222  29.882  13.915  1.00  0.00     0.063 A 
ATOM     12  H1  UNL     1      17.531  30.875  12.271  1.00  0.00     0.166 HD
HETATM   13  C15 UNL     1      18.401  28.618  14.435  1.00  0.00     0.119 A 
HETATM   14  N4  UNL     1      18.056  27.506  13.767  1.00  0.00    -0.365 N 
ATOM     15  H4  UNL     1      18.208  26.593  14.196  1.00  0.00     0.165 HD
BRANCH  11  16
HETATM   16  C4  UNL     1      18.628  31.068  14.707  1.00  0.00     0.116 C 
BRANCH  16  17
HETATM   17  N2  UNL     1      17.666  32.097  14.749  1.00  0.00    -0.388 N 
HETATM   18  C5  UNL     1      16.449  31.863  15.427  1.00  0.00     0.122 C 
HETATM   19  C6  UNL     1      16.161  33.019  16.358  1.00  0.00     0.026 C 
HETATM   20  C7  UNL     1      15.991  34.325  15.602  1.00  0.00     0.017 C 
HETATM   21  C13 UNL     1      16.934  34.381  14.407  1.00  0.00     0.026 C 
HETATM   22  C14 UNL     1      18.117  33.439  14.650  1.00  0.00     0.122 C 
BRANCH  20  23
HETATM   23  C8  UNL     1      16.249  35.507  16.484  1.00  0.00     0.277 C 
BRANCH  23  24
HETATM   24  N3  UNL     1      16.691  35.098  17.782  1.00  0.00     0.088 N 
HETATM   25  C9  UNL     1      18.061  35.574  18.027  1.00  0.00     0.272 C 
HETATM   26  C10 UNL     1      17.854  37.080  18.219  1.00  0.00     0.032 C 
HETATM   27  C11 UNL     1      16.453  37.149  18.805  1.00  0.00     0.032 C 
HETATM   28  C12 UNL     1      15.954  35.723  18.858  1.00  0.00     0.272 C 
ENDBRANCH  23  24
ENDBRANCH  20  23
ENDBRANCH  16  17
ENDBRANCH  11  16
ENDBRANCH   6   7
ENDBRANCH   5   6
ENDBRANCH   1   5
BRANCH   3  29
HETATM   29  C20 UNL     1      21.075  26.583   9.461  1.00  0.00     0.236 C 
BRANCH  29  30
HETATM   30  N6  UNL     1      21.828  27.146  10.558  1.00  0.00    -0.291 N 
HETATM   31  C21 UNL     1      22.989  26.598  10.968  1.00  0.00     0.124 A 
HETATM   32 CL1  UNL     1      23.578  25.171  10.126  1.00  0.00    -0.063 Cl
HETATM   33  C22 UNL     1      23.707  27.129  12.014  1.00  0.00     0.132 A 
HETATM   34  N7  UNL     1      23.278  28.219  12.667  1.00  0.00    -0.345 N 
HETATM   35  C23 UNL     1      22.128  28.792  12.288  1.00  0.00     0.171 A 
ATOM     36  H7  UNL     1      23.819  28.605  13.441  1.00  0.00     0.167 HD
HETATM   37  N8  UNL     1      21.655  29.843  12.869  1.00  0.00    -0.371 N 
HETATM   38  C32 UNL     1      21.410  28.235  11.221  1.00  0.00     0.293 A 
ATOM     39  H8  UNL     1      20.773  30.217  12.518  1.00  0.00     0.161 HD
HETATM   40  O2  UNL     1      20.323  28.790  10.874  1.00  0.00    -0.264 OA
BRANCH  37  41
HETATM   41  C24 UNL     1      22.270  30.529  13.971  1.00  0.00     0.126 C 
BRANCH  41  42
HETATM   42  C25 UNL     1      21.984  32.010  13.821  1.00  0.00     0.058 C 
BRANCH  42  43
HETATM   43  C26 UNL     1      21.956  32.727  15.114  1.00  0.00    -0.055 A 
HETATM   44  C27 UNL     1      22.237  32.094  16.305  1.00  0.00     0.009 A 
HETATM   45  C28 UNL     1      22.214  32.763  17.522  1.00  0.00     0.026 A 
HETATM   46  C29 UNL     1      21.901  34.107  17.565  1.00  0.00     0.055 A 
HETATM   47 CL2  UNL     1      21.876  34.939  19.114  1.00  0.00    -0.083 Cl
HETATM   48  C30 UNL     1      21.616  34.755  16.379  1.00  0.00     0.056 A 
HETATM   49 CL3  UNL     1      21.221  36.458  16.445  1.00  0.00    -0.083 Cl
HETATM   50  C31 UNL     1      21.646  34.071  15.187  1.00  0.00     0.032 A 
ENDBRANCH  42  43
ENDBRANCH  41  42
ENDBRANCH  37  41
ENDBRANCH  29  30
ENDBRANCH   3  29
TORSDOF 12
ENDMDL
MODEL 5
REMARK VINA RESULT: -8.865089489      3.252     10.038
REMARK  12 active torsions:
REMARK  status: ('A' for Active; 'I' for Inactive)
REMARK    1  A    between atoms: C3_5  and  C4_6 
REMARK    2  A    between atoms: C4_6  and  N2_7 
REMARK    3  A    between atoms: C7_10  and  C8_11 
REMARK    4  A    between atoms: C8_11  and  N3_12 
REMARK    5  A    between atoms: C16_22  and  C17_23 
REMARK    6  A    between atoms: C17_23  and  C18_24 
REMARK    7  A    between atoms: C18_24  and  N5_25 
REMARK       I    between atoms: N5_25  and  C19_27 
REMARK    8  A    between atoms: C19_27  and  C20_29 
REMARK    9  A    between atoms: C20_29  and  N6_30 
REMARK   10  A    between atoms: N8_37  and  C24_39 
REMARK   11  A    between atoms: C24_39  and  C25_40 
REMARK   12  A    between atoms: C25_40  and  C26_41 
ROOT
HETATM    1  N5  UNL     1      20.259  25.015  10.970  1.00  0.00    -0.359 N 
ATOM      2  H5  UNL     1      20.460  25.788  11.604  1.00  0.00     0.162 HD
HETATM    3  C19 UNL     1      20.819  25.059   9.679  1.00  0.00     0.235 C 
HETATM    4  O1  UNL     1      20.610  24.143   8.865  1.00  0.00    -0.272 OA
ENDROOT
BRANCH   1   5
HETATM    5  C18 UNL     1      19.411  23.938  11.458  1.00  0.00     0.128 C 
BRANCH   5   6
HETATM    6  C17 UNL     1      17.944  24.263  11.316  1.00  0.00     0.078 C 
BRANCH   6   7
HETATM    7  C16 UNL     1      17.769  25.730  11.438  1.00  0.00     0.033 A 
HETATM    8  C2  UNL     1      17.471  26.542  10.382  1.00  0.00     0.028 A 
HETATM    9  C1  UNL     1      17.319  25.948   9.019  1.00  0.00     0.070 C 
HETATM   10  N1  UNL     1      17.312  27.896  10.539  1.00  0.00    -0.356 N 
HETATM   11  C3  UNL     1      17.442  28.482  11.736  1.00  0.00     0.063 A 
ATOM     12  H1  UNL     1      17.089  28.469   9.726  1.00  0.00     0.166 HD
HETATM   13  C15 UNL     1      17.743  27.658  12.799  1.00  0.00     0.119 A 
HETATM   14  N4  UNL     1      17.902  26.332  12.664  1.00  0.00    -0.365 N 
ATOM     15  H4  UNL     1      18.123  25.765  13.483  1.00  0.00     0.165 HD
BRANCH  11  16
HETATM   16  C4  UNL     1      17.284  29.940  11.956  1.00  0.00     0.116 C 
BRANCH  16  17
HETATM   17  N2  UNL     1      17.929  30.427  13.110  1.00  0.00    -0.388 N 
HETATM   18  C5  UNL     1      18.768  31.559  12.995  1.00  0.00     0.122 C 
HETATM   19  C6  UNL     1      18.416  32.559  14.073  1.00  0.00     0.026 C 
HETATM   20  C7  UNL     1      18.641  31.992  15.464  1.00  0.00     0.017 C 
HETATM   21  C13 UNL     1      18.296  30.510  15.504  1.00  0.00     0.026 C 
HETATM   22  C14 UNL     1      17.320  30.186  14.369  1.00  0.00     0.122 C 
BRANCH  20  23
HETATM   23  C8  UNL     1      17.820  32.713  16.489  1.00  0.00     0.277 C 
BRANCH  23  24
HETATM   24  N3  UNL     1      17.074  33.780  15.896  1.00  0.00     0.088 N 
HETATM   25  C9  UNL     1      15.635  33.476  15.931  1.00  0.00     0.272 C 
HETATM   26  C10 UNL     1      15.303  33.639  17.418  1.00  0.00     0.032 C 
HETATM   27  C11 UNL     1      16.302  34.693  17.866  1.00  0.00     0.032 C 
HETATM   28  C12 UNL     1      17.143  35.011  16.652  1.00  0.00     0.272 C 
ENDBRANCH  23  24
ENDBRANCH  20  23
ENDBRANCH  16  17
ENDBRANCH  11  16
ENDBRANCH   6   7
ENDBRANCH   5   6
ENDBRANCH   1   5
BRANCH   3  29
HETATM   29  C20 UNL     1      21.667  26.208   9.287  1.00  0.00     0.236 C 
BRANCH  29  30
HETATM   30  N6  UNL     1      22.321  26.805  10.428  1.00  0.00    -0.291 N 
HETATM   31  C21 UNL     1      23.544  26.402  10.827  1.00  0.00     0.124 A 
HETATM   32 CL1  UNL     1      24.336  25.124   9.916  1.00  0.00    -0.063 Cl
HETATM   33  C22 UNL     1      24.169  26.966  11.915  1.00  0.00     0.132 A 
HETATM   34  N7  UNL     1      23.585  27.944  12.621  1.00  0.00    -0.345 N 
HETATM   35  C23 UNL     1      22.369  28.373  12.253  1.00  0.00     0.171 A 
ATOM     36  H7  UNL     1      24.057  28.356  13.425  1.00  0.00     0.167 HD
HETATM   37  N8  UNL     1      21.747  29.311  12.885  1.00  0.00    -0.371 N 
HETATM   38  C32 UNL     1      21.748  27.784  11.143  1.00  0.00     0.293 A 
ATOM     39  H8  UNL     1      20.825  29.577  12.539  1.00  0.00     0.161 HD
HETATM   40  O2  UNL     1      20.597  28.201  10.809  1.00  0.00    -0.264 OA
BRANCH  37  41
HETATM   41  C24 UNL     1      22.248  30.010  14.035  1.00  0.00     0.126 C 
BRANCH  41  42
HETATM   42  C25 UNL     1      22.141  31.497  13.763  1.00  0.00     0.058 C 
BRANCH  42  43
HETATM   43  C26 UNL     1      22.069  32.307  14.999  1.00  0.00    -0.055 A 
HETATM   44  C27 UNL     1      22.330  31.768  16.240  1.00  0.00     0.009 A 
HETATM   45  C28 UNL     1      22.265  32.524  17.403  1.00  0.00     0.026 A 
HETATM   46  C29 UNL     1      21.929  33.861  17.339  1.00  0.00     0.055 A 
HETATM   47 CL2  UNL     1      21.852  34.804  18.822  1.00  0.00    -0.083 Cl
HETATM   48  C30 UNL     1      21.664  34.416  16.103  1.00  0.00     0.056 A 
HETATM   49 CL3  UNL     1      21.240  36.111  16.034  1.00  0.00    -0.083 Cl
HETATM   50  C31 UNL     1      21.736  33.646  14.966  1.00  0.00     0.032 A 
ENDBRANCH  42  43
ENDBRANCH  41  42
ENDBRANCH  37  41
ENDBRANCH  29  30
ENDBRANCH   3  29
TORSDOF 12
ENDMDL
