MODEL 1
REMARK VINA RESULT: -8.126786753      0.000      0.000
REMARK  3 active torsions:
REMARK  status: ('A' for Active; 'I' for Inactive)
REMARK       I    between atoms: C1_2  and  N1_3 
REMARK       I    between atoms: C1_2  and  N2_19 
REMARK       I    between atoms: N1_3  and  C2_5 
REMARK    1  A    between atoms: C2_5  and  C3_7 
REMARK    2  A    between atoms: C12_16  and  O3_17 
REMARK    3  A    between atoms: N2_19  and  C13_21 
ROOT
HETATM    1  C3  UNL     1      46.964  52.015   9.107  1.00  0.00     0.107 C 
HETATM    2  C4  UNL     1      46.632  52.118   7.661  1.00  0.00     0.021 C 
HETATM    3  C5  UNL     1      45.717  51.028   7.248  1.00  0.00    -0.013 C 
HETATM    4  C6  UNL     1      44.682  50.808   8.296  1.00  0.00     0.010 C 
HETATM    5  C7  UNL     1      45.103  49.792   9.311  1.00  0.00    -0.007 C 
HETATM    6  C8  UNL     1      45.023  48.440   8.571  1.00  0.00     0.010 C 
HETATM    7  C9  UNL     1      46.444  48.788   8.090  1.00  0.00    -0.007 C 
HETATM    8  C10 UNL     1      46.402  49.731   6.926  1.00  0.00     0.010 C 
HETATM    9  C11 UNL     1      46.565  49.536   9.376  1.00  0.00     0.023 C 
HETATM   10  C12 UNL     1      47.491  50.673   9.414  1.00  0.00     0.136 C 
ENDROOT
BRANCH   1  11
HETATM   11  C2  UNL     1      47.982  53.072   9.496  1.00  0.00     0.232 C 
HETATM   12  N1  UNL     1      47.799  53.863  10.633  1.00  0.00    -0.279 N 
HETATM   13  C1  UNL     1      48.648  54.850  11.083  1.00  0.00     0.323 C 
ATOM     14  H1  UNL     1      46.957  53.694  11.182  1.00  0.00     0.173 HD
HETATM   15  O1  UNL     1      48.288  55.464  12.162  1.00  0.00    -0.247 OA
HETATM   16  N2  UNL     1      49.848  55.234  10.477  1.00  0.00    -0.338 N 
ATOM     17  H2  UNL     1      50.181  54.784   9.624  1.00  0.00     0.164 HD
HETATM   18  O2  UNL     1      48.966  53.191   8.759  1.00  0.00    -0.273 OA
BRANCH  16  19
HETATM   19  C13 UNL     1      50.615  56.324  11.129  1.00  0.00     0.086 A 
HETATM   20  C14 UNL     1      50.281  57.712  10.603  1.00  0.00     0.027 A 
HETATM   21  C15 UNL     1      51.640  57.031  10.309  1.00  0.00     0.027 A 
ENDBRANCH  16  19
ENDBRANCH   1  11
BRANCH  10  22
HETATM   22  O3  UNL     1      48.125  50.724  10.687  1.00  0.00    -0.394 OA
ATOM     23  H3  UNL     1      47.515  50.396  11.337  1.00  0.00     0.210 HD
ENDBRANCH  10  22
TORSDOF 3
ENDMDL
MODEL 2
REMARK VINA RESULT: -7.932541088      5.165      7.670
REMARK  3 active torsions:
REMARK  status: ('A' for Active; 'I' for Inactive)
REMARK       I    between atoms: C1_2  and  N1_3 
REMARK       I    between atoms: C1_2  and  N2_19 
REMARK       I    between atoms: N1_3  and  C2_5 
REMARK    1  A    between atoms: C2_5  and  C3_7 
REMARK    2  A    between atoms: C12_16  and  O3_17 
REMARK    3  A    between atoms: N2_19  and  C13_21 
ROOT
HETATM    1  C3  UNL     1      45.981  45.195   9.892  1.00  0.00     0.107 C 
HETATM    2  C4  UNL     1      47.181  44.623   9.224  1.00  0.00     0.021 C 
HETATM    3  C5  UNL     1      47.457  43.252   9.710  1.00  0.00    -0.013 C 
HETATM    4  C6  UNL     1      46.181  42.496   9.851  1.00  0.00     0.010 C 
HETATM    5  C7  UNL     1      45.581  42.638  11.215  1.00  0.00    -0.007 C 
HETATM    6  C8  UNL     1      46.491  41.797  12.135  1.00  0.00     0.010 C 
HETATM    7  C9  UNL     1      47.351  43.072  12.202  1.00  0.00    -0.007 C 
HETATM    8  C10 UNL     1      48.232  43.191  10.995  1.00  0.00     0.010 C 
HETATM    9  C11 UNL     1      46.066  43.803  11.998  1.00  0.00     0.023 C 
HETATM   10  C12 UNL     1      46.131  45.121  11.356  1.00  0.00     0.136 C 
ENDROOT
BRANCH   1  11
HETATM   11  C2  UNL     1      45.770  46.636   9.465  1.00  0.00     0.232 C 
HETATM   12  N1  UNL     1      44.599  47.027   8.809  1.00  0.00    -0.279 N 
HETATM   13  C1  UNL     1      44.297  48.299   8.374  1.00  0.00     0.323 C 
ATOM     14  H1  UNL     1      43.903  46.303   8.636  1.00  0.00     0.173 HD
HETATM   15  O1  UNL     1      43.154  48.444   7.787  1.00  0.00    -0.247 OA
HETATM   16  N2  UNL     1      45.112  49.425   8.514  1.00  0.00    -0.338 N 
ATOM     17  H2  UNL     1      46.024  49.370   8.968  1.00  0.00     0.164 HD
HETATM   18  O2  UNL     1      46.679  47.430   9.726  1.00  0.00    -0.273 OA
BRANCH  16  19
HETATM   19  C13 UNL     1      44.593  50.706   7.972  1.00  0.00     0.086 A 
HETATM   20  C14 UNL     1      45.681  51.702   7.596  1.00  0.00     0.027 A 
HETATM   21  C15 UNL     1      44.753  51.926   8.816  1.00  0.00     0.027 A 
ENDBRANCH  16  19
ENDBRANCH   1  11
BRANCH  10  22
HETATM   22  O3  UNL     1      45.165  45.983  11.947  1.00  0.00    -0.394 OA
ATOM     23  H3  UNL     1      44.324  45.811  11.538  1.00  0.00     0.210 HD
ENDBRANCH  10  22
TORSDOF 3
ENDMDL
MODEL 3
REMARK VINA RESULT: -7.648588176      5.036      7.702
REMARK  3 active torsions:
REMARK  status: ('A' for Active; 'I' for Inactive)
REMARK       I    between atoms: C1_2  and  N1_3 
REMARK       I    between atoms: C1_2  and  N2_19 
REMARK       I    between atoms: N1_3  and  C2_5 
REMARK    1  A    between atoms: C2_5  and  C3_7 
REMARK    2  A    between atoms: C12_16  and  O3_17 
REMARK    3  A    between atoms: N2_19  and  C13_21 
ROOT
HETATM    1  C3  UNL     1      45.404  49.077   9.519  1.00  0.00     0.107 C 
HETATM    2  C4  UNL     1      46.648  49.828   9.202  1.00  0.00     0.021 C 
HETATM    3  C5  UNL     1      46.337  51.113   8.535  1.00  0.00    -0.013 C 
HETATM    4  C6  UNL     1      45.158  51.751   9.184  1.00  0.00     0.010 C 
HETATM    5  C7  UNL     1      43.865  51.344   8.549  1.00  0.00    -0.007 C 
HETATM    6  C8  UNL     1      43.848  52.076   7.190  1.00  0.00     0.010 C 
HETATM    7  C9  UNL     1      44.660  50.865   6.696  1.00  0.00    -0.007 C 
HETATM    8  C10 UNL     1      46.109  51.006   7.054  1.00  0.00     0.010 C 
HETATM    9  C11 UNL     1      43.925  50.097   7.744  1.00  0.00     0.023 C 
HETATM   10  C12 UNL     1      44.585  48.913   8.304  1.00  0.00     0.136 C 
ENDROOT
BRANCH   1  11
HETATM   11  C2  UNL     1      45.737  47.717  10.106  1.00  0.00     0.232 C 
HETATM   12  N1  UNL     1      45.367  47.387  11.412  1.00  0.00    -0.279 N 
HETATM   13  C1  UNL     1      45.615  46.192  12.051  1.00  0.00     0.323 C 
ATOM     14  H1  UNL     1      44.866  48.099  11.943  1.00  0.00     0.173 HD
HETATM   15  O1  UNL     1      45.184  46.094  13.266  1.00  0.00    -0.247 OA
HETATM   16  N2  UNL     1      46.283  45.095  11.500  1.00  0.00    -0.338 N 
ATOM     17  H2  UNL     1      46.645  45.116  10.547  1.00  0.00     0.164 HD
HETATM   18  O2  UNL     1      46.347  46.932   9.373  1.00  0.00    -0.273 OA
BRANCH  16  19
HETATM   19  C13 UNL     1      46.444  43.899  12.364  1.00  0.00     0.086 A 
HETATM   20  C14 UNL     1      47.430  42.875  11.821  1.00  0.00     0.027 A 
HETATM   21  C15 UNL     1      45.905  42.605  11.855  1.00  0.00     0.027 A 
ENDBRANCH  16  19
ENDBRANCH   1  11
BRANCH  10  22
HETATM   22  O3  UNL     1      43.613  47.904   8.555  1.00  0.00    -0.394 OA
ATOM     23  H3  UNL     1      43.155  48.126   9.357  1.00  0.00     0.210 HD
ENDBRANCH  10  22
TORSDOF 3
ENDMDL
MODEL 4
REMARK VINA RESULT: -7.605704331      1.093      1.860
REMARK  3 active torsions:
REMARK  status: ('A' for Active; 'I' for Inactive)
REMARK       I    between atoms: C1_2  and  N1_3 
REMARK       I    between atoms: C1_2  and  N2_19 
REMARK       I    between atoms: N1_3  and  C2_5 
REMARK    1  A    between atoms: C2_5  and  C3_7 
REMARK    2  A    between atoms: C12_16  and  O3_17 
REMARK    3  A    between atoms: N2_19  and  C13_21 
ROOT
HETATM    1  C3  UNL     1      47.028  52.054   8.807  1.00  0.00     0.107 C 
HETATM    2  C4  UNL     1      45.659  52.419   9.258  1.00  0.00     0.021 C 
HETATM    3  C5  UNL     1      44.650  51.485   8.706  1.00  0.00    -0.013 C 
HETATM    4  C6  UNL     1      45.167  50.090   8.759  1.00  0.00     0.010 C 
HETATM    5  C7  UNL     1      45.904  49.705   7.515  1.00  0.00    -0.007 C 
HETATM    6  C8  UNL     1      44.806  49.541   6.442  1.00  0.00     0.010 C 
HETATM    7  C9  UNL     1      44.964  51.062   6.261  1.00  0.00    -0.007 C 
HETATM    8  C10 UNL     1      44.200  51.811   7.311  1.00  0.00     0.010 C 
HETATM    9  C11 UNL     1      46.378  50.843   6.687  1.00  0.00     0.023 C 
HETATM   10  C12 UNL     1      47.071  51.962   7.336  1.00  0.00     0.136 C 
ENDROOT
BRANCH   1  11
HETATM   11  C2  UNL     1      48.040  53.076   9.292  1.00  0.00     0.232 C 
HETATM   12  N1  UNL     1      47.799  53.839  10.437  1.00  0.00    -0.279 N 
HETATM   13  C1  UNL     1      48.637  54.793  10.970  1.00  0.00     0.323 C 
ATOM     14  H1  UNL     1      46.919  53.674  10.925  1.00  0.00     0.173 HD
HETATM   15  O1  UNL     1      48.220  55.385  12.041  1.00  0.00    -0.247 OA
HETATM   16  N2  UNL     1      49.882  55.167  10.455  1.00  0.00    -0.338 N 
ATOM     17  H2  UNL     1      50.261  54.734   9.613  1.00  0.00     0.164 HD
HETATM   18  O2  UNL     1      49.072  53.193   8.624  1.00  0.00    -0.273 OA
BRANCH  16  19
HETATM   19  C13 UNL     1      50.627  56.221  11.187  1.00  0.00     0.086 A 
HETATM   20  C14 UNL     1      50.548  57.595  10.537  1.00  0.00     0.027 A 
HETATM   21  C15 UNL     1      51.857  56.767  10.545  1.00  0.00     0.027 A 
ENDBRANCH  16  19
ENDBRANCH   1  11
BRANCH  10  22
HETATM   22  O3  UNL     1      48.434  51.974   6.929  1.00  0.00    -0.394 OA
ATOM     23  H3  UNL     1      48.463  51.871   5.985  1.00  0.00     0.210 HD
ENDBRANCH  10  22
TORSDOF 3
ENDMDL
MODEL 5
REMARK VINA RESULT: -7.598484865      5.311      8.037
REMARK  3 active torsions:
REMARK  status: ('A' for Active; 'I' for Inactive)
REMARK       I    between atoms: C1_2  and  N1_3 
REMARK       I    between atoms: C1_2  and  N2_19 
REMARK       I    between atoms: N1_3  and  C2_5 
REMARK    1  A    between atoms: C2_5  and  C3_7 
REMARK    2  A    between atoms: C12_16  and  O3_17 
REMARK    3  A    between atoms: N2_19  and  C13_21 
ROOT
HETATM    1  C3  UNL     1      44.816  49.314   7.596  1.00  0.00     0.107 C 
HETATM    2  C4  UNL     1      45.877  50.192   8.158  1.00  0.00     0.021 C 
HETATM    3  C5  UNL     1      45.897  51.505   7.474  1.00  0.00    -0.013 C 
HETATM    4  C6  UNL     1      44.505  51.979   7.240  1.00  0.00     0.010 C 
HETATM    5  C7  UNL     1      43.962  51.529   5.920  1.00  0.00    -0.007 C 
HETATM    6  C8  UNL     1      44.711  52.384   4.875  1.00  0.00     0.010 C 
HETATM    7  C9  UNL     1      45.796  51.297   4.984  1.00  0.00    -0.007 C 
HETATM    8  C10 UNL     1      46.666  51.522   6.183  1.00  0.00     0.010 C 
HETATM    9  C11 UNL     1      44.669  50.375   5.309  1.00  0.00     0.023 C 
HETATM   10  C12 UNL     1      44.971  49.200   6.135  1.00  0.00     0.136 C 
ENDROOT
BRANCH   1  11
HETATM   11  C2  UNL     1      44.873  47.936   8.232  1.00  0.00     0.232 C 
HETATM   12  N1  UNL     1      46.065  47.439   8.765  1.00  0.00    -0.279 N 
HETATM   13  C1  UNL     1      46.238  46.209   9.362  1.00  0.00     0.323 C 
ATOM     14  H1  UNL     1      46.884  48.043   8.706  1.00  0.00     0.173 HD
HETATM   15  O1  UNL     1      47.430  45.945   9.789  1.00  0.00    -0.247 OA
HETATM   16  N2  UNL     1      45.246  45.240   9.539  1.00  0.00    -0.338 N 
ATOM     17  H2  UNL     1      44.289  45.394   9.221  1.00  0.00     0.164 HD
HETATM   18  O2  UNL     1      43.820  47.291   8.248  1.00  0.00    -0.273 OA
BRANCH  16  19
HETATM   19  C13 UNL     1      45.648  43.979  10.209  1.00  0.00     0.086 A 
HETATM   20  C14 UNL     1      46.037  42.866   9.246  1.00  0.00     0.027 A 
HETATM   21  C15 UNL     1      44.732  42.808  10.079  1.00  0.00     0.027 A 
ENDBRANCH  16  19
ENDBRANCH   1  11
BRANCH  10  22
HETATM   22  O3  UNL     1      44.193  48.096   5.689  1.00  0.00    -0.394 OA
ATOM     23  H3  UNL     1      43.885  48.284   4.810  1.00  0.00     0.210 HD
ENDBRANCH  10  22
TORSDOF 3
ENDMDL
