MODEL 1
REMARK VINA RESULT: -9.456848254      0.000      0.000
REMARK  12 active torsions:
REMARK  status: ('A' for Active; 'I' for Inactive)
REMARK    1  A    between atoms: O1_2  and  C2_3 
REMARK    2  A    between atoms: C2_3  and  C4_5 
REMARK    3  A    between atoms: C2_3  and  O3_11 
REMARK    4  A    between atoms: C4_5  and  N1_6 
REMARK       I    between atoms: N1_6  and  C5_8 
REMARK    5  A    between atoms: O3_11  and  C7_12 
REMARK    6  A    between atoms: C7_12  and  C8_14 
REMARK    7  A    between atoms: C8_14  and  S1_15 
REMARK    8  A    between atoms: S1_15  and  C9_16 
REMARK    9  A    between atoms: C12_21  and  N3_22 
REMARK   10  A    between atoms: C15_29  and  O5_30 
REMARK   11  A    between atoms: N8_38  and  C17_39 
REMARK   12  A    between atoms: C18_45  and  N11_46 
ROOT
HETATM    1  C9  UNL     1       3.932 -22.224 -29.622  1.00  0.00     0.169 A 
HETATM    2  N2  UNL     1       2.685 -21.835 -29.744  1.00  0.00    -0.332 N 
ATOM      3  H2  UNL     1       2.182 -21.557 -28.901  1.00  0.00     0.168 HD
HETATM    4  C10 UNL     1       1.998 -21.781 -30.983  1.00  0.00     0.085 A 
HETATM    5  C11 UNL     1       2.692 -22.164 -32.118  1.00  0.00     0.120 A 
HETATM    6  C12 UNL     1       2.016 -22.106 -33.314  1.00  0.00     0.131 A 
HETATM    7  N4  UNL     1       0.712 -21.686 -33.368  1.00  0.00    -0.325 N 
ATOM      8  H4  UNL     1       0.244 -21.657 -34.273  1.00  0.00     0.169 HD
HETATM    9  C13 UNL     1       0.029 -21.313 -32.277  1.00  0.00     0.140 A 
HETATM   10  C14 UNL     1       0.684 -21.363 -31.066  1.00  0.00     0.091 A 
HETATM   11  C15 UNL     1      -0.242 -20.932 -30.138  1.00  0.00     0.171 A 
HETATM   12  N5  UNL     1      -1.386 -20.647 -30.808  1.00  0.00    -0.276 N 
ATOM     13  H5  UNL     1      -2.243 -20.305 -30.372  1.00  0.00     0.189 HD
HETATM   14  N6  UNL     1      -1.243 -20.871 -32.103  1.00  0.00    -0.278 N 
HETATM   15  C16 UNL     1      -2.263 -20.676 -33.146  1.00  0.00     0.179 C 
HETATM   16  N7  UNL     1       4.049 -22.590 -31.994  1.00  0.00    -0.284 N 
ATOM     17  H7  UNL     1       4.561 -22.872 -32.830  1.00  0.00     0.188 HD
HETATM   18  N8  UNL     1       4.699 -22.629 -30.745  1.00  0.00    -0.211 N 
ENDROOT
BRANCH   1  19
HETATM   19  S1  UNL     1       4.710 -22.257 -28.015  1.00  0.00    -0.082 SA
BRANCH  19  20
HETATM   20  C8  UNL     1       5.419 -23.894 -27.724  1.00  0.00     0.193 C 
BRANCH  20  21
HETATM   21  C7  UNL     1       6.698 -23.734 -26.972  1.00  0.00     0.271 C 
HETATM   22  O4  UNL     1       7.163 -22.571 -26.820  1.00  0.00    -0.264 OA
BRANCH  21  23
HETATM   23  O3  UNL     1       7.405 -24.776 -26.432  1.00  0.00    -0.281 OA
BRANCH  23  24
HETATM   24  C2  UNL     1       8.637 -25.207 -27.046  1.00  0.00     0.184 C 
HETATM   25  C3  UNL     1       9.218 -26.252 -26.076  1.00  0.00     0.081 C 
BRANCH  24  26
HETATM   26  O1  UNL     1       8.427 -25.830 -28.217  1.00  0.00    -0.358 OA
HETATM   27  C1  UNL     1       8.067 -27.113 -28.330  1.00  0.00     0.205 C 
ENDBRANCH  24  26
BRANCH  24  28
HETATM   28  C4  UNL     1       9.582 -24.059 -26.995  1.00  0.00     0.191 C 
BRANCH  28  29
HETATM   29  N1  UNL     1      10.443 -23.941 -25.883  1.00  0.00    -0.356 N 
HETATM   30  C5  UNL     1      10.788 -22.603 -25.466  1.00  0.00     0.213 C 
HETATM   31  C6  UNL     1      11.670 -22.316 -24.325  1.00  0.00     0.117 C 
HETATM   32  O2  UNL     1      10.319 -21.606 -26.100  1.00  0.00    -0.274 OA
ATOM     33  H1  UNL     1      10.803 -24.761 -25.397  1.00  0.00     0.162 HD
ENDBRANCH  28  29
ENDBRANCH  24  28
ENDBRANCH  23  24
ENDBRANCH  21  23
ENDBRANCH  20  21
ENDBRANCH  19  20
ENDBRANCH   1  19
BRANCH  18  34
HETATM   34  C17 UNL     1       6.058 -23.053 -30.639  1.00  0.00     0.197 A 
HETATM   35  N9  UNL     1       7.172 -22.358 -30.379  1.00  0.00    -0.220 N 
HETATM   36  O6  UNL     1       8.188 -23.172 -30.388  1.00  0.00    -0.153 OA
ATOM     37  H9  UNL     1       7.218 -21.355 -30.203  1.00  0.00     0.198 HD
HETATM   38  N10 UNL     1       7.814 -24.376 -30.640  1.00  0.00    -0.222 N 
HETATM   39  C18 UNL     1       6.500 -24.363 -30.806  1.00  0.00     0.169 A 
ATOM     40  H10 UNL     1       8.420 -25.194 -30.700  1.00  0.00     0.198 HD
BRANCH  39  41
HETATM   41  N11 UNL     1       5.697 -25.342 -31.075  1.00  0.00    -0.381 N 
ATOM     42 2H11 UNL     1       5.210 -25.972 -30.438  1.00  0.00     0.157 HD
ATOM     43 1H11 UNL     1       5.450 -25.604 -32.029  1.00  0.00     0.157 HD
ENDBRANCH  39  41
ENDBRANCH  18  34
BRANCH   6  44
HETATM   44  N3  UNL     1       2.609 -22.449 -34.389  1.00  0.00    -0.383 N 
ATOM     45  H32 UNL     1       3.509 -22.031 -34.621  1.00  0.00     0.157 HD
ATOM     46  H31 UNL     1       2.175 -23.137 -35.006  1.00  0.00     0.157 HD
ENDBRANCH   6  44
BRANCH  11  47
HETATM   47  O5  UNL     1       0.020 -20.834 -28.796  1.00  0.00    -0.344 OA
ATOM     48  H5  UNL     1      -0.298 -21.457 -28.153  1.00  0.00     0.219 HD
ENDBRANCH  11  47
TORSDOF 12
ENDMDL
MODEL 2
REMARK VINA RESULT: -9.319781196      2.229      5.572
REMARK  12 active torsions:
REMARK  status: ('A' for Active; 'I' for Inactive)
REMARK    1  A    between atoms: O1_2  and  C2_3 
REMARK    2  A    between atoms: C2_3  and  C4_5 
REMARK    3  A    between atoms: C2_3  and  O3_11 
REMARK    4  A    between atoms: C4_5  and  N1_6 
REMARK       I    between atoms: N1_6  and  C5_8 
REMARK    5  A    between atoms: O3_11  and  C7_12 
REMARK    6  A    between atoms: C7_12  and  C8_14 
REMARK    7  A    between atoms: C8_14  and  S1_15 
REMARK    8  A    between atoms: S1_15  and  C9_16 
REMARK    9  A    between atoms: C12_21  and  N3_22 
REMARK   10  A    between atoms: C15_29  and  O5_30 
REMARK   11  A    between atoms: N8_38  and  C17_39 
REMARK   12  A    between atoms: C18_45  and  N11_46 
ROOT
HETATM    1  C9  UNL     1       3.445 -23.050 -29.916  1.00  0.00     0.169 A 
HETATM    2  N2  UNL     1       4.217 -23.903 -30.547  1.00  0.00    -0.332 N 
ATOM      3  H2  UNL     1       4.805 -24.524 -29.991  1.00  0.00     0.168 HD
HETATM    4  C10 UNL     1       4.280 -24.008 -31.959  1.00  0.00     0.085 A 
HETATM    5  C11 UNL     1       3.479 -23.156 -32.701  1.00  0.00     0.120 A 
HETATM    6  C12 UNL     1       3.547 -23.268 -34.071  1.00  0.00     0.131 A 
HETATM    7  N4  UNL     1       4.375 -24.185 -34.663  1.00  0.00    -0.325 N 
ATOM      8  H4  UNL     1       4.398 -24.239 -35.681  1.00  0.00     0.169 HD
HETATM    9  C13 UNL     1       5.155 -25.015 -33.957  1.00  0.00     0.140 A 
HETATM   10  C14 UNL     1       5.106 -24.923 -32.583  1.00  0.00     0.091 A 
HETATM   11  C15 UNL     1       5.993 -25.876 -32.125  1.00  0.00     0.171 A 
HETATM   12  N5  UNL     1       6.526 -26.488 -33.212  1.00  0.00    -0.276 N 
ATOM     13  H5  UNL     1       7.216 -27.239 -33.173  1.00  0.00     0.189 HD
HETATM   14  N6  UNL     1       6.033 -25.982 -34.329  1.00  0.00    -0.278 N 
HETATM   15  C16 UNL     1       6.370 -26.392 -35.701  1.00  0.00     0.179 C 
HETATM   16  N7  UNL     1       2.636 -22.224 -32.023  1.00  0.00    -0.284 N 
ATOM     17  H7  UNL     1       2.046 -21.597 -32.570  1.00  0.00     0.188 HD
HETATM   18  N8  UNL     1       2.600 -22.150 -30.617  1.00  0.00    -0.211 N 
ENDROOT
BRANCH   1  19
HETATM   19  S1  UNL     1       3.436 -22.995 -28.131  1.00  0.00    -0.082 SA
BRANCH  19  20
HETATM   20  C8  UNL     1       5.066 -22.484 -27.539  1.00  0.00     0.193 C 
BRANCH  20  21
HETATM   21  C7  UNL     1       5.935 -23.692 -27.434  1.00  0.00     0.271 C 
HETATM   22  O4  UNL     1       5.935 -24.340 -26.351  1.00  0.00    -0.264 OA
BRANCH  21  23
HETATM   23  O3  UNL     1       6.741 -24.147 -28.445  1.00  0.00    -0.281 OA
BRANCH  23  24
HETATM   24  C2  UNL     1       8.142 -23.805 -28.460  1.00  0.00     0.184 C 
HETATM   25  C3  UNL     1       8.402 -23.266 -29.880  1.00  0.00     0.081 C 
BRANCH  24  26
HETATM   26  O1  UNL     1       8.429 -22.811 -27.604  1.00  0.00    -0.358 OA
HETATM   27  C1  UNL     1       9.528 -22.769 -26.843  1.00  0.00     0.205 C 
ENDBRANCH  24  26
BRANCH  24  28
HETATM   28  C4  UNL     1       8.910 -25.076 -28.378  1.00  0.00     0.191 C 
BRANCH  28  29
HETATM   29  N1  UNL     1       8.375 -26.230 -28.989  1.00  0.00    -0.356 N 
HETATM   30  C5  UNL     1       8.169 -27.380 -28.142  1.00  0.00     0.213 C 
HETATM   31  C6  UNL     1       7.618 -28.653 -28.629  1.00  0.00     0.117 C 
HETATM   32  O2  UNL     1       8.472 -27.315 -26.909  1.00  0.00    -0.274 OA
ATOM     33  H1  UNL     1       8.145 -26.250 -29.982  1.00  0.00     0.162 HD
ENDBRANCH  28  29
ENDBRANCH  24  28
ENDBRANCH  23  24
ENDBRANCH  21  23
ENDBRANCH  20  21
ENDBRANCH  19  20
ENDBRANCH   1  19
BRANCH  18  34
HETATM   34  C17 UNL     1       1.749 -21.216 -29.955  1.00  0.00     0.197 A 
HETATM   35  N9  UNL     1       0.496 -21.344 -29.501  1.00  0.00    -0.220 N 
HETATM   36  O6  UNL     1       0.123 -20.217 -28.967  1.00  0.00    -0.153 OA
ATOM     37  H9  UNL     1      -0.074 -22.188 -29.563  1.00  0.00     0.198 HD
HETATM   38  N10 UNL     1       1.060 -19.339 -29.038  1.00  0.00    -0.222 N 
HETATM   39  C18 UNL     1       2.095 -19.903 -29.643  1.00  0.00     0.169 A 
ATOM     40  H10 UNL     1       1.014 -18.381 -28.691  1.00  0.00     0.198 HD
BRANCH  39  41
HETATM   41  N11 UNL     1       3.252 -19.399 -29.931  1.00  0.00    -0.381 N 
ATOM     42 2H11 UNL     1       3.747 -19.384 -30.823  1.00  0.00     0.157 HD
ATOM     43 1H11 UNL     1       3.833 -18.926 -29.239  1.00  0.00     0.157 HD
ENDBRANCH  39  41
ENDBRANCH  18  34
BRANCH   6  44
HETATM   44  N3  UNL     1       2.831 -22.507 -34.801  1.00  0.00    -0.383 N 
ATOM     45  H32 UNL     1       2.613 -21.564 -34.478  1.00  0.00     0.157 HD
ATOM     46  H31 UNL     1       2.484 -22.849 -35.697  1.00  0.00     0.157 HD
ENDBRANCH   6  44
BRANCH  11  47
HETATM   47  O5  UNL     1       6.238 -26.106 -30.796  1.00  0.00    -0.344 OA
ATOM     48  H5  UNL     1       6.994 -26.586 -30.478  1.00  0.00     0.219 HD
ENDBRANCH  11  47
TORSDOF 12
ENDMDL
MODEL 3
REMARK VINA RESULT: -9.235971330      2.362      9.331
REMARK  12 active torsions:
REMARK  status: ('A' for Active; 'I' for Inactive)
REMARK    1  A    between atoms: O1_2  and  C2_3 
REMARK    2  A    between atoms: C2_3  and  C4_5 
REMARK    3  A    between atoms: C2_3  and  O3_11 
REMARK    4  A    between atoms: C4_5  and  N1_6 
REMARK       I    between atoms: N1_6  and  C5_8 
REMARK    5  A    between atoms: O3_11  and  C7_12 
REMARK    6  A    between atoms: C7_12  and  C8_14 
REMARK    7  A    between atoms: C8_14  and  S1_15 
REMARK    8  A    between atoms: S1_15  and  C9_16 
REMARK    9  A    between atoms: C12_21  and  N3_22 
REMARK   10  A    between atoms: C15_29  and  O5_30 
REMARK   11  A    between atoms: N8_38  and  C17_39 
REMARK   12  A    between atoms: C18_45  and  N11_46 
ROOT
HETATM    1  C9  UNL     1       3.866 -23.415 -30.120  1.00  0.00     0.169 A 
HETATM    2  N2  UNL     1       4.784 -23.742 -29.242  1.00  0.00    -0.332 N 
ATOM      3  H2  UNL     1       4.532 -23.730 -28.253  1.00  0.00     0.168 HD
HETATM    4  C10 UNL     1       6.108 -24.110 -29.591  1.00  0.00     0.085 A 
HETATM    5  C11 UNL     1       6.436 -24.119 -30.937  1.00  0.00     0.120 A 
HETATM    6  C12 UNL     1       7.723 -24.479 -31.264  1.00  0.00     0.131 A 
HETATM    7  N4  UNL     1       8.631 -24.812 -30.293  1.00  0.00    -0.325 N 
ATOM      8  H4  UNL     1       9.575 -25.074 -30.575  1.00  0.00     0.169 HD
HETATM    9  C13 UNL     1       8.326 -24.808 -28.988  1.00  0.00     0.140 A 
HETATM   10  C14 UNL     1       7.043 -24.450 -28.634  1.00  0.00     0.091 A 
HETATM   11  C15 UNL     1       7.013 -24.533 -27.257  1.00  0.00     0.171 A 
HETATM   12  N5  UNL     1       8.245 -24.927 -26.847  1.00  0.00    -0.276 N 
ATOM     13  H5  UNL     1       8.513 -25.072 -25.873  1.00  0.00     0.189 HD
HETATM   14  N6  UNL     1       9.053 -25.098 -27.879  1.00  0.00    -0.278 N 
HETATM   15  C16 UNL     1      10.461 -25.523 -27.830  1.00  0.00     0.179 C 
HETATM   16  N7  UNL     1       5.443 -23.763 -31.899  1.00  0.00    -0.284 N 
ATOM     17  H7  UNL     1       5.685 -23.769 -32.890  1.00  0.00     0.188 HD
HETATM   18  N8  UNL     1       4.137 -23.404 -31.513  1.00  0.00    -0.211 N 
ENDROOT
BRANCH   1  19
HETATM   19  S1  UNL     1       2.224 -22.966 -29.579  1.00  0.00    -0.082 SA
BRANCH  19  20
HETATM   20  C8  UNL     1       2.220 -21.240 -29.041  1.00  0.00     0.193 C 
BRANCH  20  21
HETATM   21  C7  UNL     1       1.327 -20.460 -29.947  1.00  0.00     0.271 C 
HETATM   22  O4  UNL     1       1.041 -19.273 -29.631  1.00  0.00    -0.264 OA
BRANCH  21  23
HETATM   23  O3  UNL     1       0.793 -20.954 -31.108  1.00  0.00    -0.281 OA
BRANCH  23  24
HETATM   24  C2  UNL     1      -0.635 -21.113 -31.235  1.00  0.00     0.184 C 
HETATM   25  C3  UNL     1      -0.852 -22.631 -31.379  1.00  0.00     0.081 C 
BRANCH  24  26
HETATM   26  O1  UNL     1      -1.287 -20.725 -30.127  1.00  0.00    -0.358 OA
HETATM   27  C1  UNL     1      -2.410 -19.999 -30.132  1.00  0.00     0.205 C 
ENDBRANCH  24  26
BRANCH  24  28
HETATM   28  C4  UNL     1      -1.031 -20.536 -32.547  1.00  0.00     0.191 C 
BRANCH  28  29
HETATM   29  N1  UNL     1      -1.435 -21.413 -33.577  1.00  0.00    -0.356 N 
HETATM   30  C5  UNL     1      -2.785 -21.263 -34.068  1.00  0.00     0.213 C 
HETATM   31  C6  UNL     1      -3.352 -22.097 -35.138  1.00  0.00     0.117 C 
HETATM   32  O2  UNL     1      -3.540 -20.372 -33.566  1.00  0.00    -0.274 OA
ATOM     33  H1  UNL     1      -0.805 -22.118 -33.956  1.00  0.00     0.162 HD
ENDBRANCH  28  29
ENDBRANCH  24  28
ENDBRANCH  23  24
ENDBRANCH  21  23
ENDBRANCH  20  21
ENDBRANCH  19  20
ENDBRANCH   1  19
BRANCH  18  34
HETATM   34  C17 UNL     1       3.155 -23.055 -32.488  1.00  0.00     0.197 A 
HETATM   35  N9  UNL     1       2.829 -21.868 -33.014  1.00  0.00    -0.220 N 
HETATM   36  O6  UNL     1       1.864 -22.037 -33.870  1.00  0.00    -0.153 OA
ATOM     37  H9  UNL     1       3.267 -20.976 -32.782  1.00  0.00     0.198 HD
HETATM   38  N10 UNL     1       1.525 -23.275 -33.947  1.00  0.00    -0.222 N 
HETATM   39  C18 UNL     1       2.293 -23.955 -33.110  1.00  0.00     0.169 A 
ATOM     40  H10 UNL     1       0.796 -23.663 -34.545  1.00  0.00     0.198 HD
BRANCH  39  41
HETATM   41  N11 UNL     1       2.307 -25.224 -32.855  1.00  0.00    -0.381 N 
ATOM     42 2H11 UNL     1       2.982 -25.934 -33.140  1.00  0.00     0.157 HD
ATOM     43 1H11 UNL     1       1.585 -25.681 -32.297  1.00  0.00     0.157 HD
ENDBRANCH  39  41
ENDBRANCH  18  34
BRANCH   6  44
HETATM   44  N3  UNL     1       8.077 -24.501 -32.488  1.00  0.00    -0.383 N 
ATOM     45  H32 UNL     1       7.589 -23.913 -33.163  1.00  0.00     0.157 HD
ATOM     46  H31 UNL     1       8.844 -25.108 -32.779  1.00  0.00     0.157 HD
ENDBRANCH   6  44
BRANCH  11  47
HETATM   47  O5  UNL     1       5.902 -24.252 -26.505  1.00  0.00    -0.344 OA
ATOM     48  H5  UNL     1       5.045 -24.084 -26.879  1.00  0.00     0.219 HD
ENDBRANCH  11  47
TORSDOF 12
ENDMDL
MODEL 4
REMARK VINA RESULT: -9.173757349      1.356      2.629
REMARK  12 active torsions:
REMARK  status: ('A' for Active; 'I' for Inactive)
REMARK    1  A    between atoms: O1_2  and  C2_3 
REMARK    2  A    between atoms: C2_3  and  C4_5 
REMARK    3  A    between atoms: C2_3  and  O3_11 
REMARK    4  A    between atoms: C4_5  and  N1_6 
REMARK       I    between atoms: N1_6  and  C5_8 
REMARK    5  A    between atoms: O3_11  and  C7_12 
REMARK    6  A    between atoms: C7_12  and  C8_14 
REMARK    7  A    between atoms: C8_14  and  S1_15 
REMARK    8  A    between atoms: S1_15  and  C9_16 
REMARK    9  A    between atoms: C12_21  and  N3_22 
REMARK   10  A    between atoms: C15_29  and  O5_30 
REMARK   11  A    between atoms: N8_38  and  C17_39 
REMARK   12  A    between atoms: C18_45  and  N11_46 
ROOT
HETATM    1  C9  UNL     1       4.075 -23.479 -30.014  1.00  0.00     0.169 A 
HETATM    2  N2  UNL     1       2.885 -22.925 -30.027  1.00  0.00    -0.332 N 
ATOM      3  H2  UNL     1       2.401 -22.802 -29.137  1.00  0.00     0.168 HD
HETATM    4  C10 UNL     1       2.236 -22.490 -31.209  1.00  0.00     0.085 A 
HETATM    5  C11 UNL     1       2.904 -22.666 -32.409  1.00  0.00     0.120 A 
HETATM    6  C12 UNL     1       2.264 -22.238 -33.549  1.00  0.00     0.131 A 
HETATM    7  N4  UNL     1       1.021 -21.665 -33.488  1.00  0.00    -0.325 N 
ATOM      8  H4  UNL     1       0.579 -21.360 -34.355  1.00  0.00     0.169 HD
HETATM    9  C13 UNL     1       0.364 -21.489 -32.334  1.00  0.00     0.140 A 
HETATM   10  C14 UNL     1       0.983 -21.909 -31.176  1.00  0.00     0.091 A 
HETATM   11  C15 UNL     1       0.095 -21.609 -30.163  1.00  0.00     0.171 A 
HETATM   12  N5  UNL     1      -0.993 -21.035 -30.734  1.00  0.00    -0.276 N 
ATOM     13  H5  UNL     1      -1.812 -20.709 -30.221  1.00  0.00     0.189 HD
HETATM   14  N6  UNL     1      -0.850 -20.953 -32.046  1.00  0.00    -0.278 N 
HETATM   15  C16 UNL     1      -1.818 -20.389 -33.000  1.00  0.00     0.179 C 
HETATM   16  N7  UNL     1       4.198 -23.268 -32.405  1.00  0.00    -0.284 N 
ATOM     17  H7  UNL     1       4.690 -23.397 -33.289  1.00  0.00     0.188 HD
HETATM   18  N8  UNL     1       4.812 -23.687 -31.208  1.00  0.00    -0.211 N 
ENDROOT
BRANCH   1  19
HETATM   19  S1  UNL     1       4.810 -23.994 -28.470  1.00  0.00    -0.082 SA
BRANCH  19  20
HETATM   20  C8  UNL     1       4.934 -22.573 -27.361  1.00  0.00     0.193 C 
BRANCH  20  21
HETATM   21  C7  UNL     1       6.373 -22.339 -27.043  1.00  0.00     0.271 C 
HETATM   22  O4  UNL     1       6.660 -21.675 -26.010  1.00  0.00    -0.264 OA
BRANCH  21  23
HETATM   23  O3  UNL     1       7.412 -22.803 -27.809  1.00  0.00    -0.281 OA
BRANCH  23  24
HETATM   24  C2  UNL     1       8.563 -23.398 -27.176  1.00  0.00     0.184 C 
HETATM   25  C3  UNL     1       9.640 -23.441 -28.277  1.00  0.00     0.081 C 
BRANCH  24  26
HETATM   26  O1  UNL     1       9.046 -22.635 -26.183  1.00  0.00    -0.358 OA
HETATM   27  C1  UNL     1      10.332 -22.288 -26.060  1.00  0.00     0.205 C 
ENDBRANCH  24  26
BRANCH  24  28
HETATM   28  C4  UNL     1       8.231 -24.822 -26.900  1.00  0.00     0.191 C 
BRANCH  28  29
HETATM   29  N1  UNL     1       8.048 -25.697 -27.992  1.00  0.00    -0.356 N 
HETATM   30  C5  UNL     1       8.530 -27.049 -27.832  1.00  0.00     0.213 C 
HETATM   31  C6  UNL     1       8.410 -28.077 -28.875  1.00  0.00     0.117 C 
HETATM   32  O2  UNL     1       9.089 -27.391 -26.743  1.00  0.00    -0.274 OA
ATOM     33  H1  UNL     1       7.596 -25.390 -28.852  1.00  0.00     0.162 HD
ENDBRANCH  28  29
ENDBRANCH  24  28
ENDBRANCH  23  24
ENDBRANCH  21  23
ENDBRANCH  20  21
ENDBRANCH  19  20
ENDBRANCH   1  19
BRANCH  18  34
HETATM   34  C17 UNL     1       6.109 -24.284 -31.221  1.00  0.00     0.197 A 
HETATM   35  N9  UNL     1       7.312 -23.765 -30.948  1.00  0.00    -0.220 N 
HETATM   36  O6  UNL     1       8.215 -24.690 -31.097  1.00  0.00    -0.153 OA
ATOM     37  H9  UNL     1       7.492 -22.801 -30.668  1.00  0.00     0.198 HD
HETATM   38  N10 UNL     1       7.681 -25.803 -31.456  1.00  0.00    -0.222 N 
HETATM   39  C18 UNL     1       6.373 -25.611 -31.550  1.00  0.00     0.169 A 
ATOM     40  H10 UNL     1       8.174 -26.677 -31.636  1.00  0.00     0.198 HD
BRANCH  39  41
HETATM   41  N11 UNL     1       5.442 -26.448 -31.880  1.00  0.00    -0.381 N 
ATOM     42 2H11 UNL     1       5.167 -26.777 -32.805  1.00  0.00     0.157 HD
ATOM     43 1H11 UNL     1       4.840 -26.900 -31.191  1.00  0.00     0.157 HD
ENDBRANCH  39  41
ENDBRANCH  18  34
BRANCH   6  44
HETATM   44  N3  UNL     1       2.835 -22.378 -34.681  1.00  0.00    -0.383 N 
ATOM     45  H32 UNL     1       3.101 -23.311 -34.996  1.00  0.00     0.157 HD
ATOM     46  H31 UNL     1       3.020 -21.556 -35.257  1.00  0.00     0.157 HD
ENDBRANCH   6  44
BRANCH  11  47
HETATM   47  O5  UNL     1       0.339 -21.873 -28.840  1.00  0.00    -0.344 OA
ATOM     48  H5  UNL     1      -0.341 -21.896 -28.176  1.00  0.00     0.219 HD
ENDBRANCH  11  47
TORSDOF 12
ENDMDL
MODEL 5
REMARK VINA RESULT: -9.134849352      1.552      1.975
REMARK  12 active torsions:
REMARK  status: ('A' for Active; 'I' for Inactive)
REMARK    1  A    between atoms: O1_2  and  C2_3 
REMARK    2  A    between atoms: C2_3  and  C4_5 
REMARK    3  A    between atoms: C2_3  and  O3_11 
REMARK    4  A    between atoms: C4_5  and  N1_6 
REMARK       I    between atoms: N1_6  and  C5_8 
REMARK    5  A    between atoms: O3_11  and  C7_12 
REMARK    6  A    between atoms: C7_12  and  C8_14 
REMARK    7  A    between atoms: C8_14  and  S1_15 
REMARK    8  A    between atoms: S1_15  and  C9_16 
REMARK    9  A    between atoms: C12_21  and  N3_22 
REMARK   10  A    between atoms: C15_29  and  O5_30 
REMARK   11  A    between atoms: N8_38  and  C17_39 
REMARK   12  A    between atoms: C18_45  and  N11_46 
ROOT
HETATM    1  C9  UNL     1       2.724 -21.219 -29.405  1.00  0.00     0.169 A 
HETATM    2  N2  UNL     1       1.570 -20.617 -29.235  1.00  0.00    -0.332 N 
ATOM      3  H2  UNL     1       1.383 -20.178 -28.333  1.00  0.00     0.168 HD
HETATM    4  C10 UNL     1       0.569 -20.545 -30.236  1.00  0.00     0.085 A 
HETATM    5  C11 UNL     1       0.835 -21.148 -31.453  1.00  0.00     0.120 A 
HETATM    6  C12 UNL     1      -0.143 -21.070 -32.417  1.00  0.00     0.131 A 
HETATM    7  N4  UNL     1      -1.325 -20.423 -32.172  1.00  0.00    -0.325 N 
ATOM      8  H4  UNL     1      -2.026 -20.386 -32.911  1.00  0.00     0.169 HD
HETATM    9  C13 UNL     1      -1.596 -19.835 -30.998  1.00  0.00     0.140 A 
HETATM   10  C14 UNL     1      -0.632 -19.899 -30.015  1.00  0.00     0.091 A 
HETATM   11  C15 UNL     1      -1.170 -19.224 -28.938  1.00  0.00     0.171 A 
HETATM   12  N5  UNL     1      -2.402 -18.792 -29.305  1.00  0.00    -0.276 N 
ATOM     13  H5  UNL     1      -3.032 -18.260 -28.704  1.00  0.00     0.189 HD
HETATM   14  N6  UNL     1      -2.679 -19.151 -30.547  1.00  0.00    -0.278 N 
HETATM   15  C16 UNL     1      -3.916 -18.862 -31.289  1.00  0.00     0.179 C 
HETATM   16  N7  UNL     1       2.088 -21.805 -31.646  1.00  0.00    -0.284 N 
ATOM     17  H7  UNL     1       2.284 -22.250 -32.543  1.00  0.00     0.188 HD
HETATM   18  N8  UNL     1       3.059 -21.855 -30.628  1.00  0.00    -0.211 N 
ENDROOT
BRANCH   1  19
HETATM   19  S1  UNL     1       3.922 -21.254 -28.081  1.00  0.00    -0.082 SA
BRANCH  19  20
HETATM   20  C8  UNL     1       4.356 -22.969 -27.710  1.00  0.00     0.193 C 
BRANCH  20  21
HETATM   21  C7  UNL     1       5.578 -22.978 -26.854  1.00  0.00     0.271 C 
HETATM   22  O4  UNL     1       5.949 -21.894 -26.326  1.00  0.00    -0.264 OA
BRANCH  21  23
HETATM   23  O3  UNL     1       6.330 -24.096 -26.602  1.00  0.00    -0.281 OA
BRANCH  23  24
HETATM   24  C2  UNL     1       7.430 -24.436 -27.471  1.00  0.00     0.184 C 
HETATM   25  C3  UNL     1       8.229 -25.501 -26.698  1.00  0.00     0.081 C 
BRANCH  24  26
HETATM   26  O1  UNL     1       7.015 -25.007 -28.613  1.00  0.00    -0.358 OA
HETATM   27  C1  UNL     1       7.445 -26.193 -29.059  1.00  0.00     0.205 C 
ENDBRANCH  24  26
BRANCH  24  28
HETATM   28  C4  UNL     1       8.324 -23.249 -27.538  1.00  0.00     0.191 C 
BRANCH  28  29
HETATM   29  N1  UNL     1       9.636 -23.361 -27.031  1.00  0.00    -0.356 N 
HETATM   30  C5  UNL     1      10.002 -22.460 -25.964  1.00  0.00     0.213 C 
HETATM   31  C6  UNL     1      11.329 -22.456 -25.331  1.00  0.00     0.117 C 
HETATM   32  O2  UNL     1       9.152 -21.619 -25.533  1.00  0.00    -0.274 OA
ATOM     33  H1  UNL     1      10.295 -24.046 -27.401  1.00  0.00     0.162 HD
ENDBRANCH  28  29
ENDBRANCH  24  28
ENDBRANCH  23  24
ENDBRANCH  21  23
ENDBRANCH  20  21
ENDBRANCH  19  20
ENDBRANCH   1  19
BRANCH  18  34
HETATM   34  C17 UNL     1       4.309 -22.513 -30.839  1.00  0.00     0.197 A 
HETATM   35  N9  UNL     1       5.563 -22.054 -30.753  1.00  0.00    -0.220 N 
HETATM   36  O6  UNL     1       6.386 -23.021 -31.039  1.00  0.00    -0.153 OA
ATOM     37  H9  UNL     1       5.830 -21.101 -30.505  1.00  0.00     0.198 HD
HETATM   38  N10 UNL     1       5.751 -24.104 -31.311  1.00  0.00    -0.222 N 
HETATM   39  C18 UNL     1       4.455 -23.849 -31.203  1.00  0.00     0.169 A 
ATOM     40  H10 UNL     1       6.168 -25.000 -31.563  1.00  0.00     0.198 HD
BRANCH  39  41
HETATM   41  N11 UNL     1       3.445 -24.638 -31.385  1.00  0.00    -0.381 N 
ATOM     42 2H11 UNL     1       2.512 -24.599 -30.974  1.00  0.00     0.157 HD
ATOM     43 1H11 UNL     1       3.481 -25.444 -32.010  1.00  0.00     0.157 HD
ENDBRANCH  39  41
ENDBRANCH  18  34
BRANCH   6  44
HETATM   44  N3  UNL     1       0.051 -21.610 -33.556  1.00  0.00    -0.383 N 
ATOM     45  H32 UNL     1       0.986 -21.600 -33.962  1.00  0.00     0.157 HD
ATOM     46  H31 UNL     1      -0.730 -22.045 -34.047  1.00  0.00     0.157 HD
ENDBRANCH   6  44
BRANCH  11  47
HETATM   47  O5  UNL     1      -0.517 -19.060 -27.744  1.00  0.00    -0.344 OA
ATOM     48  H5  UNL     1      -0.908 -19.256 -26.901  1.00  0.00     0.219 HD
ENDBRANCH  11  47
TORSDOF 12
ENDMDL
