MODEL 1
REMARK VINA RESULT: -4.717607234      0.000      0.000
REMARK  5 active torsions:
REMARK  status: ('A' for Active; 'I' for Inactive)
REMARK    1  A    between atoms: N1_1  and  N2_4 
REMARK    2  A    between atoms: N2_4  and  N3_5 
REMARK    3  A    between atoms: N3_5  and  C1_7 
REMARK    4  A    between atoms: C3_9  and  S1_10 
REMARK    5  A    between atoms: S1_10  and  N4_11 
ROOT
HETATM    1  C1  UNL     1     -33.520   7.615   6.587  1.00  0.00     0.251 C 
HETATM    2  C2  UNL     1     -33.455   8.507   7.795  1.00  0.00     0.080 C 
HETATM    3  C3  UNL     1     -34.904   8.642   8.192  1.00  0.00     0.157 C 
HETATM    4  C4  UNL     1     -35.667   7.981   7.095  1.00  0.00     0.192 C 
HETATM    5  O3  UNL     1     -34.785   7.695   6.064  1.00  0.00    -0.363 OA
ENDROOT
BRANCH   1   6
HETATM    6  N3  UNL     1     -32.595   8.074   5.540  1.00  0.00    -0.223 N 
ATOM      7  H3  UNL     1     -31.590   8.116   5.707  1.00  0.00     0.200 HD
BRANCH   6   8
HETATM    8  N2  UNL     1     -33.081   8.410   4.441  1.00  0.00    -0.246 NA
BRANCH   8   9
HETATM    9  N1  UNL     1     -33.690   8.802   3.456  1.00  0.00    -0.261 N 
ATOM     10  H12 UNL     1     -32.863   9.367   3.257  1.00  0.00     0.193 HD
ATOM     11  H11 UNL     1     -34.304   9.043   2.677  1.00  0.00     0.193 HD
ENDBRANCH   8   9
ENDBRANCH   6   8
ENDBRANCH   1   6
BRANCH   3  12
HETATM   12  S1  UNL     1     -35.244   7.794   9.711  1.00  0.00     0.230 S 
HETATM   13  O1  UNL     1     -35.759   6.423   9.385  1.00  0.00    -0.206 OA
HETATM   14  O2  UNL     1     -33.964   7.734  10.497  1.00  0.00    -0.206 OA
BRANCH  12  15
HETATM   15  N4  UNL     1     -36.436   8.595  10.647  1.00  0.00    -0.328 N 
ATOM     16  H42 UNL     1     -37.173   9.169  10.237  1.00  0.00     0.168 HD
ATOM     17  H41 UNL     1     -36.318   8.429  11.647  1.00  0.00     0.168 HD
ENDBRANCH  12  15
ENDBRANCH   3  12
TORSDOF 5
ENDMDL
MODEL 2
REMARK VINA RESULT: -4.567030853     11.388     12.379
REMARK  5 active torsions:
REMARK  status: ('A' for Active; 'I' for Inactive)
REMARK    1  A    between atoms: N1_1  and  N2_4 
REMARK    2  A    between atoms: N2_4  and  N3_5 
REMARK    3  A    between atoms: N3_5  and  C1_7 
REMARK    4  A    between atoms: C3_9  and  S1_10 
REMARK    5  A    between atoms: S1_10  and  N4_11 
ROOT
HETATM    1  C1  UNL     1     -34.098   9.110  19.943  1.00  0.00     0.251 C 
HETATM    2  C2  UNL     1     -35.095   7.996  20.095  1.00  0.00     0.080 C 
HETATM    3  C3  UNL     1     -35.073   7.336  18.738  1.00  0.00     0.157 C 
HETATM    4  C4  UNL     1     -34.221   8.221  17.894  1.00  0.00     0.192 C 
HETATM    5  O3  UNL     1     -33.963   9.383  18.606  1.00  0.00    -0.363 OA
ENDROOT
BRANCH   1   6
HETATM    6  N3  UNL     1     -34.579  10.342  20.584  1.00  0.00    -0.223 N 
ATOM      7  H3  UNL     1     -35.098  10.312  21.462  1.00  0.00     0.200 HD
BRANCH   6   8
HETATM    8  N2  UNL     1     -34.332  11.427  20.018  1.00  0.00    -0.246 NA
BRANCH   8   9
HETATM    9  N1  UNL     1     -34.261  12.515  19.465  1.00  0.00    -0.261 N 
ATOM     10  H12 UNL     1     -34.624  12.903  20.336  1.00  0.00     0.193 HD
ATOM     11  H11 UNL     1     -34.151  13.350  18.889  1.00  0.00     0.193 HD
ENDBRANCH   8   9
ENDBRANCH   6   8
ENDBRANCH   1   6
BRANCH   3  12
HETATM   12  S1  UNL     1     -34.327   5.729  18.809  1.00  0.00     0.230 S 
HETATM   13  O1  UNL     1     -34.962   4.960  19.931  1.00  0.00    -0.206 OA
HETATM   14  O2  UNL     1     -34.551   5.063  17.481  1.00  0.00    -0.206 OA
BRANCH  12  15
HETATM   15  N4  UNL     1     -32.642   5.812  19.116  1.00  0.00    -0.328 N 
ATOM     16  H42 UNL     1     -32.246   6.293  19.924  1.00  0.00     0.168 HD
ATOM     17  H41 UNL     1     -32.097   5.329  18.402  1.00  0.00     0.168 HD
ENDBRANCH  12  15
ENDBRANCH   3  12
TORSDOF 5
ENDMDL
MODEL 3
REMARK VINA RESULT: -4.547950431      4.318      5.333
REMARK  5 active torsions:
REMARK  status: ('A' for Active; 'I' for Inactive)
REMARK    1  A    between atoms: N1_1  and  N2_4 
REMARK    2  A    between atoms: N2_4  and  N3_5 
REMARK    3  A    between atoms: N3_5  and  C1_7 
REMARK    4  A    between atoms: C3_9  and  S1_10 
REMARK    5  A    between atoms: S1_10  and  N4_11 
ROOT
HETATM    1  C1  UNL     1     -34.952   6.893  10.900  1.00  0.00     0.251 C 
HETATM    2  C2  UNL     1     -35.255   7.643  12.166  1.00  0.00     0.080 C 
HETATM    3  C3  UNL     1     -35.546   6.538  13.151  1.00  0.00     0.157 C 
HETATM    4  C4  UNL     1     -35.561   5.291  12.335  1.00  0.00     0.192 C 
HETATM    5  O3  UNL     1     -35.515   5.647  10.995  1.00  0.00    -0.363 OA
ENDROOT
BRANCH   1   6
HETATM    6  N3  UNL     1     -35.564   7.550   9.735  1.00  0.00    -0.223 N 
ATOM      7  H3  UNL     1     -35.555   8.565   9.637  1.00  0.00     0.200 HD
BRANCH   6   8
HETATM    8  N2  UNL     1     -36.097   6.824   8.871  1.00  0.00    -0.246 NA
BRANCH   8   9
HETATM    9  N1  UNL     1     -36.721   6.057   8.152  1.00  0.00    -0.261 N 
ATOM     10  H12 UNL     1     -35.886   6.042   7.565  1.00  0.00     0.193 HD
ATOM     11  H11 UNL     1     -37.348   5.431   7.646  1.00  0.00     0.193 HD
ENDBRANCH   8   9
ENDBRANCH   6   8
ENDBRANCH   1   6
BRANCH   3  12
HETATM   12  S1  UNL     1     -34.269   6.403  14.372  1.00  0.00     0.230 S 
HETATM   13  O1  UNL     1     -33.171   5.543  13.817  1.00  0.00    -0.206 OA
HETATM   14  O2  UNL     1     -33.785   7.791  14.682  1.00  0.00    -0.206 OA
BRANCH  12  15
HETATM   15  N4  UNL     1     -34.830   5.671  15.817  1.00  0.00    -0.328 N 
ATOM     16  H42 UNL     1     -35.733   5.203  15.890  1.00  0.00     0.168 HD
ATOM     17  H41 UNL     1     -34.159   5.762  16.580  1.00  0.00     0.168 HD
ENDBRANCH  12  15
ENDBRANCH   3  12
TORSDOF 5
ENDMDL
MODEL 4
REMARK VINA RESULT: -4.540582385     11.648     12.745
REMARK  5 active torsions:
REMARK  status: ('A' for Active; 'I' for Inactive)
REMARK    1  A    between atoms: N1_1  and  N2_4 
REMARK    2  A    between atoms: N2_4  and  N3_5 
REMARK    3  A    between atoms: N3_5  and  C1_7 
REMARK    4  A    between atoms: C3_9  and  S1_10 
REMARK    5  A    between atoms: S1_10  and  N4_11 
ROOT
HETATM    1  C1  UNL     1     -33.500   9.401  19.445  1.00  0.00     0.251 C 
HETATM    2  C2  UNL     1     -33.230   8.270  20.396  1.00  0.00     0.080 C 
HETATM    3  C3  UNL     1     -34.383   7.331  20.139  1.00  0.00     0.157 C 
HETATM    4  C4  UNL     1     -35.286   8.076  19.217  1.00  0.00     0.192 C 
HETATM    5  O3  UNL     1     -34.833   9.384  19.127  1.00  0.00    -0.363 OA
ENDROOT
BRANCH   1   6
HETATM    6  N3  UNL     1     -33.229  10.700  20.078  1.00  0.00    -0.223 N 
ATOM      7  H3  UNL     1     -32.285  10.962  20.362  1.00  0.00     0.200 HD
BRANCH   6   8
HETATM    8  N2  UNL     1     -34.193  11.473  20.257  1.00  0.00    -0.246 NA
BRANCH   8   9
HETATM    9  N1  UNL     1     -35.219  12.093  20.498  1.00  0.00    -0.261 N 
ATOM     10  H12 UNL     1     -35.424  11.353  21.170  1.00  0.00     0.193 HD
ATOM     11  H11 UNL     1     -36.029  12.704  20.601  1.00  0.00     0.193 HD
ENDBRANCH   8   9
ENDBRANCH   6   8
ENDBRANCH   1   6
BRANCH   3  12
HETATM   12  S1  UNL     1     -33.846   5.848  19.332  1.00  0.00     0.230 S 
HETATM   13  O1  UNL     1     -32.362   5.718  19.514  1.00  0.00    -0.206 OA
HETATM   14  O2  UNL     1     -34.585   4.696  19.953  1.00  0.00    -0.206 OA
BRANCH  12  15
HETATM   15  N4  UNL     1     -34.168   5.875  17.648  1.00  0.00    -0.328 N 
ATOM     16  H42 UNL     1     -34.811   6.537  17.215  1.00  0.00     0.168 HD
ATOM     17  H41 UNL     1     -33.646   5.157  17.144  1.00  0.00     0.168 HD
ENDBRANCH  12  15
ENDBRANCH   3  12
TORSDOF 5
ENDMDL
MODEL 5
REMARK VINA RESULT: -4.422868032      3.268      5.624
REMARK  5 active torsions:
REMARK  status: ('A' for Active; 'I' for Inactive)
REMARK    1  A    between atoms: N1_1  and  N2_4 
REMARK    2  A    between atoms: N2_4  and  N3_5 
REMARK    3  A    between atoms: N3_5  and  C1_7 
REMARK    4  A    between atoms: C3_9  and  S1_10 
REMARK    5  A    between atoms: S1_10  and  N4_11 
ROOT
HETATM    1  C1  UNL     1     -34.989   6.558  11.193  1.00  0.00     0.251 C 
HETATM    2  C2  UNL     1     -36.256   7.183  10.682  1.00  0.00     0.080 C 
HETATM    3  C3  UNL     1     -35.765   8.099   9.590  1.00  0.00     0.157 C 
HETATM    4  C4  UNL     1     -34.278   8.056   9.693  1.00  0.00     0.192 C 
HETATM    5  O3  UNL     1     -33.943   7.376  10.855  1.00  0.00    -0.363 OA
ENDROOT
BRANCH   1   6
HETATM    6  N3  UNL     1     -34.999   6.464  12.661  1.00  0.00    -0.223 N 
ATOM      7  H3  UNL     1     -35.809   6.765  13.202  1.00  0.00     0.200 HD
BRANCH   6   8
HETATM    8  N2  UNL     1     -33.984   6.004  13.222  1.00  0.00    -0.246 NA
BRANCH   8   9
HETATM    9  N1  UNL     1     -33.096   5.438  13.843  1.00  0.00    -0.261 N 
ATOM     10  H12 UNL     1     -33.054   6.283  14.414  1.00  0.00     0.193 HD
ATOM     11  H11 UNL     1     -32.375   4.856  14.272  1.00  0.00     0.193 HD
ENDBRANCH   8   9
ENDBRANCH   6   8
ENDBRANCH   1   6
BRANCH   3  12
HETATM   12  S1  UNL     1     -36.240   7.513   7.986  1.00  0.00     0.230 S 
HETATM   13  O1  UNL     1     -35.061   7.639   7.066  1.00  0.00    -0.206 OA
HETATM   14  O2  UNL     1     -36.679   6.084   8.134  1.00  0.00    -0.206 OA
BRANCH  12  15
HETATM   15  N4  UNL     1     -37.528   8.427   7.319  1.00  0.00    -0.328 N 
ATOM     16  H42 UNL     1     -37.657   9.422   7.501  1.00  0.00     0.168 HD
ATOM     17  H41 UNL     1     -38.138   7.860   6.729  1.00  0.00     0.168 HD
ENDBRANCH  12  15
ENDBRANCH   3  12
TORSDOF 5
ENDMDL
