MODEL 1
REMARK VINA RESULT: -5.364385436      0.000      0.000
REMARK  3 active torsions:
REMARK  status: ('A' for Active; 'I' for Inactive)
REMARK    1  A    between atoms: C2_2  and  C4_4 
REMARK    2  A    between atoms: C4_4  and  N4_11 
REMARK    3  A    between atoms: N1_5  and  N2_7 
ROOT
HETATM    1  N2  UNL     1     -34.449   8.548  16.627  1.00  0.00    -0.235 N 
ATOM      2  H2  UNL     1     -35.431   8.557  16.351  1.00  0.00     0.199 HD
HETATM    3  C5  UNL     1     -33.539   7.773  15.917  1.00  0.00     0.197 C 
HETATM    4  N3  UNL     1     -32.768   7.130  15.317  1.00  0.00    -0.170 NA
ENDROOT
BRANCH   1   5
HETATM    5  N1  UNL     1     -34.035   9.294  17.688  1.00  0.00    -0.276 N 
HETATM    6  C4  UNL     1     -33.921   8.955  18.900  1.00  0.00     0.123 C 
ATOM      7  H1  UNL     1     -33.783  10.259  17.476  1.00  0.00     0.189 HD
BRANCH   6   8
HETATM    8  C2  UNL     1     -33.450   9.960  19.846  1.00  0.00    -0.026 C 
HETATM    9  C1  UNL     1     -32.377   9.771  20.576  1.00  0.00     0.022 C 
HETATM   10  C3  UNL     1     -34.199  11.259  20.007  1.00  0.00     0.051 C 
ENDBRANCH   6   8
BRANCH   6  11
HETATM   11  N4  UNL     1     -34.218   7.662  19.410  1.00  0.00    -0.362 N 
HETATM   12  C6  UNL     1     -33.212   6.624  19.573  1.00  0.00     0.150 C 
HETATM   13  C7  UNL     1     -33.864   5.338  19.050  1.00  0.00     0.187 C 
HETATM   14  O1  UNL     1     -34.949   4.974  19.806  1.00  0.00    -0.388 OA
HETATM   15  C8  UNL     1     -35.457   5.994  20.584  1.00  0.00     0.187 C 
HETATM   16  C9  UNL     1     -35.576   7.293  19.807  1.00  0.00     0.150 C 
ENDBRANCH   6  11
ENDBRANCH   1   5
TORSDOF 3
ENDMDL
MODEL 2
REMARK VINA RESULT: -5.360379927      9.918     11.834
REMARK  3 active torsions:
REMARK  status: ('A' for Active; 'I' for Inactive)
REMARK    1  A    between atoms: C2_2  and  C4_4 
REMARK    2  A    between atoms: C4_4  and  N4_11 
REMARK    3  A    between atoms: N1_5  and  N2_7 
ROOT
HETATM    1  N2  UNL     1     -34.769   8.321   5.220  1.00  0.00    -0.235 N 
ATOM      2  H2  UNL     1     -35.785   8.306   5.129  1.00  0.00     0.199 HD
HETATM    3  C5  UNL     1     -33.974   8.451   4.086  1.00  0.00     0.197 C 
HETATM    4  N3  UNL     1     -33.303   8.571   3.136  1.00  0.00    -0.170 NA
ENDROOT
BRANCH   1   5
HETATM    5  N1  UNL     1     -34.196   8.214   6.451  1.00  0.00    -0.276 N 
HETATM    6  C4  UNL     1     -34.730   8.349   7.588  1.00  0.00     0.123 C 
ATOM      7  H1  UNL     1     -33.200   7.996   6.456  1.00  0.00     0.189 HD
BRANCH   6   8
HETATM    8  C2  UNL     1     -33.881   8.181   8.762  1.00  0.00    -0.026 C 
HETATM    9  C1  UNL     1     -32.584   8.365   8.706  1.00  0.00     0.022 C 
HETATM   10  C3  UNL     1     -34.486   7.786  10.086  1.00  0.00     0.051 C 
ENDBRANCH   6   8
BRANCH   6  11
HETATM   11  N4  UNL     1     -36.101   8.653   7.808  1.00  0.00    -0.362 N 
HETATM   12  C6  UNL     1     -36.582  10.001   8.064  1.00  0.00     0.150 C 
HETATM   13  C7  UNL     1     -37.588   9.864   9.214  1.00  0.00     0.187 C 
HETATM   14  O1  UNL     1     -38.674   9.107   8.853  1.00  0.00    -0.388 OA
HETATM   15  C8  UNL     1     -38.464   8.324   7.736  1.00  0.00     0.187 C 
HETATM   16  C9  UNL     1     -37.126   7.609   7.790  1.00  0.00     0.150 C 
ENDBRANCH   6  11
ENDBRANCH   1   5
TORSDOF 3
ENDMDL
MODEL 3
REMARK VINA RESULT: -5.301719699      9.923     11.891
REMARK  3 active torsions:
REMARK  status: ('A' for Active; 'I' for Inactive)
REMARK    1  A    between atoms: C2_2  and  C4_4 
REMARK    2  A    between atoms: C4_4  and  N4_11 
REMARK    3  A    between atoms: N1_5  and  N2_7 
ROOT
HETATM    1  N2  UNL     1     -34.794   8.292   5.287  1.00  0.00    -0.235 N 
ATOM      2  H2  UNL     1     -35.811   8.242   5.220  1.00  0.00     0.199 HD
HETATM    3  C5  UNL     1     -34.031   8.429   4.133  1.00  0.00     0.197 C 
HETATM    4  N3  UNL     1     -33.385   8.555   3.167  1.00  0.00    -0.170 NA
ENDROOT
BRANCH   1   5
HETATM    5  N1  UNL     1     -34.191   8.224   6.506  1.00  0.00    -0.276 N 
HETATM    6  C4  UNL     1     -34.718   8.251   7.655  1.00  0.00     0.123 C 
ATOM      7  H1  UNL     1     -33.175   8.141   6.491  1.00  0.00     0.189 HD
BRANCH   6   8
HETATM    8  C2  UNL     1     -33.833   8.161   8.810  1.00  0.00    -0.026 C 
HETATM    9  C1  UNL     1     -32.545   8.383   8.711  1.00  0.00     0.022 C 
HETATM   10  C3  UNL     1     -34.390   7.806  10.166  1.00  0.00     0.051 C 
ENDBRANCH   6   8
BRANCH   6  11
HETATM   11  N4  UNL     1     -36.113   8.362   7.903  1.00  0.00    -0.362 N 
HETATM   12  C6  UNL     1     -37.007   7.215   7.929  1.00  0.00     0.150 C 
HETATM   13  C7  UNL     1     -38.252   7.648   7.145  1.00  0.00     0.187 C 
HETATM   14  O1  UNL     1     -38.904   8.686   7.760  1.00  0.00    -0.388 OA
HETATM   15  C8  UNL     1     -38.133   9.365   8.681  1.00  0.00     0.187 C 
HETATM   16  C9  UNL     1     -36.742   9.659   8.149  1.00  0.00     0.150 C 
ENDBRANCH   6  11
ENDBRANCH   1   5
TORSDOF 3
ENDMDL
MODEL 4
REMARK VINA RESULT: -5.243126564      2.504      3.924
REMARK  3 active torsions:
REMARK  status: ('A' for Active; 'I' for Inactive)
REMARK    1  A    between atoms: C2_2  and  C4_4 
REMARK    2  A    between atoms: C4_4  and  N4_11 
REMARK    3  A    between atoms: N1_5  and  N2_7 
ROOT
HETATM    1  N2  UNL     1     -35.228   5.741  15.569  1.00  0.00    -0.235 N 
ATOM      2  H2  UNL     1     -36.225   5.844  15.380  1.00  0.00     0.199 HD
HETATM    3  C5  UNL     1     -34.317   5.781  14.518  1.00  0.00     0.197 C 
HETATM    4  N3  UNL     1     -33.548   5.824  13.640  1.00  0.00    -0.170 NA
ENDROOT
BRANCH   1   5
HETATM    5  N1  UNL     1     -34.794   5.565  16.847  1.00  0.00    -0.276 N 
HETATM    6  C4  UNL     1     -34.652   6.426  17.762  1.00  0.00     0.123 C 
ATOM      7  H1  UNL     1     -34.551   4.609  17.102  1.00  0.00     0.189 HD
BRANCH   6   8
HETATM    8  C2  UNL     1     -34.164   5.967  19.057  1.00  0.00    -0.026 C 
HETATM    9  C1  UNL     1     -32.904   6.083  19.400  1.00  0.00     0.022 C 
HETATM   10  C3  UNL     1     -35.114   5.338  20.046  1.00  0.00     0.051 C 
ENDBRANCH   6   8
BRANCH   6  11
HETATM   11  N4  UNL     1     -34.933   7.812  17.620  1.00  0.00    -0.362 N 
HETATM   12  C6  UNL     1     -34.014   8.746  16.990  1.00  0.00     0.150 C 
HETATM   13  C7  UNL     1     -34.009   9.987  17.893  1.00  0.00     0.187 C 
HETATM   14  O1  UNL     1     -35.240  10.591  17.931  1.00  0.00    -0.388 OA
HETATM   15  C8  UNL     1     -36.276   9.782  17.510  1.00  0.00     0.187 C 
HETATM   16  C9  UNL     1     -36.185   8.390  18.108  1.00  0.00     0.150 C 
ENDBRANCH   6  11
ENDBRANCH   1   5
TORSDOF 3
ENDMDL
MODEL 5
REMARK VINA RESULT: -5.167029779      5.706      8.298
REMARK  3 active torsions:
REMARK  status: ('A' for Active; 'I' for Inactive)
REMARK    1  A    between atoms: C2_2  and  C4_4 
REMARK    2  A    between atoms: C4_4  and  N4_11 
REMARK    3  A    between atoms: N1_5  and  N2_7 
ROOT
HETATM    1  N2  UNL     1     -34.175   7.973  10.034  1.00  0.00    -0.235 N 
ATOM      2  H2  UNL     1     -34.001   8.454  10.917  1.00  0.00     0.199 HD
HETATM    3  C5  UNL     1     -33.458   8.334   8.898  1.00  0.00     0.197 C 
HETATM    4  N3  UNL     1     -32.851   8.627   7.943  1.00  0.00    -0.170 NA
ENDROOT
BRANCH   1   5
HETATM    5  N1  UNL     1     -35.107   6.982   9.972  1.00  0.00    -0.276 N 
HETATM    6  C4  UNL     1     -35.639   6.335  10.918  1.00  0.00     0.123 C 
ATOM      7  H1  UNL     1     -35.417   6.728   9.035  1.00  0.00     0.189 HD
BRANCH   6   8
HETATM    8  C2  UNL     1     -36.621   5.313  10.574  1.00  0.00    -0.026 C 
HETATM    9  C1  UNL     1     -37.272   5.339   9.436  1.00  0.00     0.022 C 
HETATM   10  C3  UNL     1     -36.913   4.187  11.534  1.00  0.00     0.051 C 
ENDBRANCH   6   8
BRANCH   6  11
HETATM   11  N4  UNL     1     -35.350   6.530  12.296  1.00  0.00    -0.362 N 
HETATM   12  C6  UNL     1     -36.135   7.404  13.153  1.00  0.00     0.150 C 
HETATM   13  C7  UNL     1     -35.111   8.191  13.982  1.00  0.00     0.187 C 
HETATM   14  O1  UNL     1     -34.379   7.368  14.800  1.00  0.00    -0.388 OA
HETATM   15  C8  UNL     1     -34.420   6.037  14.437  1.00  0.00     0.187 C 
HETATM   16  C9  UNL     1     -34.228   5.851  12.943  1.00  0.00     0.150 C 
ENDBRANCH   6  11
ENDBRANCH   1   5
TORSDOF 3
ENDMDL
