MODEL 1
REMARK VINA RESULT: -6.871723876      0.000      0.000
REMARK  11 active torsions:
REMARK  status: ('A' for Active; 'I' for Inactive)
REMARK    1  A    between atoms: C5_5  and  N1_6 
REMARK    2  A    between atoms: C8_9  and  N2_10 
REMARK    3  A    between atoms: N2_10  and  C10_12 
REMARK    4  A    between atoms: C10_12  and  O1_13 
REMARK    5  A    between atoms: C10_12  and  N3_15 
REMARK    6  A    between atoms: C14_19  and  C15_20 
REMARK    7  A    between atoms: C15_20  and  C16_21 
REMARK    8  A    between atoms: C16_21  and  N4_22 
REMARK       I    between atoms: N4_22  and  C17_24 
REMARK    9  A    between atoms: C17_24  and  C18_26 
REMARK   10  A    between atoms: C21_29  and  C22_30 
REMARK   11  A    between atoms: C22_30  and  N5_31 
ROOT
HETATM    1  N3  UNL     1      77.986  65.663  12.542  1.00  0.00    -0.347 N 
HETATM    2  C11 UNL     1      79.081  66.545  12.301  1.00  0.00     0.126 C 
HETATM    3  C12 UNL     1      80.276  65.972  13.070  1.00  0.00     0.020 C 
HETATM    4  C13 UNL     1      80.108  64.441  13.081  1.00  0.00     0.008 C 
HETATM    5  C14 UNL     1      79.545  64.059  11.737  1.00  0.00     0.005 C 
HETATM    6  C25 UNL     1      78.074  64.412  11.703  1.00  0.00     0.131 C 
ENDROOT
BRANCH   1   7
HETATM    7  C10 UNL     1      76.949  65.821  13.443  1.00  0.00     0.217 C 
BRANCH   7   8
HETATM    8  N2  UNL     1      75.713  65.233  13.656  1.00  0.00    -0.347 N 
HETATM    9  C9  UNL     1      74.721  65.411  12.546  1.00  0.00     0.153 C 
BRANCH   8  10
HETATM   10  C8  UNL     1      75.291  64.494  14.797  1.00  0.00     0.090 C 
HETATM   11  C7  UNL     1      74.155  63.533  14.451  1.00  0.00     0.045 C 
HETATM   12  C6  UNL     1      73.737  62.946  15.822  1.00  0.00     0.119 C 
HETATM   13  N1  UNL     1      74.772  62.289  16.436  1.00  0.00    -0.408 N 
HETATM   14  C27 UNL     1      76.034  62.282  15.767  1.00  0.00     0.119 C 
HETATM   15  C26 UNL     1      76.473  63.582  15.187  1.00  0.00     0.045 C 
BRANCH  13  16
HETATM   16  C5  UNL     1      74.798  61.737  17.691  1.00  0.00     0.079 C 
HETATM   17  C4  UNL     1      76.163  61.812  18.319  1.00  0.00     0.025 C 
HETATM   18  C3  UNL     1      76.429  62.976  19.198  1.00  0.00     0.006 C 
HETATM   19  C2  UNL     1      75.335  63.075  20.244  1.00  0.00    -0.019 C 
HETATM   20  C1  UNL     1      75.628  64.095  21.293  1.00  0.00     0.010 C 
HETATM   21  C29 UNL     1      74.072  63.417  19.437  1.00  0.00     0.006 C 
HETATM   22  C28 UNL     1      73.759  62.148  18.681  1.00  0.00     0.025 C 
ENDBRANCH  13  16
ENDBRANCH   8  10
ENDBRANCH   7   8
BRANCH   7  23
HETATM   23  O1  UNL     1      77.212  66.784  14.324  1.00  0.00    -0.333 OA
ATOM     24  H1  UNL     1      78.097  67.119  14.241  1.00  0.00     0.220 HD
ENDBRANCH   7  23
ENDBRANCH   1   7
BRANCH   5  25
HETATM   25  C15 UNL     1      79.765  62.577  11.438  1.00  0.00     0.026 C 
BRANCH  25  26
HETATM   26  C16 UNL     1      80.325  61.931  12.670  1.00  0.00     0.123 C 
BRANCH  26  27
HETATM   27  N4  UNL     1      81.670  61.464  12.557  1.00  0.00    -0.361 N 
HETATM   28  C17 UNL     1      82.587  61.351  13.636  1.00  0.00     0.221 C 
HETATM   29  O2  UNL     1      82.165  61.692  14.771  1.00  0.00    -0.273 OA
ATOM     30  H4  UNL     1      81.997  61.191  11.630  1.00  0.00     0.162 HD
BRANCH  28  31
HETATM   31  C18 UNL     1      83.964  60.869  13.488  1.00  0.00     0.078 C 
HETATM   32  C19 UNL     1      84.149  60.021  12.245  1.00  0.00     0.014 C 
HETATM   33  C20 UNL     1      85.462  59.304  12.247  1.00  0.00     0.007 C 
HETATM   34  C21 UNL     1      86.368  59.960  13.263  1.00  0.00     0.011 C 
HETATM   35  C23 UNL     1      85.831  59.836  14.671  1.00  0.00     0.007 C 
HETATM   36  C24 UNL     1      84.324  59.999  14.668  1.00  0.00     0.014 C 
BRANCH  34  37
HETATM   37  C22 UNL     1      87.755  59.354  13.227  1.00  0.00     0.234 C 
BRANCH  37  38
HETATM   38  N5  UNL     1      88.777  60.285  13.622  1.00  0.00    -0.079 N 
ATOM     39  H53 UNL     1      88.658  60.568  14.595  1.00  0.00     0.274 HD
ATOM     40  H52 UNL     1      89.684  59.823  13.695  1.00  0.00     0.274 HD
ATOM     41  H51 UNL     1      88.828  61.098  13.008  1.00  0.00     0.274 HD
ENDBRANCH  37  38
ENDBRANCH  34  37
ENDBRANCH  28  31
ENDBRANCH  26  27
ENDBRANCH  25  26
ENDBRANCH   5  25
TORSDOF 11
ENDMDL
MODEL 2
REMARK VINA RESULT: -6.764191977      1.140      1.589
REMARK  11 active torsions:
REMARK  status: ('A' for Active; 'I' for Inactive)
REMARK    1  A    between atoms: C5_5  and  N1_6 
REMARK    2  A    between atoms: C8_9  and  N2_10 
REMARK    3  A    between atoms: N2_10  and  C10_12 
REMARK    4  A    between atoms: C10_12  and  O1_13 
REMARK    5  A    between atoms: C10_12  and  N3_15 
REMARK    6  A    between atoms: C14_19  and  C15_20 
REMARK    7  A    between atoms: C15_20  and  C16_21 
REMARK    8  A    between atoms: C16_21  and  N4_22 
REMARK       I    between atoms: N4_22  and  C17_24 
REMARK    9  A    between atoms: C17_24  and  C18_26 
REMARK   10  A    between atoms: C21_29  and  C22_30 
REMARK   11  A    between atoms: C22_30  and  N5_31 
ROOT
HETATM    1  N3  UNL     1      77.337  66.430  11.990  1.00  0.00    -0.347 N 
HETATM    2  C11 UNL     1      78.291  67.356  11.474  1.00  0.00     0.126 C 
HETATM    3  C12 UNL     1      79.589  67.120  12.253  1.00  0.00     0.020 C 
HETATM    4  C13 UNL     1      79.627  65.623  12.614  1.00  0.00     0.008 C 
HETATM    5  C14 UNL     1      79.052  64.880  11.437  1.00  0.00     0.005 C 
HETATM    6  C25 UNL     1      77.547  65.040  11.443  1.00  0.00     0.131 C 
ENDROOT
BRANCH   1   7
HETATM    7  C10 UNL     1      76.335  66.666  12.913  1.00  0.00     0.217 C 
BRANCH   7   8
HETATM    8  N2  UNL     1      75.194  66.007  13.340  1.00  0.00    -0.347 N 
HETATM    9  C9  UNL     1      73.907  66.527  12.775  1.00  0.00     0.153 C 
BRANCH   8  10
HETATM   10  C8  UNL     1      75.116  64.909  14.243  1.00  0.00     0.090 C 
HETATM   11  C7  UNL     1      74.845  63.598  13.505  1.00  0.00     0.045 C 
HETATM   12  C6  UNL     1      74.641  62.568  14.645  1.00  0.00     0.119 C 
HETATM   13  N1  UNL     1      75.749  62.466  15.447  1.00  0.00    -0.408 N 
HETATM   14  C27 UNL     1      76.857  63.317  15.149  1.00  0.00     0.119 C 
HETATM   15  C26 UNL     1      76.526  64.738  14.844  1.00  0.00     0.045 C 
BRANCH  13  16
HETATM   16  C5  UNL     1      75.895  61.737  16.599  1.00  0.00     0.079 C 
HETATM   17  C4  UNL     1      76.771  62.432  17.606  1.00  0.00     0.025 C 
HETATM   18  C3  UNL     1      76.084  63.262  18.625  1.00  0.00     0.006 C 
HETATM   19  C2  UNL     1      75.009  62.437  19.305  1.00  0.00    -0.019 C 
HETATM   20  C1  UNL     1      74.404  63.129  20.480  1.00  0.00     0.010 C 
HETATM   21  C29 UNL     1      73.980  62.169  18.194  1.00  0.00     0.006 C 
HETATM   22  C28 UNL     1      74.675  61.198  17.270  1.00  0.00     0.025 C 
ENDBRANCH  13  16
ENDBRANCH   8  10
ENDBRANCH   7   8
BRANCH   7  23
HETATM   23  O1  UNL     1      76.520  67.823  13.547  1.00  0.00    -0.333 OA
ATOM     24  H1  UNL     1      76.137  67.825  14.416  1.00  0.00     0.220 HD
ENDBRANCH   7  23
ENDBRANCH   1   7
BRANCH   5  25
HETATM   25  C15 UNL     1      79.451  63.406  11.456  1.00  0.00     0.026 C 
BRANCH  25  26
HETATM   26  C16 UNL     1      79.836  63.045  12.860  1.00  0.00     0.123 C 
BRANCH  26  27
HETATM   27  N4  UNL     1      81.059  62.317  12.989  1.00  0.00    -0.361 N 
HETATM   28  C17 UNL     1      81.496  61.664  14.172  1.00  0.00     0.221 C 
HETATM   29  O2  UNL     1      80.736  61.741  15.172  1.00  0.00    -0.273 OA
ATOM     30  H4  UNL     1      81.663  62.262  12.170  1.00  0.00     0.162 HD
BRANCH  28  31
HETATM   31  C18 UNL     1      82.758  60.924  14.276  1.00  0.00     0.078 C 
HETATM   32  C19 UNL     1      83.790  61.656  15.112  1.00  0.00     0.014 C 
HETATM   33  C20 UNL     1      85.150  61.048  14.981  1.00  0.00     0.007 C 
HETATM   34  C21 UNL     1      85.004  59.660  14.400  1.00  0.00     0.011 C 
HETATM   35  C23 UNL     1      84.430  59.685  13.001  1.00  0.00     0.007 C 
HETATM   36  C24 UNL     1      83.356  60.750  12.900  1.00  0.00     0.014 C 
BRANCH  34  37
HETATM   37  C22 UNL     1      86.339  58.946  14.354  1.00  0.00     0.234 C 
BRANCH  37  38
HETATM   38  N5  UNL     1      87.454  59.849  14.446  1.00  0.00    -0.079 N 
ATOM     39  H53 UNL     1      87.180  60.724  14.893  1.00  0.00     0.274 HD
ATOM     40  H52 UNL     1      88.134  59.521  15.131  1.00  0.00     0.274 HD
ATOM     41  H51 UNL     1      87.896  60.021  13.543  1.00  0.00     0.274 HD
ENDBRANCH  37  38
ENDBRANCH  34  37
ENDBRANCH  28  31
ENDBRANCH  26  27
ENDBRANCH  25  26
ENDBRANCH   5  25
TORSDOF 11
ENDMDL
MODEL 3
REMARK VINA RESULT: -6.698741682      1.651      2.331
REMARK  11 active torsions:
REMARK  status: ('A' for Active; 'I' for Inactive)
REMARK    1  A    between atoms: C5_5  and  N1_6 
REMARK    2  A    between atoms: C8_9  and  N2_10 
REMARK    3  A    between atoms: N2_10  and  C10_12 
REMARK    4  A    between atoms: C10_12  and  O1_13 
REMARK    5  A    between atoms: C10_12  and  N3_15 
REMARK    6  A    between atoms: C14_19  and  C15_20 
REMARK    7  A    between atoms: C15_20  and  C16_21 
REMARK    8  A    between atoms: C16_21  and  N4_22 
REMARK       I    between atoms: N4_22  and  C17_24 
REMARK    9  A    between atoms: C17_24  and  C18_26 
REMARK   10  A    between atoms: C21_29  and  C22_30 
REMARK   11  A    between atoms: C22_30  and  N5_31 
ROOT
HETATM    1  N3  UNL     1      76.608  65.859  11.583  1.00  0.00    -0.347 N 
HETATM    2  C11 UNL     1      76.472  67.259  11.818  1.00  0.00     0.126 C 
HETATM    3  C12 UNL     1      76.714  67.472  13.315  1.00  0.00     0.020 C 
HETATM    4  C13 UNL     1      77.724  66.398  13.763  1.00  0.00     0.008 C 
HETATM    5  C14 UNL     1      78.708  66.234  12.634  1.00  0.00     0.005 C 
HETATM    6  C25 UNL     1      78.055  65.433  11.527  1.00  0.00     0.131 C 
ENDROOT
BRANCH   1   7
HETATM    7  C10 UNL     1      75.605  64.916  11.453  1.00  0.00     0.217 C 
BRANCH   7   8
HETATM    8  N2  UNL     1      75.435  63.585  11.795  1.00  0.00    -0.347 N 
HETATM    9  C9  UNL     1      75.428  62.626  10.644  1.00  0.00     0.153 C 
BRANCH   8  10
HETATM   10  C8  UNL     1      75.266  63.041  13.100  1.00  0.00     0.090 C 
HETATM   11  C7  UNL     1      76.609  62.853  13.805  1.00  0.00     0.045 C 
HETATM   12  C6  UNL     1      76.238  62.121  15.119  1.00  0.00     0.119 C 
HETATM   13  N1  UNL     1      75.373  62.857  15.888  1.00  0.00    -0.408 N 
HETATM   14  C27 UNL     1      74.933  64.112  15.365  1.00  0.00     0.119 C 
HETATM   15  C26 UNL     1      74.534  64.116  13.929  1.00  0.00     0.045 C 
BRANCH  13  16
HETATM   16  C5  UNL     1      74.758  62.489  17.057  1.00  0.00     0.079 C 
HETATM   17  C4  UNL     1      75.677  61.723  17.969  1.00  0.00     0.025 C 
HETATM   18  C3  UNL     1      76.401  62.508  18.997  1.00  0.00     0.006 C 
HETATM   19  C2  UNL     1      75.408  63.338  19.787  1.00  0.00    -0.019 C 
HETATM   20  C1  UNL     1      76.023  64.005  20.971  1.00  0.00     0.010 C 
HETATM   21  C29 UNL     1      74.867  64.351  18.765  1.00  0.00     0.006 C 
HETATM   22  C28 UNL     1      74.013  63.522  17.836  1.00  0.00     0.025 C 
ENDBRANCH  13  16
ENDBRANCH   8  10
ENDBRANCH   7   8
BRANCH   7  23
HETATM   23  O1  UNL     1      74.535  65.425  10.844  1.00  0.00    -0.333 OA
ATOM     24  H1  UNL     1      74.753  65.848  10.022  1.00  0.00     0.220 HD
ENDBRANCH   7  23
ENDBRANCH   1   7
BRANCH   5  25
HETATM   25  C15 UNL     1      79.998  65.569  13.109  1.00  0.00     0.026 C 
BRANCH  25  26
HETATM   26  C16 UNL     1      79.982  64.140  12.653  1.00  0.00     0.123 C 
BRANCH  26  27
HETATM   27  N4  UNL     1      81.140  63.377  12.996  1.00  0.00    -0.361 N 
HETATM   28  C17 UNL     1      81.283  61.978  12.794  1.00  0.00     0.221 C 
HETATM   29  O2  UNL     1      80.306  61.382  12.272  1.00  0.00    -0.273 OA
ATOM     30  H4  UNL     1      81.924  63.875  13.417  1.00  0.00     0.162 HD
BRANCH  28  31
HETATM   31  C18 UNL     1      82.484  61.221  13.158  1.00  0.00     0.078 C 
HETATM   32  C19 UNL     1      82.217  59.734  13.277  1.00  0.00     0.014 C 
HETATM   33  C20 UNL     1      83.357  59.009  13.919  1.00  0.00     0.007 C 
HETATM   34  C21 UNL     1      84.581  59.895  13.868  1.00  0.00     0.011 C 
HETATM   35  C23 UNL     1      84.399  61.164  14.670  1.00  0.00     0.007 C 
HETATM   36  C24 UNL     1      82.985  61.684  14.506  1.00  0.00     0.014 C 
BRANCH  34  37
HETATM   37  C22 UNL     1      85.801  59.169  14.396  1.00  0.00     0.234 C 
BRANCH  37  38
HETATM   38  N5  UNL     1      86.937  60.037  14.553  1.00  0.00    -0.079 N 
ATOM     39  H53 UNL     1      87.535  60.010  13.727  1.00  0.00     0.274 HD
ATOM     40  H52 UNL     1      86.656  61.017  14.520  1.00  0.00     0.274 HD
ATOM     41  H51 UNL     1      87.471  59.837  15.399  1.00  0.00     0.274 HD
ENDBRANCH  37  38
ENDBRANCH  34  37
ENDBRANCH  28  31
ENDBRANCH  26  27
ENDBRANCH  25  26
ENDBRANCH   5  25
TORSDOF 11
ENDMDL
MODEL 4
REMARK VINA RESULT: -6.687689504      4.298     13.473
REMARK  11 active torsions:
REMARK  status: ('A' for Active; 'I' for Inactive)
REMARK    1  A    between atoms: C5_5  and  N1_6 
REMARK    2  A    between atoms: C8_9  and  N2_10 
REMARK    3  A    between atoms: N2_10  and  C10_12 
REMARK    4  A    between atoms: C10_12  and  O1_13 
REMARK    5  A    between atoms: C10_12  and  N3_15 
REMARK    6  A    between atoms: C14_19  and  C15_20 
REMARK    7  A    between atoms: C15_20  and  C16_21 
REMARK    8  A    between atoms: C16_21  and  N4_22 
REMARK       I    between atoms: N4_22  and  C17_24 
REMARK    9  A    between atoms: C17_24  and  C18_26 
REMARK   10  A    between atoms: C21_29  and  C22_30 
REMARK   11  A    between atoms: C22_30  and  N5_31 
ROOT
HETATM    1  N3  UNL     1      87.359  59.118  12.274  1.00  0.00    -0.347 N 
HETATM    2  C11 UNL     1      87.270  58.758  10.898  1.00  0.00     0.126 C 
HETATM    3  C12 UNL     1      86.835  57.289  10.862  1.00  0.00     0.020 C 
HETATM    4  C13 UNL     1      85.943  57.057  12.096  1.00  0.00     0.008 C 
HETATM    5  C14 UNL     1      85.124  58.308  12.278  1.00  0.00     0.005 C 
HETATM    6  C25 UNL     1      86.003  59.386  12.877  1.00  0.00     0.131 C 
ENDROOT
BRANCH   1   7
HETATM    7  C10 UNL     1      88.494  59.197  13.062  1.00  0.00     0.217 C 
BRANCH   7   8
HETATM    8  N2  UNL     1      89.757  58.630  13.052  1.00  0.00    -0.347 N 
HETATM    9  C9  UNL     1      90.892  59.601  12.920  1.00  0.00     0.153 C 
BRANCH   8  10
HETATM   10  C8  UNL     1      90.087  57.249  13.151  1.00  0.00     0.090 C 
HETATM   11  C7  UNL     1      90.380  56.645  11.778  1.00  0.00     0.045 C 
HETATM   12  C6  UNL     1      90.561  55.134  12.070  1.00  0.00     0.119 C 
HETATM   13  N1  UNL     1      91.591  54.901  12.944  1.00  0.00    -0.408 N 
HETATM   14  C27 UNL     1      92.284  56.038  13.463  1.00  0.00     0.119 C 
HETATM   15  C26 UNL     1      91.429  57.175  13.908  1.00  0.00     0.045 C 
BRANCH  13  16
HETATM   16  C5  UNL     1      91.974  53.708  13.502  1.00  0.00     0.079 C 
HETATM   17  C4  UNL     1      92.464  53.870  14.915  1.00  0.00     0.025 C 
HETATM   18  C3  UNL     1      91.467  53.663  15.994  1.00  0.00     0.006 C 
HETATM   19  C2  UNL     1      90.786  52.322  15.797  1.00  0.00    -0.019 C 
HETATM   20  C1  UNL     1      89.914  51.942  16.946  1.00  0.00     0.010 C 
HETATM   21  C29 UNL     1      89.990  52.492  14.493  1.00  0.00     0.006 C 
HETATM   22  C28 UNL     1      91.046  52.541  13.416  1.00  0.00     0.025 C 
ENDBRANCH  13  16
ENDBRANCH   8  10
ENDBRANCH   7   8
BRANCH   7  23
HETATM   23  O1  UNL     1      88.318  60.030  14.086  1.00  0.00    -0.333 OA
ATOM     24  H1  UNL     1      87.495  59.881  14.537  1.00  0.00     0.220 HD
ENDBRANCH   7  23
ENDBRANCH   1   7
BRANCH   5  25
HETATM   25  C15 UNL     1      83.895  58.052  13.148  1.00  0.00     0.026 C 
BRANCH  25  26
HETATM   26  C16 UNL     1      83.820  59.136  14.181  1.00  0.00     0.123 C 
BRANCH  26  27
HETATM   27  N4  UNL     1      82.700  60.015  14.064  1.00  0.00    -0.361 N 
HETATM   28  C17 UNL     1      82.774  61.433  14.070  1.00  0.00     0.221 C 
HETATM   29  O2  UNL     1      83.921  61.937  14.188  1.00  0.00    -0.273 OA
ATOM     30  H4  UNL     1      81.777  59.591  13.968  1.00  0.00     0.162 HD
BRANCH  28  31
HETATM   31  C18 UNL     1      81.605  62.310  13.949  1.00  0.00     0.078 C 
HETATM   32  C19 UNL     1      80.453  61.863  14.827  1.00  0.00     0.014 C 
HETATM   33  C20 UNL     1      79.182  62.579  14.493  1.00  0.00     0.007 C 
HETATM   34  C21 UNL     1      79.522  63.810  13.685  1.00  0.00     0.011 C 
HETATM   35  C23 UNL     1      80.159  63.463  12.357  1.00  0.00     0.007 C 
HETATM   36  C24 UNL     1      81.102  62.289  12.525  1.00  0.00     0.014 C 
BRANCH  34  37
HETATM   37  C22 UNL     1      78.286  64.643  13.416  1.00  0.00     0.234 C 
BRANCH  37  38
HETATM   38  N5  UNL     1      78.423  66.000  13.871  1.00  0.00    -0.079 N 
ATOM     39  H53 UNL     1      77.612  66.286  14.421  1.00  0.00     0.274 HD
ATOM     40  H52 UNL     1      79.143  66.074  14.590  1.00  0.00     0.274 HD
ATOM     41  H51 UNL     1      78.597  66.655  13.108  1.00  0.00     0.274 HD
ENDBRANCH  37  38
ENDBRANCH  34  37
ENDBRANCH  28  31
ENDBRANCH  26  27
ENDBRANCH  25  26
ENDBRANCH   5  25
TORSDOF 11
ENDMDL
MODEL 5
REMARK VINA RESULT: -6.660110929      4.288      8.330
REMARK  11 active torsions:
REMARK  status: ('A' for Active; 'I' for Inactive)
REMARK    1  A    between atoms: C5_5  and  N1_6 
REMARK    2  A    between atoms: C8_9  and  N2_10 
REMARK    3  A    between atoms: N2_10  and  C10_12 
REMARK    4  A    between atoms: C10_12  and  O1_13 
REMARK    5  A    between atoms: C10_12  and  N3_15 
REMARK    6  A    between atoms: C14_19  and  C15_20 
REMARK    7  A    between atoms: C15_20  and  C16_21 
REMARK    8  A    between atoms: C16_21  and  N4_22 
REMARK       I    between atoms: N4_22  and  C17_24 
REMARK    9  A    between atoms: C17_24  and  C18_26 
REMARK   10  A    between atoms: C21_29  and  C22_30 
REMARK   11  A    between atoms: C22_30  and  N5_31 
ROOT
HETATM    1  N3  UNL     1      85.535  60.331  13.244  1.00  0.00    -0.347 N 
HETATM    2  C11 UNL     1      86.550  59.615  13.943  1.00  0.00     0.126 C 
HETATM    3  C12 UNL     1      86.263  58.127  13.720  1.00  0.00     0.020 C 
HETATM    4  C13 UNL     1      85.621  57.999  12.326  1.00  0.00     0.008 C 
HETATM    5  C14 UNL     1      86.317  58.997  11.438  1.00  0.00     0.005 C 
HETATM    6  C25 UNL     1      85.801  60.384  11.760  1.00  0.00     0.131 C 
ENDROOT
BRANCH   1   7
HETATM    7  C10 UNL     1      84.388  60.904  13.761  1.00  0.00     0.217 C 
BRANCH   7   8
HETATM    8  N2  UNL     1      83.024  60.711  13.619  1.00  0.00    -0.347 N 
HETATM    9  C9  UNL     1      82.545  59.315  13.880  1.00  0.00     0.153 C 
BRANCH   8  10
HETATM   10  C8  UNL     1      82.045  61.681  13.257  1.00  0.00     0.090 C 
HETATM   11  C7  UNL     1      81.251  61.240  12.028  1.00  0.00     0.045 C 
HETATM   12  C6  UNL     1      80.364  62.467  11.703  1.00  0.00     0.119 C 
HETATM   13  N1  UNL     1      79.530  62.788  12.743  1.00  0.00    -0.408 N 
HETATM   14  C27 UNL     1      79.631  62.002  13.932  1.00  0.00     0.119 C 
HETATM   15  C26 UNL     1      81.014  61.707  14.404  1.00  0.00     0.045 C 
BRANCH  13  16
HETATM   16  C5  UNL     1      78.685  63.862  12.850  1.00  0.00     0.079 C 
HETATM   17  C4  UNL     1      79.258  64.955  13.710  1.00  0.00     0.025 C 
HETATM   18  C3  UNL     1      79.991  66.038  13.010  1.00  0.00     0.006 C 
HETATM   19  C2  UNL     1      79.118  66.604  11.907  1.00  0.00    -0.019 C 
HETATM   20  C1  UNL     1      79.697  67.830  11.283  1.00  0.00     0.010 C 
HETATM   21  C29 UNL     1      78.982  65.448  10.903  1.00  0.00     0.006 C 
HETATM   22  C28 UNL     1      78.100  64.446  11.607  1.00  0.00     0.025 C 
ENDBRANCH  13  16
ENDBRANCH   8  10
ENDBRANCH   7   8
BRANCH   7  23
HETATM   23  O1  UNL     1      84.676  61.890  14.609  1.00  0.00    -0.333 OA
ATOM     24  H1  UNL     1      84.703  62.738  14.182  1.00  0.00     0.220 HD
ENDBRANCH   7  23
ENDBRANCH   1   7
BRANCH   5  25
HETATM   25  C15 UNL     1      86.121  58.664   9.960  1.00  0.00     0.026 C 
BRANCH  25  26
HETATM   26  C16 UNL     1      87.220  59.325   9.183  1.00  0.00     0.123 C 
BRANCH  26  27
HETATM   27  N4  UNL     1      86.901  60.609   8.644  1.00  0.00    -0.361 N 
HETATM   28  C17 UNL     1      87.620  61.805   8.909  1.00  0.00     0.221 C 
HETATM   29  O2  UNL     1      88.611  61.708   9.678  1.00  0.00    -0.273 OA
ATOM     30  H4  UNL     1      86.095  60.671   8.022  1.00  0.00     0.162 HD
BRANCH  28  31
HETATM   31  C18 UNL     1      87.266  63.110   8.342  1.00  0.00     0.078 C 
HETATM   32  C19 UNL     1      86.035  63.043   7.459  1.00  0.00     0.014 C 
HETATM   33  C20 UNL     1      85.846  64.296   6.664  1.00  0.00     0.007 C 
HETATM   34  C21 UNL     1      86.683  65.391   7.284  1.00  0.00     0.011 C 
HETATM   35  C23 UNL     1      88.163  65.083   7.220  1.00  0.00     0.007 C 
HETATM   36  C24 UNL     1      88.398  63.608   7.474  1.00  0.00     0.014 C 
BRANCH  34  37
HETATM   37  C22 UNL     1      86.442  66.717   6.594  1.00  0.00     0.234 C 
BRANCH  37  38
HETATM   38  N5  UNL     1      86.519  67.833   7.498  1.00  0.00    -0.079 N 
ATOM     39  H53 UNL     1      85.588  68.170   7.744  1.00  0.00     0.274 HD
ATOM     40  H52 UNL     1      86.836  67.536   8.420  1.00  0.00     0.274 HD
ATOM     41  H51 UNL     1      87.100  68.591   7.138  1.00  0.00     0.274 HD
ENDBRANCH  37  38
ENDBRANCH  34  37
ENDBRANCH  28  31
ENDBRANCH  26  27
ENDBRANCH  25  26
ENDBRANCH   5  25
TORSDOF 11
ENDMDL
