MODEL 1
REMARK VINA RESULT: -4.550126587      0.000      0.000
REMARK  1 active torsions:
REMARK  status: ('A' for Active; 'I' for Inactive)
REMARK    1  A    between atoms: C3_3  and  N1_4 
ROOT
HETATM    1  C1  UNL     1      -2.126  19.644  19.196  1.00  0.00     0.013 C 
HETATM    2  C2  UNL     1      -2.032  18.440  19.249  1.00  0.00    -0.089 C 
HETATM    3  C3  UNL     1      -1.905  16.983  19.306  1.00  0.00     0.341 C 
ENDROOT
BRANCH   3   4
HETATM    4  N1  UNL     1      -1.054  16.567  18.227  1.00  0.00     0.015 N 
HETATM    5  C4  UNL     1       0.227  17.248  18.330  1.00  0.00     0.286 C 
HETATM    6  C5  UNL     1      -1.607  16.813  16.923  1.00  0.00     0.382 C 
HETATM    7  N2  UNL     1      -1.631  15.547  16.217  1.00  0.00    -0.110 NA
HETATM    8  N3  UNL     1      -1.433  14.550  17.155  1.00  0.00    -0.267 N 
HETATM    9  C6  UNL     1      -0.786  15.173  18.269  1.00  0.00     0.291 C 
ATOM     10  H3  UNL     1      -1.696  13.568  17.069  1.00  0.00     0.185 HD
HETATM   11  N4  UNL     1      -0.066  14.631  19.196  1.00  0.00    -0.364 N 
ATOM     12  H42 UNL     1       0.395  15.075  19.989  1.00  0.00     0.159 HD
ATOM     13  H41 UNL     1       0.127  13.629  19.226  1.00  0.00     0.159 HD
ENDBRANCH   3   4
TORSDOF 1
ENDMDL
MODEL 2
REMARK VINA RESULT: -4.457159256      1.442      1.509
REMARK  1 active torsions:
REMARK  status: ('A' for Active; 'I' for Inactive)
REMARK    1  A    between atoms: C3_3  and  N1_4 
ROOT
HETATM    1  C1  UNL     1      -3.553  18.950  16.635  1.00  0.00     0.013 C 
HETATM    2  C2  UNL     1      -3.012  18.205  17.418  1.00  0.00    -0.089 C 
HETATM    3  C3  UNL     1      -2.343  17.304  18.359  1.00  0.00     0.341 C 
ENDROOT
BRANCH   3   4
HETATM    4  N1  UNL     1      -1.267  16.655  17.666  1.00  0.00     0.015 N 
HETATM    5  C4  UNL     1      -0.291  17.648  17.248  1.00  0.00     0.286 C 
HETATM    6  C5  UNL     1      -1.686  15.904  16.514  1.00  0.00     0.382 C 
HETATM    7  N2  UNL     1      -1.217  14.544  16.689  1.00  0.00    -0.110 NA
HETATM    8  N3  UNL     1      -0.846  14.405  18.015  1.00  0.00    -0.267 N 
HETATM    9  C6  UNL     1      -0.584  15.727  18.496  1.00  0.00     0.291 C 
ATOM     10  H3  UNL     1      -0.774  13.535  18.542  1.00  0.00     0.185 HD
HETATM   11  N4  UNL     1       0.137  16.095  19.504  1.00  0.00    -0.364 N 
ATOM     12  H42 UNL     1       0.323  17.037  19.847  1.00  0.00     0.159 HD
ATOM     13  H41 UNL     1       0.628  15.428  20.101  1.00  0.00     0.159 HD
ENDBRANCH   3   4
TORSDOF 1
ENDMDL
MODEL 3
REMARK VINA RESULT: -4.418801926      1.671      3.534
REMARK  1 active torsions:
REMARK  status: ('A' for Active; 'I' for Inactive)
REMARK    1  A    between atoms: C3_3  and  N1_4 
ROOT
HETATM    1  C1  UNL     1      -1.950  13.823  15.348  1.00  0.00     0.013 C 
HETATM    2  C2  UNL     1      -2.137  14.781  16.060  1.00  0.00    -0.089 C 
HETATM    3  C3  UNL     1      -2.349  15.944  16.924  1.00  0.00     0.341 C 
ENDROOT
BRANCH   3   4
HETATM    4  N1  UNL     1      -1.282  15.988  17.883  1.00  0.00     0.015 N 
HETATM    5  C4  UNL     1      -0.320  17.006  17.491  1.00  0.00     0.286 C 
HETATM    6  C5  UNL     1      -0.593  14.736  18.042  1.00  0.00     0.382 C 
HETATM    7  N2  UNL     1      -0.653  14.384  19.447  1.00  0.00    -0.110 NA
HETATM    8  N3  UNL     1      -1.613  15.191  20.032  1.00  0.00    -0.267 N 
HETATM    9  C6  UNL     1      -1.746  16.333  19.180  1.00  0.00     0.291 C 
ATOM     10  H3  UNL     1      -2.123  15.008  20.896  1.00  0.00     0.185 HD
HETATM   11  N4  UNL     1      -2.201  17.509  19.465  1.00  0.00    -0.364 N 
ATOM     12  H42 UNL     1      -2.296  18.322  18.857  1.00  0.00     0.159 HD
ATOM     13  H41 UNL     1      -2.535  17.757  20.397  1.00  0.00     0.159 HD
ENDBRANCH   3   4
TORSDOF 1
ENDMDL
MODEL 4
REMARK VINA RESULT: -4.378683479      1.761      3.342
REMARK  1 active torsions:
REMARK  status: ('A' for Active; 'I' for Inactive)
REMARK    1  A    between atoms: C3_3  and  N1_4 
ROOT
HETATM    1  C1  UNL     1      -1.667  13.466  16.267  1.00  0.00     0.013 C 
HETATM    2  C2  UNL     1      -1.240  14.025  17.250  1.00  0.00    -0.089 C 
HETATM    3  C3  UNL     1      -0.735  14.709  18.442  1.00  0.00     0.341 C 
ENDROOT
BRANCH   3   4
HETATM    4  N1  UNL     1      -1.297  16.030  18.469  1.00  0.00     0.015 N 
HETATM    5  C4  UNL     1      -1.679  16.366  19.831  1.00  0.00     0.286 C 
HETATM    6  C5  UNL     1      -2.441  16.192  17.613  1.00  0.00     0.382 C 
HETATM    7  N2  UNL     1      -2.156  17.291  16.712  1.00  0.00    -0.110 NA
HETATM    8  N3  UNL     1      -0.798  17.543  16.788  1.00  0.00    -0.267 N 
HETATM    9  C6  UNL     1      -0.364  17.014  18.045  1.00  0.00     0.291 C 
ATOM     10  H3  UNL     1      -0.222  18.012  16.089  1.00  0.00     0.185 HD
HETATM   11  N4  UNL     1       0.682  17.323  18.738  1.00  0.00    -0.364 N 
ATOM     12  H42 UNL     1       0.991  16.945  19.633  1.00  0.00     0.159 HD
ATOM     13  H41 UNL     1       1.353  18.029  18.433  1.00  0.00     0.159 HD
ENDBRANCH   3   4
TORSDOF 1
ENDMDL
MODEL 5
REMARK VINA RESULT: -4.359302534      1.406      2.517
REMARK  1 active torsions:
REMARK  status: ('A' for Active; 'I' for Inactive)
REMARK    1  A    between atoms: C3_3  and  N1_4 
ROOT
HETATM    1  C1  UNL     1       0.259  18.052  20.375  1.00  0.00     0.013 C 
HETATM    2  C2  UNL     1       0.080  17.562  19.285  1.00  0.00    -0.089 C 
HETATM    3  C3  UNL     1      -0.152  16.967  17.968  1.00  0.00     0.341 C 
ENDROOT
BRANCH   3   4
HETATM    4  N1  UNL     1      -1.305  16.116  18.059  1.00  0.00     0.015 N 
HETATM    5  C4  UNL     1      -2.460  16.907  18.451  1.00  0.00     0.286 C 
HETATM    6  C5  UNL     1      -1.151  15.028  18.986  1.00  0.00     0.382 C 
HETATM    7  N2  UNL     1      -1.403  13.800  18.258  1.00  0.00    -0.110 NA
HETATM    8  N3  UNL     1      -1.364  14.107  16.909  1.00  0.00    -0.267 N 
HETATM    9  C6  UNL     1      -1.619  15.512  16.813  1.00  0.00     0.291 C 
ATOM     10  H3  UNL     1      -1.190  13.462  16.139  1.00  0.00     0.185 HD
HETATM   11  N4  UNL     1      -2.059  16.189  15.804  1.00  0.00    -0.364 N 
ATOM     12  H42 UNL     1      -2.241  17.190  15.735  1.00  0.00     0.159 HD
ATOM     13  H41 UNL     1      -2.285  15.755  14.908  1.00  0.00     0.159 HD
ENDBRANCH   3   4
TORSDOF 1
ENDMDL
