MODEL 1
REMARK VINA RESULT: -10.144572358      0.000      0.000
REMARK  4 active torsions:
REMARK  status: ('A' for Active; 'I' for Inactive)
REMARK    1  A    between atoms: C2_2  and  O1_3 
REMARK    2  A    between atoms: C2_2  and  C14_18 
REMARK    3  A    between atoms: O1_3  and  C3_4 
REMARK    4  A    between atoms: C3_4  and  C4_8 
ROOT
HETATM    1  O1  UNL     1      61.264  10.624  34.015  1.00  0.00    -0.333 OA
ENDROOT
BRANCH   1   2
HETATM    2  C2  UNL     1      61.636  11.557  34.932  1.00  0.00     0.134 C 
HETATM    3  C1  UNL     1      60.412  12.509  35.042  1.00  0.00     0.041 C 
BRANCH   2   4
HETATM    4  C14 UNL     1      62.838  12.415  34.736  1.00  0.00    -0.013 C 
HETATM    5  C15 UNL     1      62.952  12.887  33.329  1.00  0.00     0.017 C 
HETATM    6  C16 UNL     1      64.196  13.736  33.140  1.00  0.00    -0.013 C 
HETATM    7  C17 UNL     1      65.420  13.023  33.578  1.00  0.00     0.009 C 
HETATM    8  C22 UNL     1      64.024  14.992  33.966  1.00  0.00     0.014 C 
HETATM    9  C18 UNL     1      65.282  12.728  35.054  1.00  0.00    -0.013 C 
HETATM   10  C19 UNL     1      65.064  13.926  35.910  1.00  0.00     0.014 C 
HETATM   11  C24 UNL     1      64.121  11.756  35.224  1.00  0.00     0.017 C 
HETATM   12  C20 UNL     1      63.819  14.621  35.400  1.00  0.00    -0.043 C 
HETATM   13  C21 UNL     1      63.556  15.827  36.261  1.00  0.00     0.015 C 
HETATM   14  C23 UNL     1      62.664  13.659  35.611  1.00  0.00     0.021 C 
ENDBRANCH   2   4
ENDBRANCH   1   2
BRANCH   1  15
HETATM   15  C3  UNL     1      61.483   9.284  34.045  1.00  0.00     0.120 C 
HETATM   16  N1  UNL     1      61.440   8.677  32.877  1.00  0.00    -0.383 N 
ATOM     17  H12 UNL     1      61.244   9.240  32.048  1.00  0.00     0.158 HD
ATOM     18  H11 UNL     1      61.604   7.671  32.899  1.00  0.00     0.158 HD
BRANCH  15  19
HETATM   19  C4  UNL     1      61.769   8.458  35.261  1.00  0.00     0.025 C 
HETATM   20  C5  UNL     1      63.191   8.487  35.659  1.00  0.00     0.022 C 
HETATM   21  C6  UNL     1      63.347   7.655  36.921  1.00  0.00    -0.013 C 
HETATM   22  C7  UNL     1      62.571   8.244  38.056  1.00  0.00     0.009 C 
HETATM   23  C11 UNL     1      62.914   6.249  36.664  1.00  0.00     0.009 C 
HETATM   24  C8  UNL     1      61.096   8.246  37.675  1.00  0.00    -0.013 C 
HETATM   25  C9  UNL     1      60.647   6.822  37.431  1.00  0.00     0.009 C 
HETATM   26  C13 UNL     1      60.956   9.037  36.419  1.00  0.00     0.022 C 
HETATM   27  C10 UNL     1      61.440   6.252  36.297  1.00  0.00    -0.013 C 
HETATM   28  C12 UNL     1      61.234   7.054  35.056  1.00  0.00     0.022 C 
ENDBRANCH  15  19
ENDBRANCH   1  15
TORSDOF 4
ENDMDL
MODEL 2
REMARK VINA RESULT: -10.036265166      1.202      2.010
REMARK  4 active torsions:
REMARK  status: ('A' for Active; 'I' for Inactive)
REMARK    1  A    between atoms: C2_2  and  O1_3 
REMARK    2  A    between atoms: C2_2  and  C14_18 
REMARK    3  A    between atoms: O1_3  and  C3_4 
REMARK    4  A    between atoms: C3_4  and  C4_8 
ROOT
HETATM    1  O1  UNL     1      61.323  10.546  35.081  1.00  0.00    -0.333 OA
ENDROOT
BRANCH   1   2
HETATM    2  C2  UNL     1      61.355  11.905  35.055  1.00  0.00     0.134 C 
HETATM    3  C1  UNL     1      60.382  12.299  33.908  1.00  0.00     0.041 C 
BRANCH   2   4
HETATM    4  C14 UNL     1      62.622  12.657  34.829  1.00  0.00    -0.013 C 
HETATM    5  C15 UNL     1      62.717  13.162  33.432  1.00  0.00     0.017 C 
HETATM    6  C16 UNL     1      64.025  13.900  33.210  1.00  0.00    -0.013 C 
HETATM    7  C17 UNL     1      65.196  13.065  33.570  1.00  0.00     0.009 C 
HETATM    8  C22 UNL     1      64.006  15.139  34.079  1.00  0.00     0.014 C 
HETATM    9  C18 UNL     1      65.095  12.735  35.042  1.00  0.00    -0.013 C 
HETATM   10  C19 UNL     1      65.026  13.920  35.941  1.00  0.00     0.014 C 
HETATM   11  C24 UNL     1      63.858  11.868  35.238  1.00  0.00     0.017 C 
HETATM   12  C20 UNL     1      63.829  14.741  35.509  1.00  0.00    -0.043 C 
HETATM   13  C21 UNL     1      63.717  15.937  36.416  1.00  0.00     0.015 C 
HETATM   14  C23 UNL     1      62.600  13.882  35.746  1.00  0.00     0.021 C 
ENDBRANCH   2   4
ENDBRANCH   1   2
BRANCH   1  15
HETATM   15  C3  UNL     1      61.202   9.729  36.159  1.00  0.00     0.120 C 
HETATM   16  N1  UNL     1      60.637  10.270  37.218  1.00  0.00    -0.383 N 
ATOM     17  H12 UNL     1      60.340  11.245  37.161  1.00  0.00     0.158 HD
ATOM     18  H11 UNL     1      60.546   9.657  38.028  1.00  0.00     0.158 HD
BRANCH  15  19
HETATM   19  C4  UNL     1      61.638   8.299  36.243  1.00  0.00     0.025 C 
HETATM   20  C5  UNL     1      60.837   7.504  37.196  1.00  0.00     0.022 C 
HETATM   21  C6  UNL     1      61.341   6.071  37.158  1.00  0.00    -0.013 C 
HETATM   22  C7  UNL     1      61.135   5.460  35.809  1.00  0.00     0.009 C 
HETATM   23  C11 UNL     1      62.786   6.027  37.539  1.00  0.00     0.009 C 
HETATM   24  C8  UNL     1      61.935   6.264  34.793  1.00  0.00    -0.013 C 
HETATM   25  C9  UNL     1      63.401   6.208  35.163  1.00  0.00     0.009 C 
HETATM   26  C13 UNL     1      61.457   7.675  34.858  1.00  0.00     0.022 C 
HETATM   27  C10 UNL     1      63.583   6.819  36.518  1.00  0.00    -0.013 C 
HETATM   28  C12 UNL     1      63.128   8.240  36.519  1.00  0.00     0.022 C 
ENDBRANCH  15  19
ENDBRANCH   1  15
TORSDOF 4
ENDMDL
MODEL 3
REMARK VINA RESULT: -10.029804942      1.036      6.453
REMARK  4 active torsions:
REMARK  status: ('A' for Active; 'I' for Inactive)
REMARK    1  A    between atoms: C2_2  and  O1_3 
REMARK    2  A    between atoms: C2_2  and  C14_18 
REMARK    3  A    between atoms: O1_3  and  C3_4 
REMARK    4  A    between atoms: C3_4  and  C4_8 
ROOT
HETATM    1  O1  UNL     1      61.122  10.707  34.307  1.00  0.00    -0.333 OA
ENDROOT
BRANCH   1   2
HETATM    2  C2  UNL     1      61.790   9.526  34.220  1.00  0.00     0.134 C 
HETATM    3  C1  UNL     1      61.145   8.800  33.005  1.00  0.00     0.041 C 
BRANCH   2   4
HETATM    4  C14 UNL     1      61.813   8.551  35.346  1.00  0.00    -0.013 C 
HETATM    5  C15 UNL     1      61.474   7.176  34.888  1.00  0.00     0.017 C 
HETATM    6  C16 UNL     1      61.475   6.201  36.052  1.00  0.00    -0.013 C 
HETATM    7  C17 UNL     1      60.579   6.649  37.145  1.00  0.00     0.009 C 
HETATM    8  C22 UNL     1      62.893   6.108  36.573  1.00  0.00     0.014 C 
HETATM    9  C18 UNL     1      61.094   7.976  37.654  1.00  0.00    -0.013 C 
HETATM   10  C19 UNL     1      62.502   7.952  38.135  1.00  0.00     0.014 C 
HETATM   11  C24 UNL     1      60.954   8.989  36.524  1.00  0.00     0.017 C 
HETATM   12  C20 UNL     1      63.361   7.466  36.987  1.00  0.00    -0.043 C 
HETATM   13  C21 UNL     1      64.798   7.453  37.436  1.00  0.00     0.015 C 
HETATM   14  C23 UNL     1      63.245   8.502  35.884  1.00  0.00     0.021 C 
ENDBRANCH   2   4
ENDBRANCH   1   2
BRANCH   1  15
HETATM   15  C3  UNL     1      61.481  11.825  34.989  1.00  0.00     0.120 C 
HETATM   16  N1  UNL     1      60.664  12.183  35.959  1.00  0.00    -0.383 N 
ATOM     17  H12 UNL     1      59.834  11.613  36.125  1.00  0.00     0.158 HD
ATOM     18  H11 UNL     1      60.934  13.023  36.472  1.00  0.00     0.158 HD
BRANCH  15  19
HETATM   19  C4  UNL     1      62.699  12.662  34.746  1.00  0.00     0.025 C 
HETATM   20  C5  UNL     1      62.784  13.173  33.363  1.00  0.00     0.022 C 
HETATM   21  C6  UNL     1      64.029  14.038  33.253  1.00  0.00    -0.013 C 
HETATM   22  C7  UNL     1      63.938  15.232  34.147  1.00  0.00     0.009 C 
HETATM   23  C11 UNL     1      65.243  13.230  33.578  1.00  0.00     0.009 C 
HETATM   24  C8  UNL     1      63.832  14.744  35.586  1.00  0.00    -0.013 C 
HETATM   25  C9  UNL     1      65.068  13.941  35.927  1.00  0.00     0.009 C 
HETATM   26  C13 UNL     1      62.627  13.871  35.679  1.00  0.00     0.022 C 
HETATM   27  C10 UNL     1      65.142  12.755  35.017  1.00  0.00    -0.013 C 
HETATM   28  C12 UNL     1      63.933  11.894  35.177  1.00  0.00     0.022 C 
ENDBRANCH  15  19
ENDBRANCH   1  15
TORSDOF 4
ENDMDL
MODEL 4
REMARK VINA RESULT: -10.008934271      1.046      6.474
REMARK  4 active torsions:
REMARK  status: ('A' for Active; 'I' for Inactive)
REMARK    1  A    between atoms: C2_2  and  O1_3 
REMARK    2  A    between atoms: C2_2  and  C14_18 
REMARK    3  A    between atoms: O1_3  and  C3_4 
REMARK    4  A    between atoms: C3_4  and  C4_8 
ROOT
HETATM    1  O1  UNL     1      61.129  10.779  34.337  1.00  0.00    -0.333 OA
ENDROOT
BRANCH   1   2
HETATM    2  C2  UNL     1      61.801   9.601  34.237  1.00  0.00     0.134 C 
HETATM    3  C1  UNL     1      61.166   8.891  33.008  1.00  0.00     0.041 C 
BRANCH   2   4
HETATM    4  C14 UNL     1      61.820   8.610  35.350  1.00  0.00    -0.013 C 
HETATM    5  C15 UNL     1      61.493   7.240  34.870  1.00  0.00     0.017 C 
HETATM    6  C16 UNL     1      61.489   6.248  36.019  1.00  0.00    -0.013 C 
HETATM    7  C17 UNL     1      60.581   6.676  37.111  1.00  0.00     0.009 C 
HETATM    8  C22 UNL     1      62.903   6.155  36.550  1.00  0.00     0.014 C 
HETATM    9  C18 UNL     1      61.085   7.998  37.643  1.00  0.00    -0.013 C 
HETATM   10  C19 UNL     1      62.489   7.975  38.136  1.00  0.00     0.014 C 
HETATM   11  C24 UNL     1      60.949   9.027  36.527  1.00  0.00     0.017 C 
HETATM   12  C20 UNL     1      63.360   7.510  36.988  1.00  0.00    -0.043 C 
HETATM   13  C21 UNL     1      64.793   7.498  37.448  1.00  0.00     0.015 C 
HETATM   14  C23 UNL     1      63.248   8.561  35.899  1.00  0.00     0.021 C 
ENDBRANCH   2   4
ENDBRANCH   1   2
BRANCH   1  15
HETATM   15  C3  UNL     1      61.452  11.869  35.081  1.00  0.00     0.120 C 
HETATM   16  N1  UNL     1      60.622  12.149  36.065  1.00  0.00    -0.383 N 
ATOM     17  H12 UNL     1      59.808  11.547  36.195  1.00  0.00     0.158 HD
ATOM     18  H11 UNL     1      60.865  12.967  36.624  1.00  0.00     0.158 HD
BRANCH  15  19
HETATM   19  C4  UNL     1      62.646  12.752  34.890  1.00  0.00     0.025 C 
HETATM   20  C5  UNL     1      62.630  13.945  35.762  1.00  0.00     0.022 C 
HETATM   21  C6  UNL     1      63.905  14.732  35.511  1.00  0.00    -0.013 C 
HETATM   22  C7  UNL     1      65.115  13.939  35.889  1.00  0.00     0.009 C 
HETATM   23  C11 UNL     1      63.977  15.145  34.076  1.00  0.00     0.009 C 
HETATM   24  C8  UNL     1      65.158  12.689  35.020  1.00  0.00    -0.013 C 
HETATM   25  C9  UNL     1      65.248  13.101  33.567  1.00  0.00     0.009 C 
HETATM   26  C13 UNL     1      63.890  11.938  35.248  1.00  0.00     0.022 C 
HETATM   27  C10 UNL     1      64.032  13.898  33.212  1.00  0.00    -0.013 C 
HETATM   28  C12 UNL     1      62.795  13.089  33.419  1.00  0.00     0.022 C 
ENDBRANCH  15  19
ENDBRANCH   1  15
TORSDOF 4
ENDMDL
MODEL 5
REMARK VINA RESULT: -9.953334225      1.031      6.383
REMARK  4 active torsions:
REMARK  status: ('A' for Active; 'I' for Inactive)
REMARK    1  A    between atoms: C2_2  and  O1_3 
REMARK    2  A    between atoms: C2_2  and  C14_18 
REMARK    3  A    between atoms: O1_3  and  C3_4 
REMARK    4  A    between atoms: C3_4  and  C4_8 
ROOT
HETATM    1  O1  UNL     1      61.106  10.700  34.348  1.00  0.00    -0.333 OA
ENDROOT
BRANCH   1   2
HETATM    2  C2  UNL     1      61.817   9.548  34.221  1.00  0.00     0.134 C 
HETATM    3  C1  UNL     1      61.164   8.815  33.015  1.00  0.00     0.041 C 
BRANCH   2   4
HETATM    4  C14 UNL     1      61.914   8.558  35.330  1.00  0.00    -0.013 C 
HETATM    5  C15 UNL     1      63.286   8.514  35.907  1.00  0.00     0.017 C 
HETATM    6  C16 UNL     1      63.375   7.482  37.016  1.00  0.00    -0.013 C 
HETATM    7  C17 UNL     1      62.932   6.143  36.558  1.00  0.00     0.009 C 
HETATM    8  C22 UNL     1      62.484   7.946  38.148  1.00  0.00     0.014 C 
HETATM    9  C18 UNL     1      61.482   6.251  36.143  1.00  0.00    -0.013 C 
HETATM   10  C19 UNL     1      60.567   6.749  37.207  1.00  0.00     0.014 C 
HETATM   11  C24 UNL     1      61.416   7.176  34.934  1.00  0.00     0.017 C 
HETATM   12  C20 UNL     1      61.084   8.102  37.647  1.00  0.00    -0.043 C 
HETATM   13  C21 UNL     1      60.165   8.644  38.708  1.00  0.00     0.015 C 
HETATM   14  C23 UNL     1      60.976   9.024  36.447  1.00  0.00     0.021 C 
ENDBRANCH   2   4
ENDBRANCH   1   2
BRANCH   1  15
HETATM   15  C3  UNL     1      61.464  11.841  34.992  1.00  0.00     0.120 C 
HETATM   16  N1  UNL     1      60.631  12.248  35.927  1.00  0.00    -0.383 N 
ATOM     17  H12 UNL     1      59.790  11.696  36.097  1.00  0.00     0.158 HD
ATOM     18  H11 UNL     1      60.900  13.105  36.411  1.00  0.00     0.158 HD
BRANCH  15  19
HETATM   19  C4  UNL     1      62.698  12.651  34.743  1.00  0.00     0.025 C 
HETATM   20  C5  UNL     1      62.793  13.152  33.356  1.00  0.00     0.022 C 
HETATM   21  C6  UNL     1      64.054  13.991  33.240  1.00  0.00    -0.013 C 
HETATM   22  C7  UNL     1      63.988  15.193  34.127  1.00  0.00     0.009 C 
HETATM   23  C11 UNL     1      65.252  13.162  33.570  1.00  0.00     0.009 C 
HETATM   24  C8  UNL     1      63.873  14.717  35.569  1.00  0.00    -0.013 C 
HETATM   25  C9  UNL     1      65.093  13.891  35.914  1.00  0.00     0.009 C 
HETATM   26  C13 UNL     1      62.651  13.868  35.668  1.00  0.00     0.022 C 
HETATM   27  C10 UNL     1      65.143  12.698  35.012  1.00  0.00    -0.013 C 
HETATM   28  C12 UNL     1      63.918  11.862  35.178  1.00  0.00     0.022 C 
ENDBRANCH  15  19
ENDBRANCH   1  15
TORSDOF 4
ENDMDL
