MODEL 1
REMARK VINA RESULT: -8.301045864      0.000      0.000
REMARK  16 active torsions:
REMARK  status: ('A' for Active; 'I' for Inactive)
REMARK    1  A    between atoms: C2_2  and  C3_3 
REMARK    2  A    between atoms: C4_4  and  C5_5 
REMARK    3  A    between atoms: C5_5  and  C6_6 
REMARK    4  A    between atoms: C6_6  and  C7_7 
REMARK    5  A    between atoms: C8_8  and  C9_9 
REMARK       I    between atoms: C9_9  and  N1_11 
REMARK    6  A    between atoms: N1_11  and  O2_12 
REMARK    7  A    between atoms: N1_11  and  C10_14 
REMARK       I    between atoms: N2_18  and  C13_19 
REMARK    8  A    between atoms: C13_19  and  C14_21 
REMARK    9  A    between atoms: C14_21  and  C15_22 
REMARK   10  A    between atoms: C22_35  and  C23_36 
REMARK   11  A    between atoms: C23_36  and  C24_37 
REMARK   12  A    between atoms: C24_37  and  C25_38 
REMARK   13  A    between atoms: C25_38  and  O6_40 
REMARK   14  A    between atoms: O6_40  and  C26_41 
REMARK   15  A    between atoms: C30_45  and  C31_46 
REMARK   16  A    between atoms: C31_46  and  O7_47 
ROOT
HETATM    1  C7  UNL     1      20.872  24.979  20.067  1.00  0.00     0.100 C 
HETATM    2  C8  UNL     1      21.768  25.023  21.258  1.00  0.00     0.105 C 
HETATM    3  C11 UNL     1      21.185  26.260  21.960  1.00  0.00     0.036 C 
HETATM    4  C12 UNL     1      20.454  27.037  20.914  1.00  0.00     0.127 C 
HETATM    5  N2  UNL     1      20.836  26.332  19.652  1.00  0.00    -0.346 N 
HETATM    6  C13 UNL     1      21.036  27.048  18.464  1.00  0.00     0.224 C 
HETATM    7  O4  UNL     1      20.922  28.326  18.513  1.00  0.00    -0.273 OA
ENDROOT
BRANCH   1   8
HETATM    8  C6  UNL     1      21.140  23.917  19.055  1.00  0.00     0.031 C 
BRANCH   8   9
HETATM    9  C5  UNL     1      20.341  22.689  19.407  1.00  0.00     0.043 C 
BRANCH   9  10
HETATM   10  C4  UNL     1      18.928  22.650  19.069  1.00  0.00    -0.029 A 
HETATM   11  C3  UNL     1      18.353  22.701  17.827  1.00  0.00    -0.040 A 
HETATM   12  C30 UNL     1      16.950  22.641  17.625  1.00  0.00    -0.005 A 
HETATM   13  C22 UNL     1      16.159  22.526  18.727  1.00  0.00     0.018 A 
HETATM   14  N5  UNL     1      16.712  22.474  19.983  1.00  0.00    -0.362 N 
HETATM   15  C20 UNL     1      18.012  22.531  20.143  1.00  0.00     0.012 A 
ATOM     16  H5  UNL     1      16.104  22.390  20.799  1.00  0.00     0.165 HD
HETATM   17  C21 UNL     1      18.577  22.441  21.529  1.00  0.00     0.068 C 
BRANCH  11  18
HETATM   18  C2  UNL     1      19.180  22.830  16.617  1.00  0.00     0.035 C 
HETATM   19  C1  UNL     1      19.239  24.177  15.985  1.00  0.00     0.010 C 
ENDBRANCH  11  18
BRANCH  12  20
HETATM   20  C31 UNL     1      16.488  22.712  16.225  1.00  0.00     0.205 C 
BRANCH  20  21
HETATM   21  O7  UNL     1      16.205  21.553  15.571  1.00  0.00    -0.396 OA
ATOM     22  H7  UNL     1      15.597  21.578  14.843  1.00  0.00     0.209 HD
ENDBRANCH  20  21
ENDBRANCH  12  20
BRANCH  13  23
HETATM   23  C23 UNL     1      14.680  22.382  18.637  1.00  0.00     0.067 C 
BRANCH  23  24
HETATM   24  C24 UNL     1      14.180  21.064  19.176  1.00  0.00     0.117 C 
BRANCH  24  25
HETATM   25  C25 UNL     1      13.530  20.342  18.036  1.00  0.00     0.259 C 
HETATM   26  O5  UNL     1      13.755  20.656  16.851  1.00  0.00    -0.265 OA
BRANCH  25  27
HETATM   27  O6  UNL     1      12.655  19.298  18.266  1.00  0.00    -0.311 OA
BRANCH  27  28
HETATM   28  C26 UNL     1      13.035  18.020  18.686  1.00  0.00     0.060 C 
HETATM   29  C27 UNL     1      12.752  17.804  20.171  1.00  0.00     0.045 C 
HETATM   30  C28 UNL     1      14.462  17.675  18.376  1.00  0.00     0.045 C 
HETATM   31  C29 UNL     1      12.149  16.996  17.964  1.00  0.00     0.045 C 
ENDBRANCH  27  28
ENDBRANCH  25  27
ENDBRANCH  24  25
ENDBRANCH  23  24
ENDBRANCH  13  23
ENDBRANCH   9  10
ENDBRANCH   8   9
ENDBRANCH   1   8
BRANCH   2  32
HETATM   32  C9  UNL     1      23.201  25.247  20.969  1.00  0.00     0.256 C 
HETATM   33  O1  UNL     1      23.620  25.092  19.799  1.00  0.00    -0.270 OA
HETATM   34  N1  UNL     1      24.133  25.635  21.963  1.00  0.00    -0.164 N 
BRANCH  34  35
HETATM   35  O2  UNL     1      23.720  25.810  23.231  1.00  0.00    -0.278 OA
ATOM     36  H2  UNL     1      24.344  26.078  23.896  1.00  0.00     0.245 HD
ENDBRANCH  34  35
BRANCH  34  37
HETATM   37  C10 UNL     1      25.483  25.841  21.638  1.00  0.00     0.385 C 
HETATM   38  O3  UNL     1      26.147  26.852  21.976  1.00  0.00    -0.281 OA
ENDBRANCH  34  37
ENDBRANCH   2  32
BRANCH   6  39
HETATM   39  C14 UNL     1      21.367  26.518  17.129  1.00  0.00     0.145 C 
BRANCH  39  40
HETATM   40  C15 UNL     1      22.003  27.550  16.262  1.00  0.00    -0.002 A 
HETATM   41  C16 UNL     1      21.379  28.266  15.265  1.00  0.00     0.030 A 
HETATM   42  C17 UNL     1      19.963  28.199  14.812  1.00  0.00     0.070 C 
HETATM   43  N3  UNL     1      22.320  29.073  14.755  1.00  0.00    -0.304 N 
HETATM   44  N4  UNL     1      23.471  28.902  15.367  1.00  0.00    -0.304 N 
ATOM     45  H3  UNL     1      22.163  29.733  13.993  1.00  0.00     0.186 HD
HETATM   46  C18 UNL     1      23.316  27.968  16.305  1.00  0.00     0.030 A 
ATOM     47  H4  UNL     1      24.337  29.399  15.158  1.00  0.00     0.186 HD
HETATM   48  C19 UNL     1      24.399  27.482  17.227  1.00  0.00     0.070 C 
ENDBRANCH  39  40
ENDBRANCH   6  39
TORSDOF 16
ENDMDL
MODEL 2
REMARK VINA RESULT: -8.289779014      0.015      1.233
REMARK  16 active torsions:
REMARK  status: ('A' for Active; 'I' for Inactive)
REMARK    1  A    between atoms: C2_2  and  C3_3 
REMARK    2  A    between atoms: C4_4  and  C5_5 
REMARK    3  A    between atoms: C5_5  and  C6_6 
REMARK    4  A    between atoms: C6_6  and  C7_7 
REMARK    5  A    between atoms: C8_8  and  C9_9 
REMARK       I    between atoms: C9_9  and  N1_11 
REMARK    6  A    between atoms: N1_11  and  O2_12 
REMARK    7  A    between atoms: N1_11  and  C10_14 
REMARK       I    between atoms: N2_18  and  C13_19 
REMARK    8  A    between atoms: C13_19  and  C14_21 
REMARK    9  A    between atoms: C14_21  and  C15_22 
REMARK   10  A    between atoms: C22_35  and  C23_36 
REMARK   11  A    between atoms: C23_36  and  C24_37 
REMARK   12  A    between atoms: C24_37  and  C25_38 
REMARK   13  A    between atoms: C25_38  and  O6_40 
REMARK   14  A    between atoms: O6_40  and  C26_41 
REMARK   15  A    between atoms: C30_45  and  C31_46 
REMARK   16  A    between atoms: C31_46  and  O7_47 
ROOT
HETATM    1  C7  UNL     1      20.869  24.977  20.066  1.00  0.00     0.100 C 
HETATM    2  C8  UNL     1      21.764  25.027  21.257  1.00  0.00     0.105 C 
HETATM    3  C11 UNL     1      21.178  26.266  21.954  1.00  0.00     0.036 C 
HETATM    4  C12 UNL     1      20.447  27.038  20.904  1.00  0.00     0.127 C 
HETATM    5  N2  UNL     1      20.832  26.328  19.645  1.00  0.00    -0.346 N 
HETATM    6  C13 UNL     1      21.032  27.039  18.455  1.00  0.00     0.224 C 
HETATM    7  O4  UNL     1      20.916  28.318  18.498  1.00  0.00    -0.273 OA
ENDROOT
BRANCH   1   8
HETATM    8  C6  UNL     1      21.140  23.911  19.059  1.00  0.00     0.031 C 
BRANCH   8   9
HETATM    9  C5  UNL     1      20.339  22.685  19.412  1.00  0.00     0.043 C 
BRANCH   9  10
HETATM   10  C4  UNL     1      18.926  22.646  19.073  1.00  0.00    -0.029 A 
HETATM   11  C3  UNL     1      18.353  22.694  17.830  1.00  0.00    -0.040 A 
HETATM   12  C30 UNL     1      16.950  22.635  17.626  1.00  0.00    -0.005 A 
HETATM   13  C22 UNL     1      16.157  22.524  18.727  1.00  0.00     0.018 A 
HETATM   14  N5  UNL     1      16.709  22.475  19.984  1.00  0.00    -0.362 N 
HETATM   15  C20 UNL     1      18.009  22.531  20.146  1.00  0.00     0.012 A 
ATOM     16  H5  UNL     1      16.100  22.394  20.799  1.00  0.00     0.165 HD
HETATM   17  C21 UNL     1      18.572  22.444  21.533  1.00  0.00     0.068 C 
BRANCH  11  18
HETATM   18  C2  UNL     1      19.182  22.819  16.620  1.00  0.00     0.035 C 
HETATM   19  C1  UNL     1      19.239  24.163  15.981  1.00  0.00     0.010 C 
ENDBRANCH  11  18
BRANCH  12  20
HETATM   20  C31 UNL     1      16.490  22.703  16.226  1.00  0.00     0.205 C 
BRANCH  20  21
HETATM   21  O7  UNL     1      16.208  21.542  15.574  1.00  0.00    -0.396 OA
ATOM     22  H7  UNL     1      15.410  21.487  15.064  1.00  0.00     0.209 HD
ENDBRANCH  20  21
ENDBRANCH  12  20
BRANCH  13  23
HETATM   23  C23 UNL     1      14.679  22.380  18.636  1.00  0.00     0.067 C 
BRANCH  23  24
HETATM   24  C24 UNL     1      14.177  21.065  19.180  1.00  0.00     0.117 C 
BRANCH  24  25
HETATM   25  C25 UNL     1      13.528  20.340  18.040  1.00  0.00     0.259 C 
HETATM   26  O5  UNL     1      13.756  20.648  16.855  1.00  0.00    -0.265 OA
BRANCH  25  27
HETATM   27  O6  UNL     1      12.652  19.298  18.273  1.00  0.00    -0.311 OA
BRANCH  27  28
HETATM   28  C26 UNL     1      13.029  18.020  18.699  1.00  0.00     0.060 C 
HETATM   29  C27 UNL     1      12.743  17.809  20.184  1.00  0.00     0.045 C 
HETATM   30  C28 UNL     1      14.456  17.673  18.393  1.00  0.00     0.045 C 
HETATM   31  C29 UNL     1      12.144  16.995  17.977  1.00  0.00     0.045 C 
ENDBRANCH  27  28
ENDBRANCH  25  27
ENDBRANCH  24  25
ENDBRANCH  23  24
ENDBRANCH  13  23
ENDBRANCH   9  10
ENDBRANCH   8   9
ENDBRANCH   1   8
BRANCH   2  32
HETATM   32  C9  UNL     1      23.197  25.252  20.969  1.00  0.00     0.256 C 
HETATM   33  O1  UNL     1      23.617  25.092  19.801  1.00  0.00    -0.270 OA
HETATM   34  N1  UNL     1      24.127  25.644  21.963  1.00  0.00    -0.164 N 
BRANCH  34  35
HETATM   35  O2  UNL     1      23.713  25.824  23.230  1.00  0.00    -0.278 OA
ATOM     36  H2  UNL     1      24.352  25.957  23.920  1.00  0.00     0.245 HD
ENDBRANCH  34  35
BRANCH  34  37
HETATM   37  C10 UNL     1      25.477  25.851  21.638  1.00  0.00     0.385 C 
HETATM   38  O3  UNL     1      26.144  26.856  21.989  1.00  0.00    -0.281 OA
ENDBRANCH  34  37
ENDBRANCH   2  32
BRANCH   6  39
HETATM   39  C14 UNL     1      21.365  26.504  17.122  1.00  0.00     0.145 C 
BRANCH  39  40
HETATM   40  C15 UNL     1      22.004  27.533  16.253  1.00  0.00    -0.002 A 
HETATM   41  C16 UNL     1      23.321  27.932  16.307  1.00  0.00     0.030 A 
HETATM   42  C17 UNL     1      24.406  27.458  17.209  1.00  0.00     0.070 C 
HETATM   43  N3  UNL     1      23.456  28.865  15.354  1.00  0.00    -0.304 N 
HETATM   44  N4  UNL     1      22.319  29.065  14.724  1.00  0.00    -0.304 N 
ATOM     45  H3  UNL     1      24.326  29.355  15.145  1.00  0.00     0.186 HD
HETATM   46  C18 UNL     1      21.397  28.260  15.252  1.00  0.00     0.030 A 
ATOM     47  H4  UNL     1      22.168  29.725  13.961  1.00  0.00     0.186 HD
HETATM   48  C19 UNL     1      19.962  28.184  14.809  1.00  0.00     0.070 C 
ENDBRANCH  39  40
ENDBRANCH   6  39
TORSDOF 16
ENDMDL
MODEL 3
REMARK VINA RESULT: -8.099384750      1.425      2.227
REMARK  16 active torsions:
REMARK  status: ('A' for Active; 'I' for Inactive)
REMARK    1  A    between atoms: C2_2  and  C3_3 
REMARK    2  A    between atoms: C4_4  and  C5_5 
REMARK    3  A    between atoms: C5_5  and  C6_6 
REMARK    4  A    between atoms: C6_6  and  C7_7 
REMARK    5  A    between atoms: C8_8  and  C9_9 
REMARK       I    between atoms: C9_9  and  N1_11 
REMARK    6  A    between atoms: N1_11  and  O2_12 
REMARK    7  A    between atoms: N1_11  and  C10_14 
REMARK       I    between atoms: N2_18  and  C13_19 
REMARK    8  A    between atoms: C13_19  and  C14_21 
REMARK    9  A    between atoms: C14_21  and  C15_22 
REMARK   10  A    between atoms: C22_35  and  C23_36 
REMARK   11  A    between atoms: C23_36  and  C24_37 
REMARK   12  A    between atoms: C24_37  and  C25_38 
REMARK   13  A    between atoms: C25_38  and  O6_40 
REMARK   14  A    between atoms: O6_40  and  C26_41 
REMARK   15  A    between atoms: C30_45  and  C31_46 
REMARK   16  A    between atoms: C31_46  and  O7_47 
ROOT
HETATM    1  C7  UNL     1      21.105  25.180  20.346  1.00  0.00     0.100 C 
HETATM    2  C8  UNL     1      21.990  25.315  21.538  1.00  0.00     0.105 C 
HETATM    3  C11 UNL     1      21.364  26.570  22.169  1.00  0.00     0.036 C 
HETATM    4  C12 UNL     1      20.619  27.267  21.077  1.00  0.00     0.127 C 
HETATM    5  N2  UNL     1      21.032  26.507  19.858  1.00  0.00    -0.346 N 
HETATM    6  C13 UNL     1      21.220  27.163  18.635  1.00  0.00     0.224 C 
HETATM    7  O4  UNL     1      21.067  28.438  18.613  1.00  0.00    -0.273 OA
ENDROOT
BRANCH   1   8
HETATM    8  C6  UNL     1      21.413  24.073  19.395  1.00  0.00     0.031 C 
BRANCH   8   9
HETATM    9  C5  UNL     1      20.467  22.929  19.649  1.00  0.00     0.043 C 
BRANCH   9  10
HETATM   10  C4  UNL     1      19.080  23.057  19.233  1.00  0.00    -0.029 A 
HETATM   11  C3  UNL     1      18.584  23.693  18.126  1.00  0.00    -0.040 A 
HETATM   12  C30 UNL     1      17.200  23.739  17.820  1.00  0.00    -0.005 A 
HETATM   13  C22 UNL     1      16.344  23.117  18.676  1.00  0.00     0.018 A 
HETATM   14  N5  UNL     1      16.817  22.473  19.793  1.00  0.00    -0.362 N 
HETATM   15  C20 UNL     1      18.102  22.445  20.054  1.00  0.00     0.012 A 
ATOM     16  H5  UNL     1      16.162  22.013  20.426  1.00  0.00     0.165 HD
HETATM   17  C21 UNL     1      18.580  21.706  21.268  1.00  0.00     0.068 C 
BRANCH  11  18
HETATM   18  C2  UNL     1      19.483  24.380  17.184  1.00  0.00     0.035 C 
HETATM   19  C1  UNL     1      19.683  23.735  15.856  1.00  0.00     0.010 C 
ENDBRANCH  11  18
BRANCH  12  20
HETATM   20  C31 UNL     1      16.825  24.467  16.592  1.00  0.00     0.205 C 
BRANCH  20  21
HETATM   21  O7  UNL     1      16.332  25.730  16.706  1.00  0.00    -0.396 OA
ATOM     22  H7  UNL     1      16.318  26.286  15.936  1.00  0.00     0.209 HD
ENDBRANCH  20  21
ENDBRANCH  12  20
BRANCH  13  23
HETATM   23  C23 UNL     1      14.880  23.035  18.423  1.00  0.00     0.067 C 
BRANCH  23  24
HETATM   24  C24 UNL     1      14.320  21.648  18.628  1.00  0.00     0.117 C 
BRANCH  24  25
HETATM   25  C25 UNL     1      13.911  21.138  17.280  1.00  0.00     0.259 C 
HETATM   26  O5  UNL     1      12.823  20.558  17.103  1.00  0.00    -0.265 OA
BRANCH  25  27
HETATM   27  O6  UNL     1      14.736  21.298  16.183  1.00  0.00    -0.311 OA
BRANCH  27  28
HETATM   28  C26 UNL     1      14.317  21.764  14.933  1.00  0.00     0.060 C 
HETATM   29  C27 UNL     1      13.497  23.047  15.052  1.00  0.00     0.045 C 
HETATM   30  C28 UNL     1      13.570  20.747  14.122  1.00  0.00     0.045 C 
HETATM   31  C29 UNL     1      15.562  22.165  14.131  1.00  0.00     0.045 C 
ENDBRANCH  27  28
ENDBRANCH  25  27
ENDBRANCH  24  25
ENDBRANCH  23  24
ENDBRANCH  13  23
ENDBRANCH   9  10
ENDBRANCH   8   9
ENDBRANCH   1   8
BRANCH   2  32
HETATM   32  C9  UNL     1      23.418  25.567  21.246  1.00  0.00     0.256 C 
HETATM   33  O1  UNL     1      23.790  25.664  20.055  1.00  0.00    -0.270 OA
HETATM   34  N1  UNL     1      24.395  25.706  22.262  1.00  0.00    -0.164 N 
BRANCH  34  35
HETATM   35  O2  UNL     1      24.034  25.606  23.554  1.00  0.00    -0.278 OA
ATOM     36  H2  UNL     1      24.404  26.203  24.194  1.00  0.00     0.245 HD
ENDBRANCH  34  35
BRANCH  34  37
HETATM   37  C10 UNL     1      25.739  25.949  21.935  1.00  0.00     0.385 C 
HETATM   38  O3  UNL     1      26.283  27.081  21.972  1.00  0.00    -0.281 OA
ENDBRANCH  34  37
ENDBRANCH   2  32
BRANCH   6  39
HETATM   39  C14 UNL     1      21.576  26.572  17.332  1.00  0.00     0.145 C 
BRANCH  39  40
HETATM   40  C15 UNL     1      22.130  27.589  16.393  1.00  0.00    -0.002 A 
HETATM   41  C16 UNL     1      21.432  28.236  15.399  1.00  0.00     0.030 A 
HETATM   42  C17 UNL     1      20.000  28.098  15.018  1.00  0.00     0.070 C 
HETATM   43  N3  UNL     1      22.315  29.055  14.810  1.00  0.00    -0.304 N 
HETATM   44  N4  UNL     1      23.500  28.953  15.370  1.00  0.00    -0.304 N 
ATOM     45  H3  UNL     1      22.097  29.674  14.029  1.00  0.00     0.186 HD
HETATM   46  C18 UNL     1      23.426  28.056  16.354  1.00  0.00     0.030 A 
ATOM     47  H4  UNL     1      24.335  29.472  15.099  1.00  0.00     0.186 HD
HETATM   48  C19 UNL     1      24.570  27.651  17.241  1.00  0.00     0.070 C 
ENDBRANCH  39  40
ENDBRANCH   6  39
TORSDOF 16
ENDMDL
MODEL 4
REMARK VINA RESULT: -7.908120903      1.192      2.175
REMARK  16 active torsions:
REMARK  status: ('A' for Active; 'I' for Inactive)
REMARK    1  A    between atoms: C2_2  and  C3_3 
REMARK    2  A    between atoms: C4_4  and  C5_5 
REMARK    3  A    between atoms: C5_5  and  C6_6 
REMARK    4  A    between atoms: C6_6  and  C7_7 
REMARK    5  A    between atoms: C8_8  and  C9_9 
REMARK       I    between atoms: C9_9  and  N1_11 
REMARK    6  A    between atoms: N1_11  and  O2_12 
REMARK    7  A    between atoms: N1_11  and  C10_14 
REMARK       I    between atoms: N2_18  and  C13_19 
REMARK    8  A    between atoms: C13_19  and  C14_21 
REMARK    9  A    between atoms: C14_21  and  C15_22 
REMARK   10  A    between atoms: C22_35  and  C23_36 
REMARK   11  A    between atoms: C23_36  and  C24_37 
REMARK   12  A    between atoms: C24_37  and  C25_38 
REMARK   13  A    between atoms: C25_38  and  O6_40 
REMARK   14  A    between atoms: O6_40  and  C26_41 
REMARK   15  A    between atoms: C30_45  and  C31_46 
REMARK   16  A    between atoms: C31_46  and  O7_47 
ROOT
HETATM    1  C7  UNL     1      20.898  25.011  20.088  1.00  0.00     0.100 C 
HETATM    2  C8  UNL     1      21.801  25.057  21.273  1.00  0.00     0.105 C 
HETATM    3  C11 UNL     1      21.226  26.299  21.973  1.00  0.00     0.036 C 
HETATM    4  C12 UNL     1      20.493  27.075  20.928  1.00  0.00     0.127 C 
HETATM    5  N2  UNL     1      20.865  26.363  19.667  1.00  0.00    -0.346 N 
HETATM    6  C13 UNL     1      21.062  27.073  18.475  1.00  0.00     0.224 C 
HETATM    7  O4  UNL     1      20.953  28.352  18.519  1.00  0.00    -0.273 OA
ENDROOT
BRANCH   1   8
HETATM    8  C6  UNL     1      21.156  23.944  19.079  1.00  0.00     0.031 C 
BRANCH   8   9
HETATM    9  C5  UNL     1      20.243  22.778  19.352  1.00  0.00     0.043 C 
BRANCH   9  10
HETATM   10  C4  UNL     1      18.867  22.839  18.886  1.00  0.00    -0.029 A 
HETATM   11  C3  UNL     1      18.414  23.011  17.606  1.00  0.00    -0.040 A 
HETATM   12  C30 UNL     1      17.035  23.041  17.274  1.00  0.00    -0.005 A 
HETATM   13  C22 UNL     1      16.140  22.888  18.288  1.00  0.00     0.018 A 
HETATM   14  N5  UNL     1      16.569  22.715  19.580  1.00  0.00    -0.362 N 
HETATM   15  C20 UNL     1      17.850  22.691  19.861  1.00  0.00     0.012 A 
ATOM     16  H5  UNL     1      15.885  22.604  20.329  1.00  0.00     0.165 HD
HETATM   17  C21 UNL     1      18.277  22.469  21.281  1.00  0.00     0.068 C 
BRANCH  11  18
HETATM   18  C2  UNL     1      19.356  23.184  16.488  1.00  0.00     0.035 C 
HETATM   19  C1  UNL     1      19.270  24.463  15.729  1.00  0.00     0.010 C 
ENDBRANCH  11  18
BRANCH  12  20
HETATM   20  C31 UNL     1      16.710  23.239  15.848  1.00  0.00     0.205 C 
BRANCH  20  21
HETATM   21  O7  UNL     1      16.475  22.145  15.074  1.00  0.00    -0.396 OA
ATOM     22  H7  UNL     1      15.618  21.739  15.106  1.00  0.00     0.209 HD
ENDBRANCH  20  21
ENDBRANCH  12  20
BRANCH  13  23
HETATM   23  C23 UNL     1      14.671  22.829  18.054  1.00  0.00     0.067 C 
BRANCH  23  24
HETATM   24  C24 UNL     1      14.047  21.539  18.528  1.00  0.00     0.117 C 
BRANCH  24  25
HETATM   25  C25 UNL     1      14.206  20.544  17.419  1.00  0.00     0.259 C 
HETATM   26  O5  UNL     1      14.313  19.324  17.648  1.00  0.00    -0.265 OA
BRANCH  25  27
HETATM   27  O6  UNL     1      14.237  20.953  16.100  1.00  0.00    -0.311 OA
BRANCH  27  28
HETATM   28  C26 UNL     1      13.116  21.051  15.271  1.00  0.00     0.060 C 
HETATM   29  C27 UNL     1      12.836  22.496  14.864  1.00  0.00     0.045 C 
HETATM   30  C28 UNL     1      11.878  20.427  15.843  1.00  0.00     0.045 C 
HETATM   31  C29 UNL     1      13.429  20.325  13.956  1.00  0.00     0.045 C 
ENDBRANCH  27  28
ENDBRANCH  25  27
ENDBRANCH  24  25
ENDBRANCH  23  24
ENDBRANCH  13  23
ENDBRANCH   9  10
ENDBRANCH   8   9
ENDBRANCH   1   8
BRANCH   2  32
HETATM   32  C9  UNL     1      23.233  25.274  20.976  1.00  0.00     0.256 C 
HETATM   33  O1  UNL     1      23.649  25.090  19.809  1.00  0.00    -0.270 OA
HETATM   34  N1  UNL     1      24.167  25.686  21.958  1.00  0.00    -0.164 N 
BRANCH  34  35
HETATM   35  O2  UNL     1      23.758  25.892  23.222  1.00  0.00    -0.278 OA
ATOM     36  H2  UNL     1      24.280  25.565  23.946  1.00  0.00     0.245 HD
ENDBRANCH  34  35
BRANCH  34  37
HETATM   37  C10 UNL     1      25.517  25.884  21.625  1.00  0.00     0.385 C 
HETATM   38  O3  UNL     1      26.227  26.819  22.072  1.00  0.00    -0.281 OA
ENDBRANCH  34  37
ENDBRANCH   2  32
BRANCH   6  39
HETATM   39  C14 UNL     1      21.383  26.535  17.140  1.00  0.00     0.145 C 
BRANCH  39  40
HETATM   40  C15 UNL     1      22.021  27.561  16.266  1.00  0.00    -0.002 A 
HETATM   41  C16 UNL     1      23.330  27.980  16.336  1.00  0.00     0.030 A 
HETATM   42  C17 UNL     1      24.407  27.537  17.263  1.00  0.00     0.070 C 
HETATM   43  N3  UNL     1      23.467  28.901  15.371  1.00  0.00    -0.304 N 
HETATM   44  N4  UNL     1      22.338  29.074  14.720  1.00  0.00    -0.304 N 
ATOM     45  H3  UNL     1      24.333  29.401  15.169  1.00  0.00     0.186 HD
HETATM   46  C18 UNL     1      21.420  28.263  15.244  1.00  0.00     0.030 A 
ATOM     47  H4  UNL     1      22.190  29.720  13.944  1.00  0.00     0.186 HD
HETATM   48  C19 UNL     1      19.994  28.158  14.779  1.00  0.00     0.070 C 
ENDBRANCH  39  40
ENDBRANCH   6  39
TORSDOF 16
ENDMDL
MODEL 5
REMARK VINA RESULT: -7.777041790      3.814     11.849
REMARK  16 active torsions:
REMARK  status: ('A' for Active; 'I' for Inactive)
REMARK    1  A    between atoms: C2_2  and  C3_3 
REMARK    2  A    between atoms: C4_4  and  C5_5 
REMARK    3  A    between atoms: C5_5  and  C6_6 
REMARK    4  A    between atoms: C6_6  and  C7_7 
REMARK    5  A    between atoms: C8_8  and  C9_9 
REMARK       I    between atoms: C9_9  and  N1_11 
REMARK    6  A    between atoms: N1_11  and  O2_12 
REMARK    7  A    between atoms: N1_11  and  C10_14 
REMARK       I    between atoms: N2_18  and  C13_19 
REMARK    8  A    between atoms: C13_19  and  C14_21 
REMARK    9  A    between atoms: C14_21  and  C15_22 
REMARK   10  A    between atoms: C22_35  and  C23_36 
REMARK   11  A    between atoms: C23_36  and  C24_37 
REMARK   12  A    between atoms: C24_37  and  C25_38 
REMARK   13  A    between atoms: C25_38  and  O6_40 
REMARK   14  A    between atoms: O6_40  and  C26_41 
REMARK   15  A    between atoms: C30_45  and  C31_46 
REMARK   16  A    between atoms: C31_46  and  O7_47 
ROOT
HETATM    1  C7  UNL     1      12.788  20.986  15.333  1.00  0.00     0.100 C 
HETATM    2  C8  UNL     1      12.239  20.998  13.947  1.00  0.00     0.105 C 
HETATM    3  C11 UNL     1      10.970  21.831  14.191  1.00  0.00     0.036 C 
HETATM    4  C12 UNL     1      10.676  21.737  15.653  1.00  0.00     0.127 C 
HETATM    5  N2  UNL     1      11.646  20.699  16.119  1.00  0.00    -0.346 N 
HETATM    6  C13 UNL     1      11.290  19.785  17.120  1.00  0.00     0.224 C 
HETATM    7  O4  UNL     1      10.094  19.847  17.585  1.00  0.00    -0.273 OA
ENDROOT
BRANCH   1   8
HETATM    8  C6  UNL     1      14.039  20.207  15.560  1.00  0.00     0.031 C 
BRANCH   8   9
HETATM    9  C5  UNL     1      15.215  21.011  15.072  1.00  0.00     0.043 C 
BRANCH   9  10
HETATM   10  C4  UNL     1      15.982  21.788  16.033  1.00  0.00    -0.029 A 
HETATM   11  C3  UNL     1      16.347  21.439  17.306  1.00  0.00    -0.040 A 
HETATM   12  C30 UNL     1      17.112  22.285  18.147  1.00  0.00    -0.005 A 
HETATM   13  C22 UNL     1      17.493  23.493  17.648  1.00  0.00     0.018 A 
HETATM   14  N5  UNL     1      17.139  23.867  16.375  1.00  0.00    -0.362 N 
HETATM   15  C20 UNL     1      16.430  23.066  15.616  1.00  0.00     0.012 A 
ATOM     16  H5  UNL     1      17.431  24.776  16.016  1.00  0.00     0.165 HD
HETATM   17  C21 UNL     1      16.091  23.499  14.222  1.00  0.00     0.068 C 
BRANCH  11  18
HETATM   18  C2  UNL     1      15.946  20.142  17.877  1.00  0.00     0.035 C 
HETATM   19  C1  UNL     1      14.891  20.168  18.927  1.00  0.00     0.010 C 
ENDBRANCH  11  18
BRANCH  12  20
HETATM   20  C31 UNL     1      17.419  21.764  19.494  1.00  0.00     0.205 C 
BRANCH  20  21
HETATM   21  O7  UNL     1      18.691  21.365  19.765  1.00  0.00    -0.396 OA
ATOM     22  H7  UNL     1      19.382  22.017  19.773  1.00  0.00     0.209 HD
ENDBRANCH  20  21
ENDBRANCH  12  20
BRANCH  13  23
HETATM   23  C23 UNL     1      18.359  24.435  18.409  1.00  0.00     0.067 C 
BRANCH  23  24
HETATM   24  C24 UNL     1      19.762  24.524  17.860  1.00  0.00     0.117 C 
BRANCH  24  25
HETATM   25  C25 UNL     1      19.966  25.937  17.407  1.00  0.00     0.259 C 
HETATM   26  O5  UNL     1      20.859  26.657  17.892  1.00  0.00    -0.265 OA
BRANCH  25  27
HETATM   27  O6  UNL     1      19.163  26.488  16.427  1.00  0.00    -0.311 OA
BRANCH  27  28
HETATM   28  C26 UNL     1      19.582  26.778  15.125  1.00  0.00     0.060 C 
HETATM   29  C27 UNL     1      20.653  25.803  14.642  1.00  0.00     0.045 C 
HETATM   30  C28 UNL     1      20.046  28.192  14.936  1.00  0.00     0.045 C 
HETATM   31  C29 UNL     1      18.393  26.557  14.180  1.00  0.00     0.045 C 
ENDBRANCH  27  28
ENDBRANCH  25  27
ENDBRANCH  24  25
ENDBRANCH  23  24
ENDBRANCH  13  23
ENDBRANCH   9  10
ENDBRANCH   8   9
ENDBRANCH   1   8
BRANCH   2  32
HETATM   32  C9  UNL     1      11.867  19.676  13.397  1.00  0.00     0.256 C 
HETATM   33  O1  UNL     1      10.683  19.284  13.501  1.00  0.00    -0.270 OA
HETATM   34  N1  UNL     1      12.796  18.826  12.750  1.00  0.00    -0.164 N 
BRANCH  34  35
HETATM   35  O2  UNL     1      14.077  19.213  12.620  1.00  0.00    -0.278 OA
ATOM     36  H2  UNL     1      14.637  18.783  11.984  1.00  0.00     0.245 HD
ENDBRANCH  34  35
BRANCH  34  37
HETATM   37  C10 UNL     1      12.392  17.581  12.239  1.00  0.00     0.385 C 
HETATM   38  O3  UNL     1      13.179  16.714  11.784  1.00  0.00    -0.281 OA
ENDBRANCH  34  37
ENDBRANCH   2  32
BRANCH   6  39
HETATM   39  C14 UNL     1      12.126  18.736  17.730  1.00  0.00     0.145 C 
BRANCH  39  40
HETATM   40  C15 UNL     1      11.324  17.805  18.573  1.00  0.00    -0.002 A 
HETATM   41  C16 UNL     1      10.464  16.834  18.111  1.00  0.00     0.030 A 
HETATM   42  C17 UNL     1      10.126  16.473  16.708  1.00  0.00     0.070 C 
HETATM   43  N3  UNL     1       9.965  16.242  19.206  1.00  0.00    -0.304 N 
HETATM   44  N4  UNL     1      10.457  16.781  20.300  1.00  0.00    -0.304 N 
ATOM     45  H3  UNL     1       9.293  15.475  19.192  1.00  0.00     0.186 HD
HETATM   46  C18 UNL     1      11.301  17.751  19.950  1.00  0.00     0.030 A 
ATOM     47  H4  UNL     1      10.230  16.504  21.255  1.00  0.00     0.186 HD
HETATM   48  C19 UNL     1      12.072  18.613  20.910  1.00  0.00     0.070 C 
ENDBRANCH  39  40
ENDBRANCH   6  39
TORSDOF 16
ENDMDL
