MODEL 1
REMARK VINA RESULT: -11.135533848      0.000      0.000
REMARK  6 active torsions:
REMARK  status: ('A' for Active; 'I' for Inactive)
REMARK    1  A    between atoms: C4_4  and  C5_5 
REMARK    2  A    between atoms: C5_5  and  N1_6 
REMARK    3  A    between atoms: N1_6  and  C6_8 
REMARK    4  A    between atoms: N3_12  and  C8_14 
REMARK    5  A    between atoms: C15_23  and  N5_24 
REMARK    6  A    between atoms: N5_24  and  C16_26 
ROOT
HETATM    1  C6  UNL     1      12.566   6.792  -6.658  1.00  0.00     0.707 A 
HETATM    2  N2  UNL     1      12.280   5.748  -7.473  1.00  0.00    -0.022 N 
ATOM      3  H2  UNL     1      12.678   4.829  -7.278  1.00  0.00     0.203 HD
HETATM    4  C7  UNL     1      11.476   5.914  -8.537  1.00  0.00     0.707 A 
HETATM    5  N3  UNL     1      11.202   4.944  -9.307  1.00  0.00    -0.220 N 
ATOM      6  H3  UNL     1      10.584   5.155 -10.091  1.00  0.00     0.178 HD
HETATM    7  N4  UNL     1      10.947   7.148  -8.792  1.00  0.00    -0.021 N 
ATOM      8  H4  UNL     1      10.337   7.275  -9.599  1.00  0.00     0.203 HD
HETATM    9  C15 UNL     1      11.218   8.194  -7.996  1.00  0.00     0.707 A 
HETATM   10  N6  UNL     1      12.026   7.984  -6.944  1.00  0.00    -0.022 N 
ATOM     11  H6  UNL     1      12.240   8.772  -6.332  1.00  0.00     0.203 HD
ENDROOT
BRANCH   1  12
HETATM   12  N1  UNL     1      13.339   6.575  -5.657  1.00  0.00    -0.225 N 
ATOM     13  H1  UNL     1      13.210   7.151  -4.825  1.00  0.00     0.177 HD
BRANCH  12  14
HETATM   14  C5  UNL     1      14.371   5.581  -5.625  1.00  0.00     0.142 C 
BRANCH  14  15
HETATM   15  C4  UNL     1      13.873   4.360  -4.896  1.00  0.00     0.004 C 
HETATM   16  C3  UNL     1      14.769   4.144  -3.702  1.00  0.00     0.006 C 
HETATM   17  C2  UNL     1      14.365   2.851  -3.030  1.00  0.00     0.000 C 
HETATM   18  C1  UNL     1      14.675   1.732  -4.024  1.00  0.00     0.000 C 
HETATM   19  C23 UNL     1      13.694   1.869  -5.162  1.00  0.00     0.000 C 
HETATM   20  C22 UNL     1      13.867   3.203  -5.838  1.00  0.00     0.006 C 
ENDBRANCH  14  15
ENDBRANCH  12  14
ENDBRANCH   1  12
BRANCH   9  21
HETATM   21  N5  UNL     1      10.752   9.345  -8.194  1.00  0.00    -0.220 N 
ATOM     22  H5  UNL     1      10.604   9.908  -7.357  1.00  0.00     0.178 HD
BRANCH  21  23
HETATM   23  C16 UNL     1      10.403   9.971  -9.423  1.00  0.00     0.099 C 
HETATM   24  C17 UNL     1      11.452  10.838 -10.022  1.00  0.00     0.026 C 
HETATM   25  C18 UNL     1      11.038  11.102 -11.475  1.00  0.00     0.002 C 
HETATM   26  C19 UNL     1       9.648  11.679 -11.502  1.00  0.00     0.000 C 
HETATM   27  C20 UNL     1       9.153  12.027 -10.098  1.00  0.00     0.002 C 
HETATM   28  C21 UNL     1       9.167  10.816  -9.191  1.00  0.00     0.026 C 
ENDBRANCH  21  23
ENDBRANCH   9  21
BRANCH   5  29
HETATM   29  C8  UNL     1      11.656   3.582  -9.209  1.00  0.00     0.099 C 
HETATM   30  C9  UNL     1      12.998   3.491  -9.895  1.00  0.00     0.026 C 
HETATM   31  C10 UNL     1      13.561   2.113  -9.943  1.00  0.00     0.002 C 
HETATM   32  C11 UNL     1      12.700   1.057  -9.333  1.00  0.00     0.000 C 
HETATM   33  C12 UNL     1      11.701   0.610 -10.394  1.00  0.00     0.000 C 
HETATM   34  C13 UNL     1      11.160   1.896 -11.021  1.00  0.00     0.002 C 
HETATM   35  C14 UNL     1      10.613   2.733  -9.901  1.00  0.00     0.026 C 
ENDBRANCH   5  29
TORSDOF 6
ENDMDL
MODEL 2
REMARK VINA RESULT: -10.721114167      1.088      1.829
REMARK  6 active torsions:
REMARK  status: ('A' for Active; 'I' for Inactive)
REMARK    1  A    between atoms: C4_4  and  C5_5 
REMARK    2  A    between atoms: C5_5  and  N1_6 
REMARK    3  A    between atoms: N1_6  and  C6_8 
REMARK    4  A    between atoms: N3_12  and  C8_14 
REMARK    5  A    between atoms: C15_23  and  N5_24 
REMARK    6  A    between atoms: N5_24  and  C16_26 
ROOT
HETATM    1  C6  UNL     1      13.328   5.791  -6.250  1.00  0.00     0.707 A 
HETATM    2  N2  UNL     1      12.877   4.884  -7.150  1.00  0.00    -0.022 N 
ATOM      3  H2  UNL     1      13.158   3.907  -7.068  1.00  0.00     0.203 HD
HETATM    4  C7  UNL     1      12.063   5.262  -8.149  1.00  0.00     0.707 A 
HETATM    5  N3  UNL     1      11.634   4.422  -8.998  1.00  0.00    -0.220 N 
ATOM      6  H3  UNL     1      11.020   4.792  -9.724  1.00  0.00     0.178 HD
HETATM    7  N4  UNL     1      11.691   6.574  -8.252  1.00  0.00    -0.021 N 
ATOM      8  H4  UNL     1      11.073   6.862  -9.011  1.00  0.00     0.203 HD
HETATM    9  C15 UNL     1      12.126   7.486  -7.370  1.00  0.00     0.707 A 
HETATM   10  N6  UNL     1      12.940   7.066  -6.387  1.00  0.00    -0.022 N 
ATOM     11  H6  UNL     1      13.279   7.751  -5.711  1.00  0.00     0.203 HD
ENDROOT
BRANCH   1  12
HETATM   12  N1  UNL     1      14.104   5.374  -5.317  1.00  0.00    -0.225 N 
ATOM     13  H1  UNL     1      15.066   5.712  -5.313  1.00  0.00     0.177 HD
BRANCH  12  14
HETATM   14  C5  UNL     1      13.713   4.465  -4.278  1.00  0.00     0.142 C 
BRANCH  14  15
HETATM   15  C4  UNL     1      14.483   3.179  -4.419  1.00  0.00     0.004 C 
HETATM   16  C3  UNL     1      13.485   2.074  -4.664  1.00  0.00     0.006 C 
HETATM   17  C2  UNL     1      14.227   0.756  -4.681  1.00  0.00     0.000 C 
HETATM   18  C1  UNL     1      14.774   0.551  -3.268  1.00  0.00     0.000 C 
HETATM   19  C23 UNL     1      15.863   1.575  -3.065  1.00  0.00     0.000 C 
HETATM   20  C22 UNL     1      15.298   2.965  -3.187  1.00  0.00     0.006 C 
ENDBRANCH  14  15
ENDBRANCH  12  14
ENDBRANCH   1  12
BRANCH   9  21
HETATM   21  N5  UNL     1      11.809   8.702  -7.429  1.00  0.00    -0.220 N 
ATOM     22  H5  UNL     1      11.591   9.142  -6.534  1.00  0.00     0.178 HD
BRANCH  21  23
HETATM   23  C16 UNL     1      11.712   9.549  -8.567  1.00  0.00     0.099 C 
HETATM   24  C17 UNL     1      10.338   9.995  -8.921  1.00  0.00     0.026 C 
HETATM   25  C18 UNL     1      10.486  11.162  -9.905  1.00  0.00     0.002 C 
HETATM   26  C19 UNL     1      11.333  10.728 -11.072  1.00  0.00     0.000 C 
HETATM   27  C20 UNL     1      11.608   9.225 -11.042  1.00  0.00     0.002 C 
HETATM   28  C21 UNL     1      12.293   8.814  -9.757  1.00  0.00     0.026 C 
ENDBRANCH  21  23
ENDBRANCH   9  21
BRANCH   5  29
HETATM   29  C8  UNL     1      11.908   3.011  -9.059  1.00  0.00     0.099 C 
HETATM   30  C9  UNL     1      13.206   2.824  -9.807  1.00  0.00     0.026 C 
HETATM   31  C10 UNL     1      13.583   1.399 -10.020  1.00  0.00     0.002 C 
HETATM   32  C11 UNL     1      12.609   0.401  -9.486  1.00  0.00     0.000 C 
HETATM   33  C12 UNL     1      11.529   0.202 -10.545  1.00  0.00     0.000 C 
HETATM   34  C13 UNL     1      11.144   1.607 -11.012  1.00  0.00     0.002 C 
HETATM   35  C14 UNL     1      10.744   2.380  -9.790  1.00  0.00     0.026 C 
ENDBRANCH   5  29
TORSDOF 6
ENDMDL
MODEL 3
REMARK VINA RESULT: -10.474869996      1.295      7.036
REMARK  6 active torsions:
REMARK  status: ('A' for Active; 'I' for Inactive)
REMARK    1  A    between atoms: C4_4  and  C5_5 
REMARK    2  A    between atoms: C5_5  and  N1_6 
REMARK    3  A    between atoms: N1_6  and  C6_8 
REMARK    4  A    between atoms: N3_12  and  C8_14 
REMARK    5  A    between atoms: C15_23  and  N5_24 
REMARK    6  A    between atoms: N5_24  and  C16_26 
ROOT
HETATM    1  C6  UNL     1      12.130   5.337  -8.646  1.00  0.00     0.707 A 
HETATM    2  N2  UNL     1      11.756   6.544  -9.133  1.00  0.00    -0.022 N 
ATOM      3  H2  UNL     1      11.332   6.608 -10.059  1.00  0.00     0.203 HD
HETATM    4  C7  UNL     1      11.938   7.659  -8.406  1.00  0.00     0.707 A 
HETATM    5  N3  UNL     1      11.592   8.795  -8.852  1.00  0.00    -0.220 N 
ATOM      6  H3  UNL     1      11.766   9.590  -8.237  1.00  0.00     0.178 HD
HETATM    7  N4  UNL     1      12.506   7.567  -7.166  1.00  0.00    -0.021 N 
ATOM      8  H4  UNL     1      12.646   8.412  -6.614  1.00  0.00     0.203 HD
HETATM    9  C15 UNL     1      12.882   6.380  -6.666  1.00  0.00     0.707 A 
HETATM   10  N6  UNL     1      12.682   5.290  -7.426  1.00  0.00    -0.022 N 
ATOM     11  H6  UNL     1      12.965   4.382  -7.057  1.00  0.00     0.203 HD
ENDROOT
BRANCH   1  12
HETATM   12  N1  UNL     1      11.931   4.306  -9.384  1.00  0.00    -0.225 N 
ATOM     13  H1  UNL     1      10.977   4.120  -9.692  1.00  0.00     0.177 HD
BRANCH  12  14
HETATM   14  C5  UNL     1      12.956   3.397  -9.806  1.00  0.00     0.142 C 
BRANCH  14  15
HETATM   15  C4  UNL     1      12.724   2.048  -9.178  1.00  0.00     0.004 C 
HETATM   16  C3  UNL     1      13.499   2.007  -7.885  1.00  0.00     0.006 C 
HETATM   17  C2  UNL     1      13.382   0.616  -7.302  1.00  0.00     0.000 C 
HETATM   18  C1  UNL     1      14.096  -0.321  -8.276  1.00  0.00     0.000 C 
HETATM   19  C23 UNL     1      13.254  -0.383  -9.526  1.00  0.00     0.000 C 
HETATM   20  C22 UNL     1      13.139   0.987 -10.141  1.00  0.00     0.006 C 
ENDBRANCH  14  15
ENDBRANCH  12  14
ENDBRANCH   1  12
BRANCH   9  21
HETATM   21  N5  UNL     1      13.408   6.250  -5.531  1.00  0.00    -0.220 N 
ATOM     22  H5  UNL     1      13.452   7.099  -4.968  1.00  0.00     0.178 HD
BRANCH  21  23
HETATM   23  C16 UNL     1      13.949   5.084  -4.922  1.00  0.00     0.099 C 
HETATM   24  C17 UNL     1      13.249   4.614  -3.697  1.00  0.00     0.026 C 
HETATM   25  C18 UNL     1      13.732   3.185  -3.425  1.00  0.00     0.002 C 
HETATM   26  C19 UNL     1      15.235   3.174  -3.339  1.00  0.00     0.000 C 
HETATM   27  C20 UNL     1      15.811   4.590  -3.331  1.00  0.00     0.002 C 
HETATM   28  C21 UNL     1      15.395   5.363  -4.563  1.00  0.00     0.026 C 
ENDBRANCH  21  23
ENDBRANCH   9  21
BRANCH   5  29
HETATM   29  C8  UNL     1      10.984   9.098 -10.121  1.00  0.00     0.099 C 
HETATM   30  C9  UNL     1      12.062   9.040 -11.176  1.00  0.00     0.026 C 
HETATM   31  C10 UNL     1      11.595   9.411 -12.541  1.00  0.00     0.002 C 
HETATM   32  C11 UNL     1      10.157   9.801 -12.632  1.00  0.00     0.000 C 
HETATM   33  C12 UNL     1      10.059  11.280 -12.271  1.00  0.00     0.000 C 
HETATM   34  C13 UNL     1      10.915  11.457 -11.016  1.00  0.00     0.002 C 
HETATM   35  C14 UNL     1      10.398  10.487  -9.994  1.00  0.00     0.026 C 
ENDBRANCH   5  29
TORSDOF 6
ENDMDL
MODEL 4
REMARK VINA RESULT: -10.362850999      1.068      7.519
REMARK  6 active torsions:
REMARK  status: ('A' for Active; 'I' for Inactive)
REMARK    1  A    between atoms: C4_4  and  C5_5 
REMARK    2  A    between atoms: C5_5  and  N1_6 
REMARK    3  A    between atoms: N1_6  and  C6_8 
REMARK    4  A    between atoms: N3_12  and  C8_14 
REMARK    5  A    between atoms: C15_23  and  N5_24 
REMARK    6  A    between atoms: N5_24  and  C16_26 
ROOT
HETATM    1  C6  UNL     1      12.045   5.453  -8.488  1.00  0.00     0.707 A 
HETATM    2  N2  UNL     1      11.671   6.683  -8.916  1.00  0.00    -0.022 N 
ATOM      3  H2  UNL     1      11.200   6.785  -9.816  1.00  0.00     0.203 HD
HETATM    4  C7  UNL     1      11.915   7.770  -8.165  1.00  0.00     0.707 A 
HETATM    5  N3  UNL     1      11.569   8.926  -8.555  1.00  0.00    -0.220 N 
ATOM      6  H3  UNL     1      11.790   9.697  -7.925  1.00  0.00     0.178 HD
HETATM    7  N4  UNL     1      12.545   7.625  -6.961  1.00  0.00    -0.021 N 
ATOM      8  H4  UNL     1      12.731   8.449  -6.389  1.00  0.00     0.203 HD
HETATM    9  C15 UNL     1      12.923   6.416  -6.519  1.00  0.00     0.707 A 
HETATM   10  N6  UNL     1      12.661   5.356  -7.303  1.00  0.00    -0.022 N 
ATOM     11  H6  UNL     1      12.944   4.431  -6.978  1.00  0.00     0.203 HD
ENDROOT
BRANCH   1  12
HETATM   12  N1  UNL     1      11.787   4.451  -9.247  1.00  0.00    -0.225 N 
ATOM     13  H1  UNL     1      10.901   4.455  -9.752  1.00  0.00     0.177 HD
BRANCH  12  14
HETATM   14  C5  UNL     1      12.656   3.327  -9.437  1.00  0.00     0.142 C 
BRANCH  14  15
HETATM   15  C4  UNL     1      11.843   2.060  -9.462  1.00  0.00     0.004 C 
HETATM   16  C3  UNL     1      12.623   1.032 -10.244  1.00  0.00     0.006 C 
HETATM   17  C2  UNL     1      11.767  -0.207 -10.391  1.00  0.00     0.000 C 
HETATM   18  C1  UNL     1      10.572   0.194 -11.255  1.00  0.00     0.000 C 
HETATM   19  C23 UNL     1       9.721   1.124 -10.426  1.00  0.00     0.000 C 
HETATM   20  C22 UNL     1      10.507   2.354 -10.056  1.00  0.00     0.006 C 
ENDBRANCH  14  15
ENDBRANCH  12  14
ENDBRANCH   1  12
BRANCH   9  21
HETATM   21  N5  UNL     1      13.505   6.238  -5.419  1.00  0.00    -0.220 N 
ATOM     22  H5  UNL     1      13.627   7.075  -4.847  1.00  0.00     0.178 HD
BRANCH  21  23
HETATM   23  C16 UNL     1      14.017   5.035  -4.859  1.00  0.00     0.099 C 
HETATM   24  C17 UNL     1      13.281   4.512  -3.677  1.00  0.00     0.026 C 
HETATM   25  C18 UNL     1      13.740   3.065  -3.469  1.00  0.00     0.002 C 
HETATM   26  C19 UNL     1      15.241   3.028  -3.349  1.00  0.00     0.000 C 
HETATM   27  C20 UNL     1      15.834   4.434  -3.253  1.00  0.00     0.002 C 
HETATM   28  C21 UNL     1      15.456   5.276  -4.452  1.00  0.00     0.026 C 
ENDBRANCH  21  23
ENDBRANCH   9  21
BRANCH   5  29
HETATM   29  C8  UNL     1      10.901   9.282  -9.779  1.00  0.00     0.099 C 
HETATM   30  C9  UNL     1      11.959   9.563 -10.818  1.00  0.00     0.026 C 
HETATM   31  C10 UNL     1      11.416  10.025 -12.126  1.00  0.00     0.002 C 
HETATM   32  C11 UNL     1       9.930  10.156 -12.182  1.00  0.00     0.000 C 
HETATM   33  C12 UNL     1       9.569  11.530 -11.627  1.00  0.00     0.000 C 
HETATM   34  C13 UNL     1      10.394  11.688 -10.348  1.00  0.00     0.002 C 
HETATM   35  C14 UNL     1      10.074  10.511  -9.473  1.00  0.00     0.026 C 
ENDBRANCH   5  29
TORSDOF 6
ENDMDL
MODEL 5
REMARK VINA RESULT: -10.279189365      0.942      1.376
REMARK  6 active torsions:
REMARK  status: ('A' for Active; 'I' for Inactive)
REMARK    1  A    between atoms: C4_4  and  C5_5 
REMARK    2  A    between atoms: C5_5  and  N1_6 
REMARK    3  A    between atoms: N1_6  and  C6_8 
REMARK    4  A    between atoms: N3_12  and  C8_14 
REMARK    5  A    between atoms: C15_23  and  N5_24 
REMARK    6  A    between atoms: N5_24  and  C16_26 
ROOT
HETATM    1  C6  UNL     1      12.813   6.112  -7.014  1.00  0.00     0.707 A 
HETATM    2  N2  UNL     1      12.512   5.090  -7.850  1.00  0.00    -0.022 N 
ATOM      3  H2  UNL     1      12.523   4.130  -7.502  1.00  0.00     0.203 HD
HETATM    4  C7  UNL     1      12.199   5.329  -9.135  1.00  0.00     0.707 A 
HETATM    5  N3  UNL     1      11.915   4.380  -9.927  1.00  0.00    -0.220 N 
ATOM      6  H3  UNL     1      11.689   4.648 -10.885  1.00  0.00     0.178 HD
HETATM    7  N4  UNL     1      12.186   6.616  -9.593  1.00  0.00    -0.021 N 
ATOM      8  H4  UNL     1      11.949   6.800 -10.568  1.00  0.00     0.203 HD
HETATM    9  C15 UNL     1      12.480   7.642  -8.780  1.00  0.00     0.707 A 
HETATM   10  N6  UNL     1      12.789   7.358  -7.503  1.00  0.00    -0.022 N 
ATOM     11  H6  UNL     1      13.016   8.130  -6.876  1.00  0.00     0.203 HD
ENDROOT
BRANCH   1  12
HETATM   12  N1  UNL     1      13.105   5.824  -5.797  1.00  0.00    -0.225 N 
ATOM     13  H1  UNL     1      12.464   6.139  -5.069  1.00  0.00     0.177 HD
BRANCH  12  14
HETATM   14  C5  UNL     1      14.267   5.091  -5.390  1.00  0.00     0.142 C 
BRANCH  14  15
HETATM   15  C4  UNL     1      13.846   3.823  -4.695  1.00  0.00     0.004 C 
HETATM   16  C3  UNL     1      14.810   3.582  -3.561  1.00  0.00     0.006 C 
HETATM   17  C2  UNL     1      14.481   2.246  -2.930  1.00  0.00     0.000 C 
HETATM   18  C1  UNL     1      14.772   1.185  -3.991  1.00  0.00     0.000 C 
HETATM   19  C23 UNL     1      13.728   1.341  -5.069  1.00  0.00     0.000 C 
HETATM   20  C22 UNL     1      13.825   2.711  -5.690  1.00  0.00     0.006 C 
ENDBRANCH  14  15
ENDBRANCH  12  14
ENDBRANCH   1  12
BRANCH   9  21
HETATM   21  N5  UNL     1      12.480   8.841  -9.161  1.00  0.00    -0.220 N 
ATOM     22  H5  UNL     1      13.376   9.195  -9.497  1.00  0.00     0.178 HD
BRANCH  21  23
HETATM   23  C16 UNL     1      11.406   9.772  -9.189  1.00  0.00     0.099 C 
HETATM   24  C17 UNL     1      10.044   9.187  -9.067  1.00  0.00     0.026 C 
HETATM   25  C18 UNL     1       9.088  10.340  -8.745  1.00  0.00     0.002 C 
HETATM   26  C19 UNL     1       9.225  11.411  -9.794  1.00  0.00     0.000 C 
HETATM   27  C20 UNL     1      10.097  10.950 -10.962  1.00  0.00     0.002 C 
HETATM   28  C21 UNL     1      11.476  10.539 -10.494  1.00  0.00     0.026 C 
ENDBRANCH  21  23
ENDBRANCH   9  21
BRANCH   5  29
HETATM   29  C8  UNL     1      11.874   2.971  -9.638  1.00  0.00     0.099 C 
HETATM   30  C9  UNL     1      13.193   2.372 -10.065  1.00  0.00     0.026 C 
HETATM   31  C10 UNL     1      13.269   0.894  -9.899  1.00  0.00     0.002 C 
HETATM   32  C11 UNL     1      12.030   0.253  -9.367  1.00  0.00     0.000 C 
HETATM   33  C12 UNL     1      11.099   0.002 -10.549  1.00  0.00     0.000 C 
HETATM   34  C13 UNL     1      11.110   1.296 -11.365  1.00  0.00     0.002 C 
HETATM   35  C14 UNL     1      10.718   2.405 -10.432  1.00  0.00     0.026 C 
ENDBRANCH   5  29
TORSDOF 6
ENDMDL
