MODEL 1
REMARK VINA RESULT: -7.321572599      0.000      0.000
REMARK  8 active torsions:
REMARK  status: ('A' for Active; 'I' for Inactive)
REMARK    1  A    between atoms: O1_1  and  C1_3 
REMARK    2  A    between atoms: C3_5  and  N1_6 
REMARK    3  A    between atoms: C9_12  and  O2_13 
REMARK    4  A    between atoms: N2_15  and  C10_16 
REMARK    5  A    between atoms: C10_16  and  C11_17 
REMARK    6  A    between atoms: C11_17  and  C12_18 
REMARK    7  A    between atoms: C12_18  and  C13_19 
REMARK    8  A    between atoms: C13_19  and  N3_20 
ROOT
HETATM    1  C1  UNL     1       9.952  20.553  -4.782  1.00  0.00     0.146 A 
HETATM    2  C2  UNL     1      10.061  21.535  -5.741  1.00  0.00     0.089 A 
HETATM    3  C3  UNL     1       9.514  21.072  -6.945  1.00  0.00     0.086 A 
HETATM    4  C9  UNL     1       9.094  19.807  -6.645  1.00  0.00     0.171 A 
HETATM    5  N2  UNL     1       9.357  19.498  -5.348  1.00  0.00    -0.307 N 
ENDROOT
BRANCH   5   6
HETATM    6  C10 UNL     1       9.037  18.252  -4.739  1.00  0.00     0.133 C 
BRANCH   6   7
HETATM    7  C11 UNL     1       9.930  17.143  -5.242  1.00  0.00     0.022 C 
BRANCH   7   8
HETATM    8  C12 UNL     1      11.290  17.209  -4.563  1.00  0.00     0.032 C 
BRANCH   8   9
HETATM    9  C13 UNL     1      12.273  16.625  -5.528  1.00  0.00     0.272 C 
BRANCH   9  10
HETATM   10  N3  UNL     1      13.291  17.530  -5.969  1.00  0.00     0.088 N 
HETATM   11  C14 UNL     1      12.792  18.820  -6.373  1.00  0.00     0.272 C 
HETATM   12  C15 UNL     1      12.510  18.910  -7.855  1.00  0.00     0.030 C 
HETATM   13  C16 UNL     1      13.680  19.397  -8.656  1.00  0.00     0.002 C 
HETATM   14  C17 UNL     1      14.848  18.477  -8.690  1.00  0.00     0.002 C 
HETATM   15  C18 UNL     1      15.193  17.860  -7.368  1.00  0.00     0.030 C 
HETATM   16  C19 UNL     1      14.092  16.903  -7.003  1.00  0.00     0.272 C 
ENDBRANCH   9  10
ENDBRANCH   8   9
ENDBRANCH   7   8
ENDBRANCH   6   7
ENDBRANCH   5   6
BRANCH   1  17
HETATM   17  O1  UNL     1      10.402  20.689  -3.458  1.00  0.00    -0.346 OA
ATOM     18  H1  UNL     1      10.057  21.322  -2.839  1.00  0.00     0.219 HD
ENDBRANCH   1  17
BRANCH   4  19
HETATM   19  O2  UNL     1       8.471  18.954  -7.574  1.00  0.00    -0.344 OA
ATOM     20  H2  UNL     1       7.712  19.202  -8.088  1.00  0.00     0.219 HD
ENDBRANCH   4  19
BRANCH   3  21
HETATM   21  N1  UNL     1       9.450  21.833  -8.138  1.00  0.00    -0.377 N 
HETATM   22  C4  UNL     1      10.547  21.712  -9.115  1.00  0.00     0.123 C 
HETATM   23  C5  UNL     1      11.242  23.056  -9.075  1.00  0.00     0.020 C 
HETATM   24  C6  UNL     1      10.251  24.064  -9.648  1.00  0.00     0.003 C 
HETATM   25  C7  UNL     1       8.974  24.107  -8.881  1.00  0.00     0.020 C 
HETATM   26  C8  UNL     1       8.419  22.743  -8.517  1.00  0.00     0.123 C 
ENDBRANCH   3  21
TORSDOF 8
ENDMDL
MODEL 2
REMARK VINA RESULT: -7.293924973      0.512      1.256
REMARK  8 active torsions:
REMARK  status: ('A' for Active; 'I' for Inactive)
REMARK    1  A    between atoms: O1_1  and  C1_3 
REMARK    2  A    between atoms: C3_5  and  N1_6 
REMARK    3  A    between atoms: C9_12  and  O2_13 
REMARK    4  A    between atoms: N2_15  and  C10_16 
REMARK    5  A    between atoms: C10_16  and  C11_17 
REMARK    6  A    between atoms: C11_17  and  C12_18 
REMARK    7  A    between atoms: C12_18  and  C13_19 
REMARK    8  A    between atoms: C13_19  and  N3_20 
ROOT
HETATM    1  C1  UNL     1      10.004  20.581  -4.846  1.00  0.00     0.146 A 
HETATM    2  C2  UNL     1       9.998  21.603  -5.769  1.00  0.00     0.089 A 
HETATM    3  C3  UNL     1       9.548  21.113  -7.002  1.00  0.00     0.086 A 
HETATM    4  C9  UNL     1       9.300  19.792  -6.755  1.00  0.00     0.171 A 
HETATM    5  N2  UNL     1       9.574  19.475  -5.463  1.00  0.00    -0.307 N 
ENDROOT
BRANCH   5   6
HETATM    6  C10 UNL     1       9.415  18.175  -4.904  1.00  0.00     0.133 C 
BRANCH   6   7
HETATM    7  C11 UNL     1      10.542  17.256  -5.310  1.00  0.00     0.022 C 
BRANCH   7   8
HETATM    8  C12 UNL     1      11.695  17.363  -4.322  1.00  0.00     0.032 C 
BRANCH   8   9
HETATM    9  C13 UNL     1      12.789  18.099  -5.028  1.00  0.00     0.272 C 
BRANCH   9  10
HETATM   10  N3  UNL     1      12.813  17.918  -6.449  1.00  0.00     0.088 N 
HETATM   11  C14 UNL     1      13.864  17.047  -6.911  1.00  0.00     0.272 C 
HETATM   12  C15 UNL     1      15.122  17.788  -7.299  1.00  0.00     0.030 C 
HETATM   13  C16 UNL     1      15.162  18.179  -8.746  1.00  0.00     0.002 C 
HETATM   14  C17 UNL     1      14.151  19.192  -9.153  1.00  0.00     0.002 C 
HETATM   15  C18 UNL     1      12.780  18.965  -8.591  1.00  0.00     0.030 C 
HETATM   16  C19 UNL     1      12.842  19.210  -7.108  1.00  0.00     0.272 C 
ENDBRANCH   9  10
ENDBRANCH   8   9
ENDBRANCH   7   8
ENDBRANCH   6   7
ENDBRANCH   5   6
BRANCH   1  17
HETATM   17  O1  UNL     1      10.401  20.729  -3.506  1.00  0.00    -0.346 OA
ATOM     18  H1  UNL     1      10.167  20.127  -2.810  1.00  0.00     0.219 HD
ENDBRANCH   1  17
BRANCH   4  19
HETATM   19  O2  UNL     1       8.823  18.896  -7.729  1.00  0.00    -0.344 OA
ATOM     20  H2  UNL     1       7.900  18.725  -7.878  1.00  0.00     0.219 HD
ENDBRANCH   4  19
BRANCH   3  21
HETATM   21  N1  UNL     1       9.406  21.901  -8.170  1.00  0.00    -0.377 N 
HETATM   22  C4  UNL     1      10.429  21.792  -9.227  1.00  0.00     0.123 C 
HETATM   23  C5  UNL     1      11.139  23.129  -9.207  1.00  0.00     0.020 C 
HETATM   24  C6  UNL     1      10.120  24.158  -9.685  1.00  0.00     0.003 C 
HETATM   25  C7  UNL     1       8.902  24.195  -8.828  1.00  0.00     0.020 C 
HETATM   26  C8  UNL     1       8.360  22.828  -8.455  1.00  0.00     0.123 C 
ENDBRANCH   3  21
TORSDOF 8
ENDMDL
MODEL 3
REMARK VINA RESULT: -7.194534329      1.082      2.068
REMARK  8 active torsions:
REMARK  status: ('A' for Active; 'I' for Inactive)
REMARK    1  A    between atoms: O1_1  and  C1_3 
REMARK    2  A    between atoms: C3_5  and  N1_6 
REMARK    3  A    between atoms: C9_12  and  O2_13 
REMARK    4  A    between atoms: N2_15  and  C10_16 
REMARK    5  A    between atoms: C10_16  and  C11_17 
REMARK    6  A    between atoms: C11_17  and  C12_18 
REMARK    7  A    between atoms: C12_18  and  C13_19 
REMARK    8  A    between atoms: C13_19  and  N3_20 
ROOT
HETATM    1  C1  UNL     1       9.062  18.747  -6.249  1.00  0.00     0.146 A 
HETATM    2  C2  UNL     1       8.954  19.378  -7.468  1.00  0.00     0.089 A 
HETATM    3  C3  UNL     1       9.331  20.721  -7.331  1.00  0.00     0.086 A 
HETATM    4  C9  UNL     1       9.654  20.834  -6.008  1.00  0.00     0.171 A 
HETATM    5  N2  UNL     1       9.492  19.650  -5.361  1.00  0.00    -0.307 N 
ENDROOT
BRANCH   5   6
HETATM    6  C10 UNL     1       9.749  19.451  -3.975  1.00  0.00     0.133 C 
BRANCH   6   7
HETATM    7  C11 UNL     1      10.905  18.506  -3.754  1.00  0.00     0.022 C 
BRANCH   7   8
HETATM    8  C12 UNL     1      12.193  19.109  -4.295  1.00  0.00     0.032 C 
BRANCH   8   9
HETATM    9  C13 UNL     1      13.003  17.969  -4.826  1.00  0.00     0.272 C 
BRANCH   9  10
HETATM   10  N3  UNL     1      12.924  17.788  -6.244  1.00  0.00     0.088 N 
HETATM   11  C14 UNL     1      14.010  17.019  -6.798  1.00  0.00     0.272 C 
HETATM   12  C15 UNL     1      15.155  17.875  -7.286  1.00  0.00     0.030 C 
HETATM   13  C16 UNL     1      15.036  18.264  -8.730  1.00  0.00     0.002 C 
HETATM   14  C17 UNL     1      13.902  19.175  -9.045  1.00  0.00     0.002 C 
HETATM   15  C18 UNL     1      12.612  18.820  -8.371  1.00  0.00     0.030 C 
HETATM   16  C19 UNL     1      12.774  19.075  -6.898  1.00  0.00     0.272 C 
ENDBRANCH   9  10
ENDBRANCH   8   9
ENDBRANCH   7   8
ENDBRANCH   6   7
ENDBRANCH   5   6
BRANCH   1  17
HETATM   17  O1  UNL     1       8.761  17.392  -6.032  1.00  0.00    -0.346 OA
ATOM     18  H1  UNL     1       8.601  16.763  -6.726  1.00  0.00     0.219 HD
ENDBRANCH   1  17
BRANCH   4  19
HETATM   19  O2  UNL     1      10.095  22.031  -5.415  1.00  0.00    -0.344 OA
ATOM     20  H2  UNL     1       9.916  22.266  -4.513  1.00  0.00     0.219 HD
ENDBRANCH   4  19
BRANCH   3  21
HETATM   21  N1  UNL     1       9.350  21.657  -8.393  1.00  0.00    -0.377 N 
HETATM   22  C4  UNL     1      10.553  21.741  -9.243  1.00  0.00     0.123 C 
HETATM   23  C5  UNL     1      11.156  23.090  -8.917  1.00  0.00     0.020 C 
HETATM   24  C6  UNL     1      10.173  24.133  -9.440  1.00  0.00     0.003 C 
HETATM   25  C7  UNL     1       8.821  23.998  -8.831  1.00  0.00     0.020 C 
HETATM   26  C8  UNL     1       8.313  22.571  -8.746  1.00  0.00     0.123 C 
ENDBRANCH   3  21
TORSDOF 8
ENDMDL
MODEL 4
REMARK VINA RESULT: -7.186921435      0.764      2.004
REMARK  8 active torsions:
REMARK  status: ('A' for Active; 'I' for Inactive)
REMARK    1  A    between atoms: O1_1  and  C1_3 
REMARK    2  A    between atoms: C3_5  and  N1_6 
REMARK    3  A    between atoms: C9_12  and  O2_13 
REMARK    4  A    between atoms: N2_15  and  C10_16 
REMARK    5  A    between atoms: C10_16  and  C11_17 
REMARK    6  A    between atoms: C11_17  and  C12_18 
REMARK    7  A    between atoms: C12_18  and  C13_19 
REMARK    8  A    between atoms: C13_19  and  N3_20 
ROOT
HETATM    1  C1  UNL     1       8.652  19.000  -7.124  1.00  0.00     0.146 A 
HETATM    2  C2  UNL     1       8.995  20.061  -7.932  1.00  0.00     0.089 A 
HETATM    3  C3  UNL     1       9.673  21.024  -7.173  1.00  0.00     0.086 A 
HETATM    4  C9  UNL     1       9.706  20.483  -5.919  1.00  0.00     0.171 A 
HETATM    5  N2  UNL     1       9.094  19.270  -5.892  1.00  0.00    -0.307 N 
ENDROOT
BRANCH   5   6
HETATM    6  C10 UNL     1       8.968  18.461  -4.727  1.00  0.00     0.133 C 
BRANCH   6   7
HETATM    7  C11 UNL     1       9.827  17.223  -4.815  1.00  0.00     0.022 C 
BRANCH   7   8
HETATM    8  C12 UNL     1      11.271  17.554  -4.468  1.00  0.00     0.032 C 
BRANCH   8   9
HETATM    9  C13 UNL     1      12.117  16.913  -5.522  1.00  0.00     0.272 C 
BRANCH   9  10
HETATM   10  N3  UNL     1      13.184  17.731  -6.015  1.00  0.00     0.088 N 
HETATM   11  C14 UNL     1      12.745  18.957  -6.632  1.00  0.00     0.272 C 
HETATM   12  C15 UNL     1      12.566  18.838  -8.127  1.00  0.00     0.030 C 
HETATM   13  C16 UNL     1      13.799  19.189  -8.906  1.00  0.00     0.002 C 
HETATM   14  C17 UNL     1      14.945  18.257  -8.726  1.00  0.00     0.002 C 
HETATM   15  C18 UNL     1      15.184  17.831  -7.308  1.00  0.00     0.030 C 
HETATM   16  C19 UNL     1      14.039  16.951  -6.890  1.00  0.00     0.272 C 
ENDBRANCH   9  10
ENDBRANCH   8   9
ENDBRANCH   7   8
ENDBRANCH   6   7
ENDBRANCH   5   6
BRANCH   1  17
HETATM   17  O1  UNL     1       7.962  17.860  -7.569  1.00  0.00    -0.346 OA
ATOM     18  H1  UNL     1       7.037  17.847  -7.786  1.00  0.00     0.219 HD
ENDBRANCH   1  17
BRANCH   4  19
HETATM   19  O2  UNL     1      10.303  21.118  -4.814  1.00  0.00    -0.344 OA
ATOM     20  H2  UNL     1      10.858  20.669  -4.188  1.00  0.00     0.219 HD
ENDBRANCH   4  19
BRANCH   3  21
HETATM   21  N1  UNL     1      10.180  22.239  -7.693  1.00  0.00    -0.377 N 
HETATM   22  C4  UNL     1       9.438  23.486  -7.432  1.00  0.00     0.123 C 
HETATM   23  C5  UNL     1       8.897  23.897  -8.785  1.00  0.00     0.020 C 
HETATM   24  C6  UNL     1      10.109  24.275  -9.630  1.00  0.00     0.003 C 
HETATM   25  C7  UNL     1      11.080  23.154  -9.769  1.00  0.00     0.020 C 
HETATM   26  C8  UNL     1      11.360  22.408  -8.477  1.00  0.00     0.123 C 
ENDBRANCH   3  21
TORSDOF 8
ENDMDL
MODEL 5
REMARK VINA RESULT: -7.105036635      0.892      2.333
REMARK  8 active torsions:
REMARK  status: ('A' for Active; 'I' for Inactive)
REMARK    1  A    between atoms: O1_1  and  C1_3 
REMARK    2  A    between atoms: C3_5  and  N1_6 
REMARK    3  A    between atoms: C9_12  and  O2_13 
REMARK    4  A    between atoms: N2_15  and  C10_16 
REMARK    5  A    between atoms: C10_16  and  C11_17 
REMARK    6  A    between atoms: C11_17  and  C12_18 
REMARK    7  A    between atoms: C12_18  and  C13_19 
REMARK    8  A    between atoms: C13_19  and  N3_20 
ROOT
HETATM    1  C1  UNL     1       8.812  19.097  -6.872  1.00  0.00     0.146 A 
HETATM    2  C2  UNL     1       9.200  20.090  -7.745  1.00  0.00     0.089 A 
HETATM    3  C3  UNL     1       9.672  21.190  -7.017  1.00  0.00     0.086 A 
HETATM    4  C9  UNL     1       9.543  20.797  -5.715  1.00  0.00     0.171 A 
HETATM    5  N2  UNL     1       9.028  19.543  -5.630  1.00  0.00    -0.307 N 
ENDROOT
BRANCH   5   6
HETATM    6  C10 UNL     1       8.777  18.859  -4.407  1.00  0.00     0.133 C 
BRANCH   6   7
HETATM    7  C11 UNL     1       9.643  17.630  -4.270  1.00  0.00     0.022 C 
BRANCH   7   8
HETATM    8  C12 UNL     1      11.103  18.026  -4.108  1.00  0.00     0.032 C 
BRANCH   8   9
HETATM    9  C13 UNL     1      11.900  17.033  -4.893  1.00  0.00     0.272 C 
BRANCH   9  10
HETATM   10  N3  UNL     1      12.125  17.393  -6.261  1.00  0.00     0.088 N 
HETATM   11  C14 UNL     1      13.002  16.493  -6.966  1.00  0.00     0.272 C 
HETATM   12  C15 UNL     1      14.448  16.930  -6.940  1.00  0.00     0.030 C 
HETATM   13  C16 UNL     1      14.830  17.800  -8.100  1.00  0.00     0.002 C 
HETATM   14  C17 UNL     1      14.175  19.136  -8.128  1.00  0.00     0.002 C 
HETATM   15  C18 UNL     1      12.713  19.120  -7.795  1.00  0.00     0.030 C 
HETATM   16  C19 UNL     1      12.574  18.771  -6.340  1.00  0.00     0.272 C 
ENDBRANCH   9  10
ENDBRANCH   8   9
ENDBRANCH   7   8
ENDBRANCH   6   7
ENDBRANCH   5   6
BRANCH   1  17
HETATM   17  O1  UNL     1       8.291  17.855  -7.271  1.00  0.00    -0.346 OA
ATOM     18  H1  UNL     1       7.412  17.555  -7.070  1.00  0.00     0.219 HD
ENDBRANCH   1  17
BRANCH   4  19
HETATM   19  O2  UNL     1       9.904  21.604  -4.620  1.00  0.00    -0.344 OA
ATOM     20  H2  UNL     1       9.319  22.235  -4.218  1.00  0.00     0.219 HD
ENDBRANCH   4  19
BRANCH   3  21
HETATM   21  N1  UNL     1      10.162  22.383  -7.601  1.00  0.00    -0.377 N 
HETATM   22  C4  UNL     1       9.403  23.632  -7.407  1.00  0.00     0.123 C 
HETATM   23  C5  UNL     1       8.858  23.963  -8.779  1.00  0.00     0.020 C 
HETATM   24  C6  UNL     1      10.065  24.312  -9.644  1.00  0.00     0.003 C 
HETATM   25  C7  UNL     1      11.051  23.198  -9.722  1.00  0.00     0.020 C 
HETATM   26  C8  UNL     1      11.340  22.526  -8.393  1.00  0.00     0.123 C 
ENDBRANCH   3  21
TORSDOF 8
ENDMDL
