MODEL 1
REMARK VINA RESULT: -7.617450254      0.000      0.000
REMARK  3 active torsions:
REMARK  status: ('A' for Active; 'I' for Inactive)
REMARK    1  A    between atoms: N1_3  and  N2_5 
REMARK    2  A    between atoms: N2_5  and  C3_7 
REMARK    3  A    between atoms: N4_11  and  C5_12 
ROOT
HETATM    1  C1  UNL     1      14.010   2.663  17.431  1.00  0.00     0.038 C 
HETATM    2  C2  UNL     1      14.412   3.614  16.807  1.00  0.00     0.015 C 
HETATM    3  N1  UNL     1      14.884   4.723  16.098  1.00  0.00    -0.245 N 
ATOM      4  H1  UNL     1      14.267   5.531  16.005  1.00  0.00     0.198 HD
ENDROOT
BRANCH   3   5
HETATM    5  N2  UNL     1      16.149   4.794  15.509  1.00  0.00    -0.124 N 
ATOM      6  H2  UNL     1      16.842   5.467  15.834  1.00  0.00     0.206 HD
BRANCH   5   7
HETATM    7  C3  UNL     1      16.413   3.983  14.541  1.00  0.00     0.702 A 
HETATM    8  N3  UNL     1      17.030   2.800  14.722  1.00  0.00    -0.186 N 
HETATM    9  C4  UNL     1      17.289   1.980  13.678  1.00  0.00     0.208 A 
ATOM     10  H3  UNL     1      17.306   2.518  15.662  1.00  0.00     0.185 HD
HETATM   11  N4  UNL     1      16.911   2.379  12.452  1.00  0.00    -0.264 N 
HETATM   12  C8  UNL     1      16.302   3.545  12.261  1.00  0.00     0.343 A 
HETATM   13  O3  UNL     1      15.972   3.859  11.071  1.00  0.00    -0.246 OA
HETATM   14  N7  UNL     1      16.046   4.360  13.301  1.00  0.00    -0.139 N 
ATOM     15  H7  UNL     1      15.578   5.254  13.153  1.00  0.00     0.189 HD
BRANCH  11  16
HETATM   16  C5  UNL     1      17.184   1.501  11.308  1.00  0.00     0.292 C 
HETATM   17  N5  UNL     1      17.035   0.133  11.712  1.00  0.00    -0.313 N 
HETATM   18  C6  UNL     1      18.234  -0.584  11.510  1.00  0.00     0.324 C 
ATOM     19  H5  UNL     1      16.178  -0.268  12.093  1.00  0.00     0.166 HD
HETATM   20  O1  UNL     1      18.420  -1.834  11.675  1.00  0.00    -0.247 OA
HETATM   21  N6  UNL     1      19.222   0.335  11.081  1.00  0.00    -0.276 N 
HETATM   22  C7  UNL     1      18.640   1.625  11.016  1.00  0.00     0.269 C 
ATOM     23  H6  UNL     1      20.190   0.106  10.855  1.00  0.00     0.173 HD
HETATM   24  O2  UNL     1      19.173   2.741  10.762  1.00  0.00    -0.269 OA
ENDBRANCH  11  16
ENDBRANCH   5   7
ENDBRANCH   3   5
TORSDOF 3
ENDMDL
MODEL 2
REMARK VINA RESULT: -7.058134495      1.242      1.556
REMARK  3 active torsions:
REMARK  status: ('A' for Active; 'I' for Inactive)
REMARK    1  A    between atoms: N1_3  and  N2_5 
REMARK    2  A    between atoms: N2_5  and  C3_7 
REMARK    3  A    between atoms: N4_11  and  C5_12 
ROOT
HETATM    1  C1  UNL     1      15.096   7.494  15.270  1.00  0.00     0.038 C 
HETATM    2  C2  UNL     1      15.079   6.313  15.518  1.00  0.00     0.015 C 
HETATM    3  N1  UNL     1      15.057   4.941  15.790  1.00  0.00    -0.245 N 
ATOM      4  H1  UNL     1      14.151   4.498  15.942  1.00  0.00     0.198 HD
ENDROOT
BRANCH   3   5
HETATM    5  N2  UNL     1      16.199   4.142  15.865  1.00  0.00    -0.124 N 
ATOM      6  H2  UNL     1      16.771   4.121  16.709  1.00  0.00     0.206 HD
BRANCH   5   7
HETATM    7  C3  UNL     1      16.510   3.429  14.836  1.00  0.00     0.702 A 
HETATM    8  N3  UNL     1      16.992   2.176  14.928  1.00  0.00    -0.186 N 
HETATM    9  C4  UNL     1      17.306   1.463  13.822  1.00  0.00     0.208 A 
ATOM     10  H3  UNL     1      17.123   1.756  15.849  1.00  0.00     0.185 HD
HETATM   11  N4  UNL     1      17.121   2.043  12.624  1.00  0.00    -0.264 N 
HETATM   12  C8  UNL     1      16.646   3.280  12.520  1.00  0.00     0.343 A 
HETATM   13  O3  UNL     1      16.496   3.766  11.351  1.00  0.00    -0.246 OA
HETATM   14  N7  UNL     1      16.335   3.987  13.622  1.00  0.00    -0.139 N 
ATOM     15  H7  UNL     1      15.971   4.936  13.540  1.00  0.00     0.189 HD
BRANCH  11  16
HETATM   16  C5  UNL     1      17.456   1.284  11.413  1.00  0.00     0.292 C 
HETATM   17  N5  UNL     1      17.069  -0.086  11.587  1.00  0.00    -0.313 N 
HETATM   18  C6  UNL     1      18.182  -0.943  11.452  1.00  0.00     0.324 C 
ATOM     19  H5  UNL     1      16.118  -0.399  11.783  1.00  0.00     0.166 HD
HETATM   20  O1  UNL     1      18.177  -2.217  11.457  1.00  0.00    -0.247 OA
HETATM   21  N6  UNL     1      19.336  -0.136  11.303  1.00  0.00    -0.276 N 
HETATM   22  C7  UNL     1      18.943   1.225  11.347  1.00  0.00     0.269 C 
ATOM     23  H6  UNL     1      20.290  -0.477  11.183  1.00  0.00     0.173 HD
HETATM   24  O2  UNL     1      19.650   2.271  11.336  1.00  0.00    -0.269 OA
ENDBRANCH  11  16
ENDBRANCH   5   7
ENDBRANCH   3   5
TORSDOF 3
ENDMDL
MODEL 3
REMARK VINA RESULT: -6.809965106      2.775      6.176
REMARK  3 active torsions:
REMARK  status: ('A' for Active; 'I' for Inactive)
REMARK    1  A    between atoms: N1_3  and  N2_5 
REMARK    2  A    between atoms: N2_5  and  C3_7 
REMARK    3  A    between atoms: N4_11  and  C5_12 
ROOT
HETATM    1  C1  UNL     1      19.864   2.865  10.781  1.00  0.00     0.038 C 
HETATM    2  C2  UNL     1      19.235   1.861  11.007  1.00  0.00     0.015 C 
HETATM    3  N1  UNL     1      18.516   0.693  11.284  1.00  0.00    -0.245 N 
ATOM      4  H1  UNL     1      18.868  -0.187  10.907  1.00  0.00     0.198 HD
ENDROOT
BRANCH   3   5
HETATM    5  N2  UNL     1      17.345   0.658  12.044  1.00  0.00    -0.124 N 
ATOM      6  H2  UNL     1      16.710  -0.138  11.993  1.00  0.00     0.206 HD
BRANCH   5   7
HETATM    7  C3  UNL     1      17.090   1.663  12.812  1.00  0.00     0.702 A 
HETATM    8  N3  UNL     1      16.622   2.838  12.354  1.00  0.00    -0.186 N 
HETATM    9  C4  UNL     1      16.368   3.867  13.194  1.00  0.00     0.208 A 
ATOM     10  H3  UNL     1      16.455   2.955  11.354  1.00  0.00     0.185 HD
HETATM   11  N4  UNL     1      16.596   3.681  14.506  1.00  0.00    -0.264 N 
HETATM   12  C8  UNL     1      17.059   2.525  14.971  1.00  0.00     0.343 A 
HETATM   13  O3  UNL     1      17.253   2.421  16.226  1.00  0.00    -0.246 OA
HETATM   14  N7  UNL     1      17.312   1.503  14.132  1.00  0.00    -0.139 N 
ATOM     15  H7  UNL     1      17.666   0.617  14.490  1.00  0.00     0.189 HD
BRANCH  11  16
HETATM   16  C5  UNL     1      16.327   4.787  15.433  1.00  0.00     0.292 C 
HETATM   17  N5  UNL     1      15.117   5.452  15.042  1.00  0.00    -0.313 N 
HETATM   18  C6  UNL     1      15.360   6.815  14.768  1.00  0.00     0.324 C 
ATOM     19  H5  UNL     1      14.205   5.000  14.972  1.00  0.00     0.166 HD
HETATM   20  O1  UNL     1      14.496   7.708  14.486  1.00  0.00    -0.247 OA
HETATM   21  N6  UNL     1      16.755   7.035  14.862  1.00  0.00    -0.276 N 
HETATM   22  C7  UNL     1      17.384   5.809  15.193  1.00  0.00     0.269 C 
ATOM     23  H6  UNL     1      17.228   7.927  14.716  1.00  0.00     0.173 HD
HETATM   24  O2  UNL     1      18.611   5.531  15.295  1.00  0.00    -0.269 OA
ENDBRANCH  11  16
ENDBRANCH   5   7
ENDBRANCH   3   5
TORSDOF 3
ENDMDL
MODEL 4
REMARK VINA RESULT: -6.708419512      2.155      3.729
REMARK  3 active torsions:
REMARK  status: ('A' for Active; 'I' for Inactive)
REMARK    1  A    between atoms: N1_3  and  N2_5 
REMARK    2  A    between atoms: N2_5  and  C3_7 
REMARK    3  A    between atoms: N4_11  and  C5_12 
ROOT
HETATM    1  C1  UNL     1      14.721   4.367  18.919  1.00  0.00     0.038 C 
HETATM    2  C2  UNL     1      14.963   3.467  18.153  1.00  0.00     0.015 C 
HETATM    3  N1  UNL     1      15.242   2.434  17.252  1.00  0.00    -0.245 N 
ATOM      4  H1  UNL     1      14.462   1.867  16.918  1.00  0.00     0.198 HD
ENDROOT
BRANCH   3   5
HETATM    5  N2  UNL     1      16.521   2.132  16.780  1.00  0.00    -0.124 N 
ATOM      6  H2  UNL     1      17.203   1.665  17.376  1.00  0.00     0.206 HD
BRANCH   5   7
HETATM    7  C3  UNL     1      16.815   2.463  15.568  1.00  0.00     0.702 A 
HETATM    8  N3  UNL     1      17.018   3.736  15.183  1.00  0.00    -0.186 N 
HETATM    9  C4  UNL     1      17.324   4.039  13.901  1.00  0.00     0.208 A 
ATOM     10  H3  UNL     1      16.940   4.486  15.870  1.00  0.00     0.185 HD
HETATM   11  N4  UNL     1      17.421   3.029  13.019  1.00  0.00    -0.264 N 
HETATM   12  C8  UNL     1      17.222   1.768  13.388  1.00  0.00     0.343 A 
HETATM   13  O3  UNL     1      17.330   0.861  12.498  1.00  0.00    -0.246 OA
HETATM   14  N7  UNL     1      16.917   1.469  14.664  1.00  0.00    -0.139 N 
ATOM     15  H7  UNL     1      16.765   0.501  14.945  1.00  0.00     0.189 HD
BRANCH  11  16
HETATM   16  C5  UNL     1      17.752   3.340  11.623  1.00  0.00     0.292 C 
HETATM   17  N5  UNL     1      18.771   4.348  11.589  1.00  0.00    -0.313 N 
HETATM   18  C6  UNL     1      18.326   5.488  10.886  1.00  0.00     0.324 C 
ATOM     19  H5  UNL     1      19.693   4.254  12.014  1.00  0.00     0.166 HD
HETATM   20  O1  UNL     1      19.007   6.524  10.591  1.00  0.00    -0.247 OA
HETATM   21  N6  UNL     1      16.965   5.288  10.551  1.00  0.00    -0.276 N 
HETATM   22  C7  UNL     1      16.560   4.023  11.046  1.00  0.00     0.269 C 
ATOM     23  H6  UNL     1      16.375   5.944  10.039  1.00  0.00     0.173 HD
HETATM   24  O2  UNL     1      15.420   3.482  11.045  1.00  0.00    -0.269 OA
ENDBRANCH  11  16
ENDBRANCH   5   7
ENDBRANCH   3   5
TORSDOF 3
ENDMDL
MODEL 5
REMARK VINA RESULT: -6.683518830      2.066      2.467
REMARK  3 active torsions:
REMARK  status: ('A' for Active; 'I' for Inactive)
REMARK    1  A    between atoms: N1_3  and  N2_5 
REMARK    2  A    between atoms: N2_5  and  C3_7 
REMARK    3  A    between atoms: N4_11  and  C5_12 
ROOT
HETATM    1  C1  UNL     1      13.345   3.072  17.028  1.00  0.00     0.038 C 
HETATM    2  C2  UNL     1      14.411   2.618  17.364  1.00  0.00     0.015 C 
HETATM    3  N1  UNL     1      15.646   2.080  17.742  1.00  0.00    -0.245 N 
ATOM      4  H1  UNL     1      15.648   1.311  18.412  1.00  0.00     0.198 HD
ENDROOT
BRANCH   3   5
HETATM    5  N2  UNL     1      16.876   2.532  17.258  1.00  0.00    -0.124 N 
ATOM      6  H2  UNL     1      17.671   2.659  17.883  1.00  0.00     0.206 HD
BRANCH   5   7
HETATM    7  C3  UNL     1      16.976   2.783  15.996  1.00  0.00     0.702 A 
HETATM    8  N3  UNL     1      17.004   1.821  15.056  1.00  0.00    -0.186 N 
HETATM    9  C4  UNL     1      17.111   2.129  13.743  1.00  0.00     0.208 A 
ATOM     10  H3  UNL     1      16.944   0.843  15.338  1.00  0.00     0.185 HD
HETATM   11  N4  UNL     1      17.186   3.427  13.403  1.00  0.00    -0.264 N 
HETATM   12  C8  UNL     1      17.159   4.386  14.323  1.00  0.00     0.343 A 
HETATM   13  O3  UNL     1      17.235   5.595  13.928  1.00  0.00    -0.246 OA
HETATM   14  N7  UNL     1      17.054   4.077  15.629  1.00  0.00    -0.139 N 
ATOM     15  H7  UNL     1      17.033   4.814  16.333  1.00  0.00     0.189 HD
BRANCH  11  16
HETATM   16  C5  UNL     1      17.302   3.779  11.983  1.00  0.00     0.292 C 
HETATM   17  N5  UNL     1      16.391   2.978  11.218  1.00  0.00    -0.313 N 
HETATM   18  C6  UNL     1      17.082   2.219  10.249  1.00  0.00     0.324 C 
ATOM     19  H5  UNL     1      15.380   2.960  11.355  1.00  0.00     0.166 HD
HETATM   20  O1  UNL     1      16.572   1.475   9.348  1.00  0.00    -0.247 OA
HETATM   21  N6  UNL     1      18.469   2.423  10.445  1.00  0.00    -0.276 N 
HETATM   22  C7  UNL     1      18.644   3.310  11.537  1.00  0.00     0.269 C 
ATOM     23  H6  UNL     1      19.216   2.004   9.893  1.00  0.00     0.173 HD
HETATM   24  O2  UNL     1      19.704   3.696  12.103  1.00  0.00    -0.269 OA
ENDBRANCH  11  16
ENDBRANCH   5   7
ENDBRANCH   3   5
TORSDOF 3
ENDMDL
