MODEL 1
REMARK VINA RESULT: -7.852585315      0.000      0.000
REMARK  9 active torsions:
REMARK  status: ('A' for Active; 'I' for Inactive)
REMARK    1  A    between atoms: N3_8  and  N4_9 
REMARK    2  A    between atoms: N5_12  and  N6_13 
REMARK    3  A    between atoms: N6_13  and  C4_14 
REMARK    4  A    between atoms: C4_14  and  C5_15 
REMARK    5  A    between atoms: C6_16  and  C7_17 
REMARK    6  A    between atoms: C7_17  and  C8_18 
REMARK    7  A    between atoms: C8_18  and  O2_19 
REMARK    8  A    between atoms: C10_25  and  N8_26 
REMARK    9  A    between atoms: C15_35  and  O5_36 
ROOT
HETATM    1  C5  UNL     1      17.026   5.239  11.831  1.00  0.00     0.063 C 
HETATM    2  C6  UNL     1      18.155   4.959  10.955  1.00  0.00     0.195 C 
HETATM    3  N7  UNL     1      18.833   6.220  10.580  1.00  0.00    -0.068 N 
ATOM      4  H71 UNL     1      19.755   6.097  10.163  1.00  0.00     0.277 HD
ATOM      5  H72 UNL     1      19.149   6.782  11.371  1.00  0.00     0.277 HD
HETATM    6  C9  UNL     1      17.852   6.890   9.706  1.00  0.00     0.261 C 
HETATM    7  C10 UNL     1      16.861   7.501  10.663  1.00  0.00     0.148 C 
HETATM    8  C15 UNL     1      16.516   6.658  11.824  1.00  0.00     0.150 C 
ENDROOT
BRANCH   1   9
HETATM    9  C4  UNL     1      17.130   4.833  13.283  1.00  0.00     0.146 C 
BRANCH   9  10
HETATM   10  N6  UNL     1      16.399   3.633  13.623  1.00  0.00    -0.113 NA
BRANCH  10  11
HETATM   11  N5  UNL     1      15.859   3.817  14.895  1.00  0.00    -0.146 N 
HETATM   12  C1  UNL     1      15.024   4.896  15.178  1.00  0.00     0.225 A 
HETATM   13  N1  UNL     1      14.649   5.901  14.226  1.00  0.00    -0.061 NA
HETATM   14  N2  UNL     1      14.533   5.053  16.354  1.00  0.00    -0.353 N 
HETATM   15  C2  UNL     1      14.739   4.210  17.488  1.00  0.00     0.229 A 
ATOM     16  H2  UNL     1      13.933   5.866  16.493  1.00  0.00     0.162 HD
HETATM   17  C3  UNL     1      15.628   3.065  17.192  1.00  0.00     0.276 A 
HETATM   18  O1  UNL     1      15.911   2.232  18.097  1.00  0.00    -0.268 OA
HETATM   19  N3  UNL     1      16.175   2.887  15.892  1.00  0.00    -0.145 N 
BRANCH  19  20
HETATM   20  N4  UNL     1      17.015   1.807  15.610  1.00  0.00    -0.320 N 
ATOM     21  H42 UNL     1      17.015   0.981  16.210  1.00  0.00     0.179 HD
ATOM     22  H41 UNL     1      17.639   1.825  14.803  1.00  0.00     0.179 HD
ENDBRANCH  19  20
ENDBRANCH  10  11
ENDBRANCH   9  10
ENDBRANCH   1   9
BRANCH   2  23
HETATM   23  C7  UNL     1      19.183   3.965  11.347  1.00  0.00     0.059 C 
BRANCH  23  24
HETATM   24  C8  UNL     1      20.513   4.646  11.712  1.00  0.00     0.166 C 
BRANCH  24  25
HETATM   25  O2  UNL     1      20.463   5.265  12.932  1.00  0.00    -0.401 OA
ATOM     26  H2  UNL     1      20.814   6.147  12.904  1.00  0.00     0.209 HD
ENDBRANCH  24  25
ENDBRANCH  23  24
ENDBRANCH   2  23
BRANCH   8  27
HETATM   27  O5  UNL     1      16.887   7.276  13.046  1.00  0.00    -0.393 OA
ATOM     28  H5  UNL     1      17.662   7.804  12.894  1.00  0.00     0.210 HD
ENDBRANCH   8  27
BRANCH   7  29
HETATM   29  N8  UNL     1      15.717   8.117   9.992  1.00  0.00    -0.301 N 
HETATM   30  C11 UNL     1      15.158   7.572   8.884  1.00  0.00     0.102 A 
HETATM   31  C12 UNL     1      14.084   8.130   8.234  1.00  0.00     0.092 A 
HETATM   32  C13 UNL     1      13.560   9.296   8.743  1.00  0.00     0.250 A 
HETATM   33  O3  UNL     1      12.562   9.884   8.203  1.00  0.00    -0.268 OA
HETATM   34  N9  UNL     1      14.142   9.797   9.837  1.00  0.00    -0.275 N 
HETATM   35  C14 UNL     1      15.185   9.257  10.468  1.00  0.00     0.329 A 
ATOM     36  H9  UNL     1      13.758  10.661  10.219  1.00  0.00     0.173 HD
HETATM   37  O4  UNL     1      15.688   9.790  11.506  1.00  0.00    -0.246 OA
ENDBRANCH   7  29
TORSDOF 9
ENDMDL
MODEL 2
REMARK VINA RESULT: -7.721823649      3.437      4.019
REMARK  9 active torsions:
REMARK  status: ('A' for Active; 'I' for Inactive)
REMARK    1  A    between atoms: N3_8  and  N4_9 
REMARK    2  A    between atoms: N5_12  and  N6_13 
REMARK    3  A    between atoms: N6_13  and  C4_14 
REMARK    4  A    between atoms: C4_14  and  C5_15 
REMARK    5  A    between atoms: C6_16  and  C7_17 
REMARK    6  A    between atoms: C7_17  and  C8_18 
REMARK    7  A    between atoms: C8_18  and  O2_19 
REMARK    8  A    between atoms: C10_25  and  N8_26 
REMARK    9  A    between atoms: C15_35  and  O5_36 
ROOT
HETATM    1  C5  UNL     1      17.173   3.994  11.746  1.00  0.00     0.063 C 
HETATM    2  C6  UNL     1      17.662   2.662  11.423  1.00  0.00     0.195 C 
HETATM    3  N7  UNL     1      19.123   2.588  11.650  1.00  0.00    -0.068 N 
ATOM      4  H71 UNL     1      19.501   1.640  11.668  1.00  0.00     0.277 HD
ATOM      5  H72 UNL     1      19.418   2.837  12.594  1.00  0.00     0.277 HD
HETATM    6  C9  UNL     1      19.679   3.447  10.589  1.00  0.00     0.261 C 
HETATM    7  C10 UNL     1      19.491   4.848  11.110  1.00  0.00     0.148 C 
HETATM    8  C15 UNL     1      18.210   5.088  11.802  1.00  0.00     0.150 C 
ENDROOT
BRANCH   1   9
HETATM    9  C4  UNL     1      16.314   4.161  12.979  1.00  0.00     0.146 C 
BRANCH   9  10
HETATM   10  N6  UNL     1      17.043   4.133  14.226  1.00  0.00    -0.113 NA
BRANCH  10  11
HETATM   11  N5  UNL     1      16.117   3.939  15.250  1.00  0.00    -0.146 N 
HETATM   12  C1  UNL     1      15.245   4.953  15.639  1.00  0.00     0.225 A 
HETATM   13  N1  UNL     1      15.210   6.261  15.052  1.00  0.00    -0.061 NA
HETATM   14  N2  UNL     1      14.397   4.761  16.585  1.00  0.00    -0.353 N 
HETATM   15  C2  UNL     1      14.214   3.563  17.340  1.00  0.00     0.229 A 
ATOM     16  H2  UNL     1      13.791   5.546  16.821  1.00  0.00     0.162 HD
HETATM   17  C3  UNL     1      15.142   2.485  16.931  1.00  0.00     0.276 A 
HETATM   18  O1  UNL     1      15.106   1.364  17.511  1.00  0.00    -0.268 OA
HETATM   19  N3  UNL     1      16.082   2.693  15.886  1.00  0.00    -0.145 N 
BRANCH  19  20
HETATM   20  N4  UNL     1      16.960   1.676  15.500  1.00  0.00    -0.320 N 
ATOM     21  H42 UNL     1      16.904   0.754  15.930  1.00  0.00     0.179 HD
ATOM     22  H41 UNL     1      17.666   1.840  14.781  1.00  0.00     0.179 HD
ENDBRANCH  19  20
ENDBRANCH  10  11
ENDBRANCH   9  10
ENDBRANCH   1   9
BRANCH   2  23
HETATM   23  C7  UNL     1      17.027   1.462  12.019  1.00  0.00     0.059 C 
BRANCH  23  24
HETATM   24  C8  UNL     1      17.385   0.188  11.234  1.00  0.00     0.166 C 
BRANCH  24  25
HETATM   25  O2  UNL     1      18.515  -0.418  11.715  1.00  0.00    -0.401 OA
ATOM     26  H2  UNL     1      18.321  -1.222  12.181  1.00  0.00     0.209 HD
ENDBRANCH  24  25
ENDBRANCH  23  24
ENDBRANCH   2  23
BRANCH   8  27
HETATM   27  O5  UNL     1      18.409   5.451  13.159  1.00  0.00    -0.393 OA
ATOM     28  H5  UNL     1      19.322   5.306  13.378  1.00  0.00     0.210 HD
ENDBRANCH   8  27
BRANCH   7  29
HETATM   29  N8  UNL     1      19.867   5.878  10.144  1.00  0.00    -0.301 N 
HETATM   30  C11 UNL     1      19.604   5.748   8.820  1.00  0.00     0.102 A 
HETATM   31  C12 UNL     1      19.946   6.700   7.890  1.00  0.00     0.092 A 
HETATM   32  C13 UNL     1      20.585   7.834   8.337  1.00  0.00     0.250 A 
HETATM   33  O3  UNL     1      20.940   8.771   7.543  1.00  0.00    -0.268 OA
HETATM   34  N9  UNL     1      20.824   7.920   9.649  1.00  0.00    -0.275 N 
HETATM   35  C14 UNL     1      20.492   6.997  10.552  1.00  0.00     0.329 A 
ATOM     36  H9  UNL     1      21.296   8.758   9.986  1.00  0.00     0.173 HD
HETATM   37  O4  UNL     1      20.751   7.146  11.788  1.00  0.00    -0.246 OA
ENDBRANCH   7  29
TORSDOF 9
ENDMDL
MODEL 3
REMARK VINA RESULT: -7.648950793      2.042      5.204
REMARK  9 active torsions:
REMARK  status: ('A' for Active; 'I' for Inactive)
REMARK    1  A    between atoms: N3_8  and  N4_9 
REMARK    2  A    between atoms: N5_12  and  N6_13 
REMARK    3  A    between atoms: N6_13  and  C4_14 
REMARK    4  A    between atoms: C4_14  and  C5_15 
REMARK    5  A    between atoms: C6_16  and  C7_17 
REMARK    6  A    between atoms: C7_17  and  C8_18 
REMARK    7  A    between atoms: C8_18  and  O2_19 
REMARK    8  A    between atoms: C10_25  and  N8_26 
REMARK    9  A    between atoms: C15_35  and  O5_36 
ROOT
HETATM    1  C5  UNL     1      17.314   6.350  12.888  1.00  0.00     0.063 C 
HETATM    2  C6  UNL     1      16.682   7.474  12.212  1.00  0.00     0.195 C 
HETATM    3  N7  UNL     1      16.735   7.280  10.745  1.00  0.00    -0.068 N 
ATOM      4  H71 UNL     1      16.121   7.898  10.215  1.00  0.00     0.277 HD
ATOM      5  H72 UNL     1      16.316   6.409  10.419  1.00  0.00     0.277 HD
HETATM    6  C9  UNL     1      18.168   7.426  10.431  1.00  0.00     0.261 C 
HETATM    7  C10 UNL     1      18.766   6.094  10.806  1.00  0.00     0.148 C 
HETATM    8  C15 UNL     1      18.233   5.500  12.047  1.00  0.00     0.150 C 
ENDROOT
BRANCH   1   9
HETATM    9  C4  UNL     1      16.434   5.391  13.657  1.00  0.00     0.146 C 
BRANCH   9  10
HETATM   10  N6  UNL     1      17.057   4.809  14.823  1.00  0.00    -0.113 NA
BRANCH  10  11
HETATM   11  N5  UNL     1      16.039   4.347  15.657  1.00  0.00    -0.146 N 
HETATM   12  C1  UNL     1      15.009   5.187  16.075  1.00  0.00     0.225 A 
HETATM   13  N1  UNL     1      14.891   6.568  15.708  1.00  0.00    -0.061 NA
HETATM   14  N2  UNL     1      14.078   4.748  16.843  1.00  0.00    -0.353 N 
HETATM   15  C2  UNL     1      13.947   3.424  17.360  1.00  0.00     0.229 A 
ATOM     16  H2  UNL     1      13.356   5.417  17.113  1.00  0.00     0.162 HD
HETATM   17  C3  UNL     1      15.042   2.531  16.921  1.00  0.00     0.276 A 
HETATM   18  O1  UNL     1      15.069   1.327  17.301  1.00  0.00    -0.268 OA
HETATM   19  N3  UNL     1      16.076   3.011  16.071  1.00  0.00    -0.145 N 
BRANCH  19  20
HETATM   20  N4  UNL     1      17.111   2.170  15.657  1.00  0.00    -0.320 N 
ATOM     21  H42 UNL     1      16.916   1.208  15.378  1.00  0.00     0.179 HD
ATOM     22  H41 UNL     1      18.075   2.503  15.624  1.00  0.00     0.179 HD
ENDBRANCH  19  20
ENDBRANCH  10  11
ENDBRANCH   9  10
ENDBRANCH   1   9
BRANCH   2  23
HETATM   23  C7  UNL     1      15.313   7.904  12.586  1.00  0.00     0.059 C 
BRANCH  23  24
HETATM   24  C8  UNL     1      14.824   9.058  11.696  1.00  0.00     0.166 C 
BRANCH  24  25
HETATM   25  O2  UNL     1      14.253   8.614  10.535  1.00  0.00    -0.401 OA
ATOM     26  H2  UNL     1      14.415   9.200   9.806  1.00  0.00     0.209 HD
ENDBRANCH  24  25
ENDBRANCH  23  24
ENDBRANCH   2  23
BRANCH   8  27
HETATM   27  O5  UNL     1      17.595   4.257  11.798  1.00  0.00    -0.393 OA
ATOM     28  H5  UNL     1      18.106   3.568  12.205  1.00  0.00     0.210 HD
ENDBRANCH   8  27
BRANCH   7  29
HETATM   29  N8  UNL     1      20.223   6.063  10.689  1.00  0.00    -0.301 N 
HETATM   30  C11 UNL     1      21.019   6.856  11.450  1.00  0.00     0.102 A 
HETATM   31  C12 UNL     1      22.389   6.847  11.361  1.00  0.00     0.092 A 
HETATM   32  C13 UNL     1      22.970   5.990  10.454  1.00  0.00     0.250 A 
HETATM   33  O3  UNL     1      24.236   5.917  10.303  1.00  0.00    -0.268 OA
HETATM   34  N9  UNL     1      22.147   5.229   9.726  1.00  0.00    -0.275 N 
HETATM   35  C14 UNL     1      20.816   5.236   9.812  1.00  0.00     0.329 A 
ATOM     36  H9  UNL     1      22.570   4.591   9.052  1.00  0.00     0.173 HD
HETATM   37  O4  UNL     1      20.095   4.482   9.086  1.00  0.00    -0.246 OA
ENDBRANCH   7  29
TORSDOF 9
ENDMDL
MODEL 4
REMARK VINA RESULT: -7.630315849      2.615      3.076
REMARK  9 active torsions:
REMARK  status: ('A' for Active; 'I' for Inactive)
REMARK    1  A    between atoms: N3_8  and  N4_9 
REMARK    2  A    between atoms: N5_12  and  N6_13 
REMARK    3  A    between atoms: N6_13  and  C4_14 
REMARK    4  A    between atoms: C4_14  and  C5_15 
REMARK    5  A    between atoms: C6_16  and  C7_17 
REMARK    6  A    between atoms: C7_17  and  C8_18 
REMARK    7  A    between atoms: C8_18  and  O2_19 
REMARK    8  A    between atoms: C10_25  and  N8_26 
REMARK    9  A    between atoms: C15_35  and  O5_36 
ROOT
HETATM    1  C5  UNL     1      17.010   4.335  11.518  1.00  0.00     0.063 C 
HETATM    2  C6  UNL     1      17.902   3.235  11.178  1.00  0.00     0.195 C 
HETATM    3  N7  UNL     1      19.312   3.665  11.310  1.00  0.00    -0.068 N 
ATOM      4  H71 UNL     1      19.988   2.902  11.313  1.00  0.00     0.277 HD
ATOM      5  H72 UNL     1      19.559   4.030  12.230  1.00  0.00     0.277 HD
HETATM    6  C9  UNL     1      19.482   4.627  10.205  1.00  0.00     0.261 C 
HETATM    7  C10 UNL     1      18.862   5.899  10.723  1.00  0.00     0.148 C 
HETATM    8  C15 UNL     1      17.617   5.715  11.494  1.00  0.00     0.150 C 
ENDROOT
BRANCH   1   9
HETATM    9  C4  UNL     1      16.218   4.242  12.803  1.00  0.00     0.146 C 
BRANCH   9  10
HETATM   10  N6  UNL     1      17.023   4.096  13.994  1.00  0.00    -0.113 NA
BRANCH  10  11
HETATM   11  N5  UNL     1      16.153   3.968  15.076  1.00  0.00    -0.146 N 
HETATM   12  C1  UNL     1      15.365   5.036  15.501  1.00  0.00     0.225 A 
HETATM   13  N1  UNL     1      15.366   6.335  14.894  1.00  0.00    -0.061 NA
HETATM   14  N2  UNL     1      14.568   4.904  16.500  1.00  0.00    -0.353 N 
HETATM   15  C2  UNL     1      14.365   3.729  17.285  1.00  0.00     0.229 A 
ATOM     16  H2  UNL     1      14.022   5.726  16.759  1.00  0.00     0.162 HD
HETATM   17  C3  UNL     1      15.205   2.595  16.838  1.00  0.00     0.276 A 
HETATM   18  O1  UNL     1      15.143   1.486  17.439  1.00  0.00    -0.268 OA
HETATM   19  N3  UNL     1      16.089   2.735  15.734  1.00  0.00    -0.145 N 
BRANCH  19  20
HETATM   20  N4  UNL     1      16.883   1.666  15.312  1.00  0.00    -0.320 N 
ATOM     21  H42 UNL     1      17.057   0.875  15.932  1.00  0.00     0.179 HD
ATOM     22  H41 UNL     1      17.297   1.658  14.379  1.00  0.00     0.179 HD
ENDBRANCH  19  20
ENDBRANCH  10  11
ENDBRANCH   9  10
ENDBRANCH   1   9
BRANCH   2  23
HETATM   23  C7  UNL     1      17.746   1.911  11.827  1.00  0.00     0.059 C 
BRANCH  23  24
HETATM   24  C8  UNL     1      17.895   0.767  10.812  1.00  0.00     0.166 C 
BRANCH  24  25
HETATM   25  O2  UNL     1      18.011   1.224   9.526  1.00  0.00    -0.401 OA
ATOM     26  H2  UNL     1      18.566   0.667   8.995  1.00  0.00     0.209 HD
ENDBRANCH  24  25
ENDBRANCH  23  24
ENDBRANCH   2  23
BRANCH   8  27
HETATM   27  O5  UNL     1      17.761   6.167  12.832  1.00  0.00    -0.393 OA
ATOM     28  H5  UNL     1      17.371   7.031  12.902  1.00  0.00     0.210 HD
ENDBRANCH   8  27
BRANCH   7  29
HETATM   29  N8  UNL     1      18.810   6.964   9.723  1.00  0.00    -0.301 N 
HETATM   30  C11 UNL     1      18.105   6.832   8.572  1.00  0.00     0.102 A 
HETATM   31  C12 UNL     1      18.039   7.816   7.616  1.00  0.00     0.092 A 
HETATM   32  C13 UNL     1      18.726   8.986   7.849  1.00  0.00     0.250 A 
HETATM   33  O3  UNL     1      18.722   9.954   7.015  1.00  0.00    -0.268 OA
HETATM   34  N9  UNL     1      19.407   9.072   8.996  1.00  0.00    -0.275 N 
HETATM   35  C14 UNL     1      19.471   8.117   9.925  1.00  0.00     0.329 A 
ATOM     36  H9  UNL     1      19.918   9.936   9.175  1.00  0.00     0.173 HD
HETATM   37  O4  UNL     1      20.141   8.269  10.995  1.00  0.00    -0.246 OA
ENDBRANCH   7  29
TORSDOF 9
ENDMDL
MODEL 5
REMARK VINA RESULT: -7.490083267      2.852      3.005
REMARK  9 active torsions:
REMARK  status: ('A' for Active; 'I' for Inactive)
REMARK    1  A    between atoms: N3_8  and  N4_9 
REMARK    2  A    between atoms: N5_12  and  N6_13 
REMARK    3  A    between atoms: N6_13  and  C4_14 
REMARK    4  A    between atoms: C4_14  and  C5_15 
REMARK    5  A    between atoms: C6_16  and  C7_17 
REMARK    6  A    between atoms: C7_17  and  C8_18 
REMARK    7  A    between atoms: C8_18  and  O2_19 
REMARK    8  A    between atoms: C10_25  and  N8_26 
REMARK    9  A    between atoms: C15_35  and  O5_36 
ROOT
HETATM    1  C5  UNL     1      17.164   5.457  12.303  1.00  0.00     0.063 C 
HETATM    2  C6  UNL     1      18.197   4.639  11.684  1.00  0.00     0.195 C 
HETATM    3  N7  UNL     1      19.535   5.084  12.134  1.00  0.00    -0.068 N 
ATOM      4  H71 UNL     1      20.289   4.427  11.932  1.00  0.00     0.277 HD
ATOM      5  H72 UNL     1      19.663   5.082  13.147  1.00  0.00     0.277 HD
HETATM    6  C9  UNL     1      19.689   6.406  11.500  1.00  0.00     0.261 C 
HETATM    7  C10 UNL     1      18.890   7.333  12.380  1.00  0.00     0.148 C 
HETATM    8  C15 UNL     1      17.614   6.779  12.872  1.00  0.00     0.150 C 
ENDROOT
BRANCH   1   9
HETATM    9  C4  UNL     1      16.283   4.821  13.354  1.00  0.00     0.146 C 
BRANCH   9  10
HETATM   10  N6  UNL     1      16.986   4.374  14.535  1.00  0.00    -0.113 NA
BRANCH  10  11
HETATM   11  N5  UNL     1      16.029   4.028  15.489  1.00  0.00    -0.146 N 
HETATM   12  C1  UNL     1      15.059   4.938  15.904  1.00  0.00     0.225 A 
HETATM   13  N1  UNL     1      14.947   6.282  15.415  1.00  0.00    -0.061 NA
HETATM   14  N2  UNL     1      14.184   4.607  16.783  1.00  0.00    -0.353 N 
HETATM   15  C2  UNL     1      14.061   3.342  17.434  1.00  0.00     0.229 A 
ATOM     16  H2  UNL     1      13.505   5.322  17.043  1.00  0.00     0.162 HD
HETATM   17  C3  UNL     1      15.093   2.375  16.999  1.00  0.00     0.276 A 
HETATM   18  O1  UNL     1      15.119   1.212  17.490  1.00  0.00    -0.268 OA
HETATM   19  N3  UNL     1      16.064   2.737  16.026  1.00  0.00    -0.145 N 
BRANCH  19  20
HETATM   20  N4  UNL     1      17.039   1.825  15.614  1.00  0.00    -0.320 N 
ATOM     21  H42 UNL     1      17.284   1.028  16.202  1.00  0.00     0.179 HD
ATOM     22  H41 UNL     1      17.519   1.940  14.721  1.00  0.00     0.179 HD
ENDBRANCH  19  20
ENDBRANCH  10  11
ENDBRANCH   9  10
ENDBRANCH   1   9
BRANCH   2  23
HETATM   23  C7  UNL     1      18.135   3.160  11.765  1.00  0.00     0.059 C 
BRANCH  23  24
HETATM   24  C8  UNL     1      19.284   2.505  10.980  1.00  0.00     0.166 C 
BRANCH  24  25
HETATM   25  O2  UNL     1      19.525   3.136   9.789  1.00  0.00    -0.401 OA
ATOM     26  H2  UNL     1      20.452   3.195   9.593  1.00  0.00     0.209 HD
ENDBRANCH  24  25
ENDBRANCH  23  24
ENDBRANCH   2  23
BRANCH   8  27
HETATM   27  O5  UNL     1      17.595   6.690  14.288  1.00  0.00    -0.393 OA
ATOM     28  H5  UNL     1      17.189   5.867  14.533  1.00  0.00     0.210 HD
ENDBRANCH   8  27
BRANCH   7  29
HETATM   29  N8  UNL     1      18.804   8.694  11.854  1.00  0.00    -0.301 N 
HETATM   30  C11 UNL     1      18.652   8.942  10.530  1.00  0.00     0.102 A 
HETATM   31  C12 UNL     1      18.568  10.210  10.009  1.00  0.00     0.092 A 
HETATM   32  C13 UNL     1      18.645  11.271  10.884  1.00  0.00     0.250 A 
HETATM   33  O3  UNL     1      18.577  12.484  10.488  1.00  0.00    -0.268 OA
HETATM   34  N9  UNL     1      18.795  10.979  12.179  1.00  0.00    -0.275 N 
HETATM   35  C14 UNL     1      18.876   9.749  12.685  1.00  0.00     0.329 A 
ATOM     36  H9  UNL     1      18.852  11.760  12.832  1.00  0.00     0.173 HD
HETATM   37  O4  UNL     1      19.019   9.546  13.932  1.00  0.00    -0.246 OA
ENDBRANCH   7  29
TORSDOF 9
ENDMDL
