MODEL 1
REMARK VINA RESULT: -11.046171033      0.000      0.000
REMARK  6 active torsions:
REMARK  status: ('A' for Active; 'I' for Inactive)
REMARK    1  A    between atoms: N4_8  and  C3_9 
REMARK    2  A    between atoms: C9_16  and  C10_17 
REMARK    3  A    between atoms: N5_20  and  C13_21 
REMARK    4  A    between atoms: C14_24  and  N7_25 
REMARK    5  A    between atoms: C18_33  and  C19_34 
REMARK    6  A    between atoms: N9_41  and  C26_42 
ROOT
HETATM    1  N1  UNL     1      39.466   0.611 -10.001  1.00  0.00    -0.190 NA
HETATM    2  C1  UNL     1      40.087   0.815 -10.967  1.00  0.00     0.121 C 
HETATM    3  C2  UNL     1      40.868   1.027 -12.144  1.00  0.00     0.159 A 
HETATM    4  N2  UNL     1      42.206   1.008 -12.090  1.00  0.00    -0.274 N 
ATOM      5  H2  UNL     1      42.783   0.890 -11.258  1.00  0.00     0.189 HD
HETATM    6  N3  UNL     1      42.621   1.167 -13.302  1.00  0.00    -0.234 N 
ATOM      7  H3  UNL     1      43.604   1.194 -13.577  1.00  0.00     0.209 HD
HETATM    8  N4  UNL     1      41.607   1.291 -14.139  1.00  0.00    -0.239 N 
HETATM    9  C9  UNL     1      40.423   1.204 -13.458  1.00  0.00     0.099 A 
ENDROOT
BRANCH   9  10
HETATM   10  C10 UNL     1      39.056   1.461 -13.957  1.00  0.00    -0.045 C 
HETATM   11  C11 UNL     1      38.806   2.891 -14.241  1.00  0.00     0.057 C 
HETATM   12  C12 UNL     1      37.635   3.206 -15.151  1.00  0.00     0.145 C 
HETATM   13  N5  UNL     1      36.968   2.114 -15.757  1.00  0.00    -0.217 N 
HETATM   14  C32 UNL     1      37.005   0.781 -15.213  1.00  0.00     0.145 C 
HETATM   15  C33 UNL     1      38.325   0.389 -14.587  1.00  0.00     0.057 C 
BRANCH  13  16
HETATM   16  C13 UNL     1      36.232   2.267 -16.964  1.00  0.00     0.682 A 
HETATM   17  N6  UNL     1      35.730   1.167 -17.596  1.00  0.00    -0.175 N 
HETATM   18  C14 UNL     1      35.080   1.159 -18.763  1.00  0.00     0.143 A 
ATOM     19  H6  UNL     1      35.864   0.268 -17.135  1.00  0.00     0.186 HD
HETATM   20  C15 UNL     1      34.892   2.364 -19.410  1.00  0.00     0.103 A 
HETATM   21  C16 UNL     1      35.365   3.507 -18.807  1.00  0.00     0.058 A 
HETATM   22  N9  UNL     1      34.401   2.424 -20.722  1.00  0.00    -0.342 N 
HETATM   23  N8  UNL     1      36.013   3.407 -17.620  1.00  0.00    -0.193 N 
HETATM   24  C17 UNL     1      35.038   4.839 -19.364  1.00  0.00     0.071 C 
ATOM     25  H8  UNL     1      36.359   4.269 -17.197  1.00  0.00     0.184 HD
HETATM   26  C18 UNL     1      34.443   4.910 -20.694  1.00  0.00     0.042 C 
HETATM   27  C25 UNL     1      33.950   3.657 -21.330  1.00  0.00     0.139 C 
BRANCH  18  28
HETATM   28  N7  UNL     1      34.540   0.079 -19.220  1.00  0.00    -0.383 N 
ATOM     29  H72 UNL     1      33.581   0.086 -19.565  1.00  0.00     0.157 HD
ATOM     30  H71 UNL     1      35.024  -0.817 -19.161  1.00  0.00     0.157 HD
ENDBRANCH  18  28
BRANCH  26  31
HETATM   31  C19 UNL     1      33.298   5.907 -20.734  1.00  0.00    -0.052 A 
HETATM   32  C20 UNL     1      32.732   6.383 -19.554  1.00  0.00     0.007 A 
HETATM   33  C21 UNL     1      31.646   7.250 -19.621  1.00  0.00     0.001 A 
HETATM   34  C22 UNL     1      31.094   7.673 -20.809  1.00  0.00     0.000 A 
HETATM   35  C23 UNL     1      31.673   7.186 -21.982  1.00  0.00     0.001 A 
HETATM   36  C24 UNL     1      32.744   6.327 -21.914  1.00  0.00     0.007 A 
ENDBRANCH  26  31
BRANCH  22  37
HETATM   37  C26 UNL     1      34.386   1.291 -21.572  1.00  0.00     0.035 A 
HETATM   38  C27 UNL     1      33.179   0.692 -21.830  1.00  0.00     0.029 A 
HETATM   39  C28 UNL     1      32.994  -0.360 -22.695  1.00  0.00     0.002 A 
HETATM   40  C29 UNL     1      34.149  -0.822 -23.339  1.00  0.00     0.000 A 
HETATM   41  C30 UNL     1      35.363  -0.231 -23.086  1.00  0.00     0.002 A 
HETATM   42  C31 UNL     1      35.489   0.844 -22.192  1.00  0.00     0.029 A 
ENDBRANCH  22  37
ENDBRANCH  13  16
ENDBRANCH   9  10
BRANCH   8  43
HETATM   43  C3  UNL     1      41.803   1.631 -15.471  1.00  0.00     0.058 A 
HETATM   44  C4  UNL     1      41.606   0.576 -16.388  1.00  0.00     0.033 A 
HETATM   45  C5  UNL     1      41.761   0.838 -17.711  1.00  0.00     0.026 A 
HETATM   46  C6  UNL     1      42.103   2.093 -18.199  1.00  0.00     0.034 A 
HETATM   47 CL1  UNL     1      42.277   2.312 -19.902  1.00  0.00    -0.084 Cl
HETATM   48  C7  UNL     1      42.288   3.120 -17.262  1.00  0.00     0.026 A 
HETATM   49  C8  UNL     1      42.137   2.877 -15.907  1.00  0.00     0.033 A 
ENDBRANCH   8  43
TORSDOF 6
ENDMDL
MODEL 2
REMARK VINA RESULT: -10.902444984      0.315      1.069
REMARK  6 active torsions:
REMARK  status: ('A' for Active; 'I' for Inactive)
REMARK    1  A    between atoms: N4_8  and  C3_9 
REMARK    2  A    between atoms: C9_16  and  C10_17 
REMARK    3  A    between atoms: N5_20  and  C13_21 
REMARK    4  A    between atoms: C14_24  and  N7_25 
REMARK    5  A    between atoms: C18_33  and  C19_34 
REMARK    6  A    between atoms: N9_41  and  C26_42 
ROOT
HETATM    1  N1  UNL     1      39.838   0.602 -10.184  1.00  0.00    -0.190 NA
HETATM    2  C1  UNL     1      40.433   0.808 -11.166  1.00  0.00     0.121 C 
HETATM    3  C2  UNL     1      41.182   1.024 -12.362  1.00  0.00     0.159 A 
HETATM    4  N2  UNL     1      42.521   1.010 -12.343  1.00  0.00    -0.274 N 
ATOM      5  H2  UNL     1      43.120   0.894 -11.526  1.00  0.00     0.189 HD
HETATM    6  N3  UNL     1      42.905   1.172 -13.564  1.00  0.00    -0.234 N 
ATOM      7  H3  UNL     1      43.879   1.202 -13.865  1.00  0.00     0.209 HD
HETATM    8  N4  UNL     1      41.868   1.293 -14.376  1.00  0.00    -0.239 N 
HETATM    9  C9  UNL     1      40.703   1.200 -13.664  1.00  0.00     0.099 A 
ENDROOT
BRANCH   9  10
HETATM   10  C10 UNL     1      39.322   1.453 -14.128  1.00  0.00    -0.045 C 
HETATM   11  C11 UNL     1      39.064   2.880 -14.417  1.00  0.00     0.057 C 
HETATM   12  C12 UNL     1      37.868   3.187 -15.297  1.00  0.00     0.145 C 
HETATM   13  N5  UNL     1      37.186   2.090 -15.875  1.00  0.00    -0.217 N 
HETATM   14  C32 UNL     1      37.238   0.761 -15.321  1.00  0.00     0.145 C 
HETATM   15  C33 UNL     1      38.575   0.375 -14.728  1.00  0.00     0.057 C 
BRANCH  13  16
HETATM   16  C13 UNL     1      36.417   2.232 -17.063  1.00  0.00     0.682 A 
HETATM   17  N6  UNL     1      35.925   1.124 -17.690  1.00  0.00    -0.175 N 
HETATM   18  C14 UNL     1      35.247   1.108 -18.840  1.00  0.00     0.143 A 
ATOM     19  H6  UNL     1      36.092   0.226 -17.238  1.00  0.00     0.186 HD
HETATM   20  C15 UNL     1      35.014   2.311 -19.475  1.00  0.00     0.103 A 
HETATM   21  C16 UNL     1      35.475   3.461 -18.876  1.00  0.00     0.058 A 
HETATM   22  N9  UNL     1      34.490   2.367 -20.774  1.00  0.00    -0.342 N 
HETATM   23  N8  UNL     1      36.155   3.370 -17.706  1.00  0.00    -0.193 N 
HETATM   24  C17 UNL     1      35.102   4.788 -19.417  1.00  0.00     0.071 C 
ATOM     25  H8  UNL     1      36.490   4.238 -17.286  1.00  0.00     0.184 HD
HETATM   26  C18 UNL     1      34.473   4.853 -20.731  1.00  0.00     0.042 C 
HETATM   27  C25 UNL     1      33.995   3.592 -21.362  1.00  0.00     0.139 C 
BRANCH  18  28
HETATM   28  N7  UNL     1      34.722   0.017 -19.291  1.00  0.00    -0.383 N 
ATOM     29  H72 UNL     1      33.833   0.038 -19.790  1.00  0.00     0.157 HD
ATOM     30  H71 UNL     1      35.133  -0.892 -19.079  1.00  0.00     0.157 HD
ENDBRANCH  18  28
BRANCH  26  31
HETATM   31  C19 UNL     1      33.305   5.823 -20.737  1.00  0.00    -0.052 A 
HETATM   32  C20 UNL     1      32.763   6.271 -21.939  1.00  0.00     0.007 A 
HETATM   33  C21 UNL     1      31.732   7.205 -21.914  1.00  0.00     0.001 A 
HETATM   34  C22 UNL     1      31.207   7.715 -20.749  1.00  0.00     0.000 A 
HETATM   35  C23 UNL     1      31.762   7.255 -19.553  1.00  0.00     0.001 A 
HETATM   36  C24 UNL     1      32.782   6.335 -19.580  1.00  0.00     0.007 A 
ENDBRANCH  26  31
BRANCH  22  37
HETATM   37  C26 UNL     1      34.482   1.239 -21.631  1.00  0.00     0.035 A 
HETATM   38  C27 UNL     1      33.291   0.585 -21.827  1.00  0.00     0.029 A 
HETATM   39  C28 UNL     1      33.108  -0.470 -22.688  1.00  0.00     0.002 A 
HETATM   40  C29 UNL     1      34.246  -0.874 -23.398  1.00  0.00     0.000 A 
HETATM   41  C30 UNL     1      35.443  -0.227 -23.207  1.00  0.00     0.002 A 
HETATM   42  C31 UNL     1      35.568   0.847 -22.313  1.00  0.00     0.029 A 
ENDBRANCH  22  37
ENDBRANCH  13  16
ENDBRANCH   9  10
BRANCH   8  43
HETATM   43  C3  UNL     1      42.029   1.634 -15.712  1.00  0.00     0.058 A 
HETATM   44  C4  UNL     1      42.536   2.932 -15.935  1.00  0.00     0.033 A 
HETATM   45  C5  UNL     1      42.739   3.331 -17.218  1.00  0.00     0.026 A 
HETATM   46  C6  UNL     1      42.470   2.520 -18.313  1.00  0.00     0.034 A 
HETATM   47 CL1  UNL     1      42.762   3.130 -19.900  1.00  0.00    -0.084 Cl
HETATM   48  C7  UNL     1      41.971   1.235 -18.056  1.00  0.00     0.026 A 
HETATM   49  C8  UNL     1      41.755   0.806 -16.757  1.00  0.00     0.033 A 
ENDBRANCH   8  43
TORSDOF 6
ENDMDL
MODEL 3
REMARK VINA RESULT: -10.521357435      2.078      2.954
REMARK  6 active torsions:
REMARK  status: ('A' for Active; 'I' for Inactive)
REMARK    1  A    between atoms: N4_8  and  C3_9 
REMARK    2  A    between atoms: C9_16  and  C10_17 
REMARK    3  A    between atoms: N5_20  and  C13_21 
REMARK    4  A    between atoms: C14_24  and  N7_25 
REMARK    5  A    between atoms: C18_33  and  C19_34 
REMARK    6  A    between atoms: N9_41  and  C26_42 
ROOT
HETATM    1  N1  UNL     1      35.651   0.295 -12.169  1.00  0.00    -0.190 NA
HETATM    2  C1  UNL     1      36.809   0.282 -12.027  1.00  0.00     0.121 C 
HETATM    3  C2  UNL     1      38.223   0.225 -11.837  1.00  0.00     0.159 A 
HETATM    4  N2  UNL     1      38.742  -0.063 -10.636  1.00  0.00    -0.274 N 
ATOM      5  H2  UNL     1      38.228  -0.222  -9.771  1.00  0.00     0.189 HD
HETATM    6  N3  UNL     1      40.022  -0.098 -10.792  1.00  0.00    -0.234 N 
ATOM      7  H3  UNL     1      40.690  -0.297 -10.046  1.00  0.00     0.209 HD
HETATM    8  N4  UNL     1      40.357   0.157 -12.045  1.00  0.00    -0.239 N 
HETATM    9  C9  UNL     1      39.232   0.374 -12.795  1.00  0.00     0.099 A 
ENDROOT
BRANCH   9  10
HETATM   10  C10 UNL     1      39.137   0.861 -14.187  1.00  0.00    -0.045 C 
HETATM   11  C11 UNL     1      39.196  -0.231 -15.184  1.00  0.00     0.057 C 
HETATM   12  C12 UNL     1      38.672   0.089 -16.570  1.00  0.00     0.145 C 
HETATM   13  N5  UNL     1      38.052   1.348 -16.758  1.00  0.00    -0.217 N 
HETATM   14  C32 UNL     1      38.311   2.479 -15.903  1.00  0.00     0.145 C 
HETATM   15  C33 UNL     1      38.514   2.136 -14.444  1.00  0.00     0.057 C 
BRANCH  13  16
HETATM   16  C13 UNL     1      37.110   1.567 -17.801  1.00  0.00     0.682 A 
HETATM   17  N6  UNL     1      36.494   0.502 -18.392  1.00  0.00    -0.175 N 
HETATM   18  C14 UNL     1      35.642   0.559 -19.419  1.00  0.00     0.143 A 
ATOM     19  H6  UNL     1      36.703  -0.421 -18.014  1.00  0.00     0.186 HD
HETATM   20  C15 UNL     1      35.348   1.797 -19.952  1.00  0.00     0.103 A 
HETATM   21  C16 UNL     1      35.931   2.906 -19.382  1.00  0.00     0.058 A 
HETATM   22  N9  UNL     1      34.627   1.930 -21.148  1.00  0.00    -0.342 N 
HETATM   23  N8  UNL     1      36.784   2.741 -18.340  1.00  0.00    -0.193 N 
HETATM   24  C17 UNL     1      35.517   4.266 -19.795  1.00  0.00     0.071 C 
ATOM     25  H8  UNL     1      37.207   3.579 -17.940  1.00  0.00     0.184 HD
HETATM   26  C18 UNL     1      34.691   4.410 -20.988  1.00  0.00     0.042 C 
HETATM   27  C25 UNL     1      34.082   3.193 -21.593  1.00  0.00     0.139 C 
BRANCH  18  28
HETATM   28  N7  UNL     1      35.021  -0.496 -19.830  1.00  0.00    -0.383 N 
ATOM     29  H72 UNL     1      35.114  -0.808 -20.797  1.00  0.00     0.157 HD
ATOM     30  H71 UNL     1      34.356  -0.984 -19.230  1.00  0.00     0.157 HD
ENDBRANCH  18  28
BRANCH  26  31
HETATM   31  C19 UNL     1      33.565   5.404 -20.763  1.00  0.00    -0.052 A 
HETATM   32  C20 UNL     1      32.819   5.883 -21.838  1.00  0.00     0.007 A 
HETATM   33  C21 UNL     1      31.833   6.838 -21.609  1.00  0.00     0.001 A 
HETATM   34  C22 UNL     1      31.548   7.341 -20.360  1.00  0.00     0.000 A 
HETATM   35  C23 UNL     1      32.306   6.850 -19.295  1.00  0.00     0.001 A 
HETATM   36  C24 UNL     1      33.281   5.909 -19.523  1.00  0.00     0.007 A 
ENDBRANCH  26  31
BRANCH  22  37
HETATM   37  C26 UNL     1      34.450   0.847 -22.044  1.00  0.00     0.035 A 
HETATM   38  C27 UNL     1      35.537   0.423 -22.767  1.00  0.00     0.029 A 
HETATM   39  C28 UNL     1      35.542  -0.662 -23.611  1.00  0.00     0.002 A 
HETATM   40  C29 UNL     1      34.330  -1.356 -23.709  1.00  0.00     0.000 A 
HETATM   41  C30 UNL     1      33.236  -0.939 -22.990  1.00  0.00     0.002 A 
HETATM   42  C31 UNL     1      33.292   0.177 -22.141  1.00  0.00     0.029 A 
ENDBRANCH  22  37
ENDBRANCH  13  16
ENDBRANCH   9  10
BRANCH   8  43
HETATM   43  C3  UNL     1      41.682   0.331 -12.422  1.00  0.00     0.058 A 
HETATM   44  C4  UNL     1      42.630  -0.049 -11.448  1.00  0.00     0.033 A 
HETATM   45  C5  UNL     1      43.948   0.074 -11.752  1.00  0.00     0.026 A 
HETATM   46  C6  UNL     1      44.399   0.557 -12.974  1.00  0.00     0.034 A 
HETATM   47 CL1  UNL     1      46.099   0.675 -13.252  1.00  0.00    -0.084 Cl
HETATM   48  C7  UNL     1      43.431   0.922 -13.920  1.00  0.00     0.026 A 
HETATM   49  C8  UNL     1      42.082   0.806 -13.633  1.00  0.00     0.033 A 
ENDBRANCH   8  43
TORSDOF 6
ENDMDL
MODEL 4
REMARK VINA RESULT: -10.383753193      2.263      3.453
REMARK  6 active torsions:
REMARK  status: ('A' for Active; 'I' for Inactive)
REMARK    1  A    between atoms: N4_8  and  C3_9 
REMARK    2  A    between atoms: C9_16  and  C10_17 
REMARK    3  A    between atoms: N5_20  and  C13_21 
REMARK    4  A    between atoms: C14_24  and  N7_25 
REMARK    5  A    between atoms: C18_33  and  C19_34 
REMARK    6  A    between atoms: N9_41  and  C26_42 
ROOT
HETATM    1  N1  UNL     1      42.081   5.287 -17.306  1.00  0.00    -0.190 NA
HETATM    2  C1  UNL     1      42.390   4.376 -16.646  1.00  0.00     0.121 C 
HETATM    3  C2  UNL     1      42.784   3.288 -15.809  1.00  0.00     0.159 A 
HETATM    4  N2  UNL     1      44.051   3.170 -15.390  1.00  0.00    -0.274 N 
ATOM      5  H2  UNL     1      44.834   3.774 -15.636  1.00  0.00     0.189 HD
HETATM    6  N3  UNL     1      44.083   2.140 -14.614  1.00  0.00    -0.234 N 
ATOM      7  H3  UNL     1      44.920   1.799 -14.140  1.00  0.00     0.209 HD
HETATM    8  N4  UNL     1      42.889   1.582 -14.514  1.00  0.00    -0.239 N 
HETATM    9  C9  UNL     1      41.981   2.281 -15.263  1.00  0.00     0.099 A 
ENDROOT
BRANCH   9  10
HETATM   10  C10 UNL     1      40.584   1.920 -15.584  1.00  0.00    -0.045 C 
HETATM   11  C11 UNL     1      39.619   2.984 -15.229  1.00  0.00     0.057 C 
HETATM   12  C12 UNL     1      38.261   2.918 -15.899  1.00  0.00     0.145 C 
HETATM   13  N5  UNL     1      38.077   1.935 -16.902  1.00  0.00    -0.217 N 
HETATM   14  C32 UNL     1      38.878   0.740 -16.978  1.00  0.00     0.145 C 
HETATM   15  C33 UNL     1      40.330   0.927 -16.598  1.00  0.00     0.057 C 
BRANCH  13  16
HETATM   16  C13 UNL     1      37.092   2.082 -17.918  1.00  0.00     0.682 A 
HETATM   17  N6  UNL     1      36.478   0.978 -18.432  1.00  0.00    -0.175 N 
HETATM   18  C14 UNL     1      35.589   0.965 -19.428  1.00  0.00     0.143 A 
ATOM     19  H6  UNL     1      36.722   0.079 -18.017  1.00  0.00     0.186 HD
HETATM   20  C15 UNL     1      35.248   2.169 -20.010  1.00  0.00     0.103 A 
HETATM   21  C16 UNL     1      35.826   3.316 -19.517  1.00  0.00     0.058 A 
HETATM   22  N9  UNL     1      34.481   2.228 -21.183  1.00  0.00    -0.342 N 
HETATM   23  N8  UNL     1      36.720   3.221 -18.502  1.00  0.00    -0.193 N 
HETATM   24  C17 UNL     1      35.368   4.646 -19.981  1.00  0.00     0.071 C 
ATOM     25  H8  UNL     1      37.139   4.087 -18.159  1.00  0.00     0.184 HD
HETATM   26  C18 UNL     1      34.495   4.713 -21.147  1.00  0.00     0.042 C 
HETATM   27  C25 UNL     1      33.892   3.455 -21.668  1.00  0.00     0.139 C 
BRANCH  18  28
HETATM   28  N7  UNL     1      34.976  -0.121 -19.763  1.00  0.00    -0.383 N 
ATOM     29  H72 UNL     1      34.600  -0.234 -20.704  1.00  0.00     0.157 HD
ATOM     30  H71 UNL     1      34.775  -0.847 -19.075  1.00  0.00     0.157 HD
ENDBRANCH  18  28
BRANCH  26  31
HETATM   31  C19 UNL     1      33.356   5.694 -20.929  1.00  0.00    -0.052 A 
HETATM   32  C20 UNL     1      33.028   6.124 -19.646  1.00  0.00     0.007 A 
HETATM   33  C21 UNL     1      31.943   6.976 -19.470  1.00  0.00     0.001 A 
HETATM   34  C22 UNL     1      31.166   7.429 -20.512  1.00  0.00     0.000 A 
HETATM   35  C23 UNL     1      31.508   6.988 -21.792  1.00  0.00     0.001 A 
HETATM   36  C24 UNL     1      32.579   6.143 -21.963  1.00  0.00     0.007 A 
ENDBRANCH  26  31
BRANCH  22  37
HETATM   37  C26 UNL     1      34.295   1.097 -22.017  1.00  0.00     0.035 A 
HETATM   38  C27 UNL     1      35.376   0.629 -22.720  1.00  0.00     0.029 A 
HETATM   39  C28 UNL     1      35.374  -0.501 -23.503  1.00  0.00     0.002 A 
HETATM   40  C29 UNL     1      34.157  -1.194 -23.558  1.00  0.00     0.000 A 
HETATM   41  C30 UNL     1      33.068  -0.732 -22.859  1.00  0.00     0.002 A 
HETATM   42  C31 UNL     1      33.134   0.429 -22.073  1.00  0.00     0.029 A 
ENDBRANCH  22  37
ENDBRANCH  13  16
ENDBRANCH   9  10
BRANCH   8  43
HETATM   43  C3  UNL     1      42.706   0.370 -13.863  1.00  0.00     0.058 A 
HETATM   44  C4  UNL     1      42.318   0.475 -12.510  1.00  0.00     0.033 A 
HETATM   45  C5  UNL     1      42.101  -0.670 -11.812  1.00  0.00     0.026 A 
HETATM   46  C6  UNL     1      42.245  -1.933 -12.371  1.00  0.00     0.034 A 
HETATM   47 CL1  UNL     1      41.947  -3.322 -11.390  1.00  0.00    -0.084 Cl
HETATM   48  C7  UNL     1      42.628  -2.003 -13.718  1.00  0.00     0.026 A 
HETATM   49  C8  UNL     1      42.856  -0.850 -14.449  1.00  0.00     0.033 A 
ENDBRANCH   8  43
TORSDOF 6
ENDMDL
MODEL 5
REMARK VINA RESULT: -10.377306837      2.255      3.517
REMARK  6 active torsions:
REMARK  status: ('A' for Active; 'I' for Inactive)
REMARK    1  A    between atoms: N4_8  and  C3_9 
REMARK    2  A    between atoms: C9_16  and  C10_17 
REMARK    3  A    between atoms: N5_20  and  C13_21 
REMARK    4  A    between atoms: C14_24  and  N7_25 
REMARK    5  A    between atoms: C18_33  and  C19_34 
REMARK    6  A    between atoms: N9_41  and  C26_42 
ROOT
HETATM    1  N1  UNL     1      42.353   4.985 -17.644  1.00  0.00    -0.190 NA
HETATM    2  C1  UNL     1      42.597   4.139 -16.880  1.00  0.00     0.121 C 
HETATM    3  C2  UNL     1      42.913   3.132 -15.918  1.00  0.00     0.159 A 
HETATM    4  N2  UNL     1      44.168   2.976 -15.476  1.00  0.00    -0.274 N 
ATOM      5  H2  UNL     1      44.992   3.492 -15.783  1.00  0.00     0.189 HD
HETATM    6  N3  UNL     1      44.128   2.045 -14.585  1.00  0.00    -0.234 N 
ATOM      7  H3  UNL     1      44.938   1.705 -14.067  1.00  0.00     0.209 HD
HETATM    8  N4  UNL     1      42.897   1.587 -14.431  1.00  0.00    -0.239 N 
HETATM    9  C9  UNL     1      42.041   2.253 -15.265  1.00  0.00     0.099 A 
ENDROOT
BRANCH   9  10
HETATM   10  C10 UNL     1      40.623   1.955 -15.555  1.00  0.00    -0.045 C 
HETATM   11  C11 UNL     1      39.727   3.101 -15.286  1.00  0.00     0.057 C 
HETATM   12  C12 UNL     1      38.364   3.065 -15.949  1.00  0.00     0.145 C 
HETATM   13  N5  UNL     1      38.114   2.018 -16.868  1.00  0.00    -0.217 N 
HETATM   14  C32 UNL     1      38.840   0.774 -16.848  1.00  0.00     0.145 C 
HETATM   15  C33 UNL     1      40.303   0.900 -16.485  1.00  0.00     0.057 C 
BRANCH  13  16
HETATM   16  C13 UNL     1      37.135   2.143 -17.892  1.00  0.00     0.682 A 
HETATM   17  N6  UNL     1      36.560   1.024 -18.421  1.00  0.00    -0.175 N 
HETATM   18  C14 UNL     1      35.680   0.992 -19.425  1.00  0.00     0.143 A 
ATOM     19  H6  UNL     1      36.827   0.130 -18.011  1.00  0.00     0.186 HD
HETATM   20  C15 UNL     1      35.307   2.190 -20.000  1.00  0.00     0.103 A 
HETATM   21  C16 UNL     1      35.846   3.351 -19.493  1.00  0.00     0.058 A 
HETATM   22  N9  UNL     1      34.549   2.235 -21.180  1.00  0.00    -0.342 N 
HETATM   23  N8  UNL     1      36.733   3.275 -18.470  1.00  0.00    -0.193 N 
HETATM   24  C17 UNL     1      35.351   4.669 -19.950  1.00  0.00     0.071 C 
ATOM     25  H8  UNL     1      37.122   4.150 -18.117  1.00  0.00     0.184 HD
HETATM   26  C18 UNL     1      34.487   4.719 -21.125  1.00  0.00     0.042 C 
HETATM   27  C25 UNL     1      33.927   3.448 -21.661  1.00  0.00     0.139 C 
BRANCH  18  28
HETATM   28  N7  UNL     1      35.104  -0.109 -19.774  1.00  0.00    -0.383 N 
ATOM     29  H72 UNL     1      34.681  -0.202 -20.697  1.00  0.00     0.157 HD
ATOM     30  H71 UNL     1      34.979  -0.873 -19.109  1.00  0.00     0.157 HD
ENDBRANCH  18  28
BRANCH  26  31
HETATM   31  C19 UNL     1      33.317   5.663 -20.909  1.00  0.00    -0.052 A 
HETATM   32  C20 UNL     1      32.589   6.148 -21.994  1.00  0.00     0.007 A 
HETATM   33  C21 UNL     1      31.561   7.057 -21.772  1.00  0.00     0.001 A 
HETATM   34  C22 UNL     1      31.214   7.509 -20.518  1.00  0.00     0.000 A 
HETATM   35  C23 UNL     1      31.953   7.013 -19.443  1.00  0.00     0.001 A 
HETATM   36  C24 UNL     1      32.972   6.117 -19.665  1.00  0.00     0.007 A 
ENDBRANCH  26  31
BRANCH  22  37
HETATM   37  C26 UNL     1      34.406   1.106 -22.024  1.00  0.00     0.035 A 
HETATM   38  C27 UNL     1      35.507   0.677 -22.721  1.00  0.00     0.029 A 
HETATM   39  C28 UNL     1      35.546  -0.445 -23.513  1.00  0.00     0.002 A 
HETATM   40  C29 UNL     1      34.353  -1.175 -23.585  1.00  0.00     0.000 A 
HETATM   41  C30 UNL     1      33.244  -0.753 -22.891  1.00  0.00     0.002 A 
HETATM   42  C31 UNL     1      33.266   0.403 -22.096  1.00  0.00     0.029 A 
ENDBRANCH  22  37
ENDBRANCH  13  16
ENDBRANCH   9  10
BRANCH   8  43
HETATM   43  C3  UNL     1      42.630   0.474 -13.645  1.00  0.00     0.058 A 
HETATM   44  C4  UNL     1      42.920  -0.766 -14.253  1.00  0.00     0.033 A 
HETATM   45  C5  UNL     1      42.703  -1.899 -13.537  1.00  0.00     0.026 A 
HETATM   46  C6  UNL     1      42.210  -1.890 -12.239  1.00  0.00     0.034 A 
HETATM   47 CL1  UNL     1      41.970  -3.392 -11.423  1.00  0.00    -0.084 Cl
HETATM   48  C7  UNL     1      41.936  -0.642 -11.662  1.00  0.00     0.026 A 
HETATM   49  C8  UNL     1      42.149   0.528 -12.372  1.00  0.00     0.033 A 
ENDBRANCH   8  43
TORSDOF 6
ENDMDL
