MODEL 1
REMARK VINA RESULT: -5.558630697      0.000      0.000
REMARK  8 active torsions:
REMARK  status: ('A' for Active; 'I' for Inactive)
REMARK    1  A    between atoms: C2_2  and  C3_3 
REMARK    2  A    between atoms: C3_3  and  C4_4 
REMARK    3  A    between atoms: C4_4  and  C5_5 
REMARK    4  A    between atoms: C11_16  and  C12_17 
REMARK    5  A    between atoms: C12_17  and  C13_18 
REMARK    6  A    between atoms: C18_25  and  C19_26 
REMARK    7  A    between atoms: C19_26  and  C21_28 
REMARK    8  A    between atoms: C24_34  and  C25_35 
ROOT
HETATM    1  C5  UNL     1       7.464   8.426 -19.870  1.00  0.00     0.155 C 
HETATM    2  N1  UNL     1       8.592   8.869 -19.120  1.00  0.00    -0.348 N 
ATOM      3  H1  UNL     1       8.485   8.875 -18.106  1.00  0.00     0.163 HD
HETATM    4  C6  UNL     1       9.845   9.302 -19.619  1.00  0.00     0.240 C 
HETATM    5  O1  UNL     1      10.425  10.337 -19.123  1.00  0.00    -0.271 OA
HETATM    6  C7  UNL     1      10.578   8.646 -20.700  1.00  0.00     0.175 C 
HETATM    7  C8  UNL     1      10.235   9.516 -21.930  1.00  0.00     0.042 C 
HETATM    8  N2  UNL     1      12.016   8.579 -20.531  1.00  0.00    -0.338 N 
HETATM    9  C9  UNL     1      12.781   8.658 -21.798  1.00  0.00     0.154 C 
HETATM   10  C10 UNL     1      12.758   8.456 -19.339  1.00  0.00     0.266 C 
HETATM   11  O2  UNL     1      13.642   9.382 -19.179  1.00  0.00    -0.266 OA
HETATM   12  C11 UNL     1      12.685   7.449 -18.259  1.00  0.00     0.082 C 
HETATM   13  N3  UNL     1      12.389   6.120 -18.705  1.00  0.00    -0.319 N 
HETATM   14  C16 UNL     1      13.446   5.547 -19.604  1.00  0.00     0.159 C 
HETATM   15  C17 UNL     1      11.318   5.264 -18.475  1.00  0.00     0.247 C 
HETATM   16  O3  UNL     1      10.946   4.565 -19.503  1.00  0.00    -0.271 OA
HETATM   17  C18 UNL     1      10.508   4.983 -17.281  1.00  0.00     0.180 C 
HETATM   18  N4  UNL     1       9.328   5.768 -17.100  1.00  0.00    -0.347 N 
ATOM     19  H4  UNL     1       9.407   6.455 -16.351  1.00  0.00     0.163 HD
HETATM   20  C23 UNL     1       8.100   5.783 -17.739  1.00  0.00     0.229 C 
HETATM   21  O4  UNL     1       7.056   5.632 -16.998  1.00  0.00    -0.273 OA
HETATM   22  C24 UNL     1       7.756   5.949 -19.170  1.00  0.00     0.149 C 
HETATM   23  C27 UNL     1       6.897   7.137 -19.401  1.00  0.00     0.162 C 
HETATM   24  O5  UNL     1       5.712   7.078 -19.210  1.00  0.00    -0.295 OA
ENDROOT
BRANCH   1  25
HETATM   25  C4  UNL     1       6.403   9.478 -20.032  1.00  0.00     0.033 C 
BRANCH  25  26
HETATM   26  C3  UNL     1       6.564  10.344 -21.235  1.00  0.00     0.002 C 
BRANCH  26  27
HETATM   27  C2  UNL     1       6.939  11.738 -20.733  1.00  0.00    -0.004 C 
HETATM   28  C1  UNL     1       7.404  12.554 -21.935  1.00  0.00     0.005 C 
ENDBRANCH  26  27
ENDBRANCH  25  26
ENDBRANCH   1  25
BRANCH  22  29
HETATM   29  C25 UNL     1       7.207   4.672 -19.744  1.00  0.00     0.017 C 
HETATM   30  C26 UNL     1       7.729   4.248 -21.055  1.00  0.00     0.006 C 
ENDBRANCH  22  29
BRANCH  17  31
HETATM   31  C19 UNL     1      10.166   3.465 -17.251  1.00  0.00     0.013 C 
HETATM   32  C20 UNL     1       9.317   3.174 -16.061  1.00  0.00     0.012 C 
BRANCH  31  33
HETATM   33  C21 UNL     1      11.513   2.763 -17.034  1.00  0.00     0.002 C 
HETATM   34  C22 UNL     1      12.088   3.063 -15.691  1.00  0.00     0.005 C 
ENDBRANCH  31  33
ENDBRANCH  17  31
BRANCH  12  35
HETATM   35  C12 UNL     1      12.090   7.901 -16.981  1.00  0.00     0.067 C 
BRANCH  35  36
HETATM   36  C13 UNL     1      13.120   7.891 -15.845  1.00  0.00    -0.017 C 
HETATM   37  C14 UNL     1      12.564   7.132 -14.679  1.00  0.00     0.010 C 
HETATM   38  C15 UNL     1      13.314   9.340 -15.371  1.00  0.00     0.010 C 
ENDBRANCH  35  36
ENDBRANCH  12  35
TORSDOF 8
ENDMDL
MODEL 2
REMARK VINA RESULT: -5.371409014      5.721      8.826
REMARK  8 active torsions:
REMARK  status: ('A' for Active; 'I' for Inactive)
REMARK    1  A    between atoms: C2_2  and  C3_3 
REMARK    2  A    between atoms: C3_3  and  C4_4 
REMARK    3  A    between atoms: C4_4  and  C5_5 
REMARK    4  A    between atoms: C11_16  and  C12_17 
REMARK    5  A    between atoms: C12_17  and  C13_18 
REMARK    6  A    between atoms: C18_25  and  C19_26 
REMARK    7  A    between atoms: C19_26  and  C21_28 
REMARK    8  A    between atoms: C24_34  and  C25_35 
ROOT
HETATM    1  C5  UNL     1       7.644  15.569 -21.551  1.00  0.00     0.155 C 
HETATM    2  N1  UNL     1       8.845  15.832 -22.272  1.00  0.00    -0.348 N 
ATOM      3  H1  UNL     1       9.717  15.700 -21.759  1.00  0.00     0.163 HD
HETATM    4  C6  UNL     1       8.971  16.253 -23.619  1.00  0.00     0.240 C 
HETATM    5  O1  UNL     1       9.812  17.170 -23.943  1.00  0.00    -0.271 OA
HETATM    6  C7  UNL     1       8.192  15.713 -24.731  1.00  0.00     0.175 C 
HETATM    7  C8  UNL     1       7.079  16.768 -24.920  1.00  0.00     0.042 C 
HETATM    8  N2  UNL     1       8.915  15.535 -25.974  1.00  0.00    -0.338 N 
HETATM    9  C9  UNL     1       8.096  15.744 -27.191  1.00  0.00     0.154 C 
HETATM   10  C10 UNL     1      10.272  15.199 -26.163  1.00  0.00     0.266 C 
HETATM   11  O2  UNL     1      10.917  16.037 -26.902  1.00  0.00    -0.266 OA
HETATM   12  C11 UNL     1      11.060  14.055 -25.656  1.00  0.00     0.082 C 
HETATM   13  N3  UNL     1      10.333  12.823 -25.571  1.00  0.00    -0.319 N 
HETATM   14  C16 UNL     1       9.863  12.319 -26.905  1.00  0.00     0.159 C 
HETATM   15  C17 UNL     1       9.975  12.012 -24.501  1.00  0.00     0.247 C 
HETATM   16  O3  UNL     1       8.791  11.489 -24.584  1.00  0.00    -0.271 OA
HETATM   17  C18 UNL     1      10.680  11.614 -23.274  1.00  0.00     0.180 C 
HETATM   18  N4  UNL     1      10.486  12.437 -22.123  1.00  0.00    -0.347 N 
ATOM     19  H4  UNL     1      11.300  13.005 -21.886  1.00  0.00     0.163 HD
HETATM   20  C23 UNL     1       9.415  12.618 -21.263  1.00  0.00     0.229 C 
HETATM   21  O4  UNL     1       9.638  12.428 -20.008  1.00  0.00    -0.273 OA
HETATM   22  C24 UNL     1       8.012  13.005 -21.535  1.00  0.00     0.149 C 
HETATM   23  C27 UNL     1       7.639  14.264 -20.844  1.00  0.00     0.162 C 
HETATM   24  O5  UNL     1       7.322  14.252 -19.685  1.00  0.00    -0.295 OA
ENDROOT
BRANCH   1  25
HETATM   25  C4  UNL     1       7.232  16.696 -20.647  1.00  0.00     0.033 C 
BRANCH  25  26
HETATM   26  C3  UNL     1       8.362  17.413 -19.990  1.00  0.00     0.002 C 
BRANCH  26  27
HETATM   27  C2  UNL     1       8.017  17.524 -18.505  1.00  0.00    -0.004 C 
HETATM   28  C1  UNL     1       8.803  16.446 -17.765  1.00  0.00     0.005 C 
ENDBRANCH  26  27
ENDBRANCH  25  26
ENDBRANCH   1  25
BRANCH  22  29
HETATM   29  C25 UNL     1       7.076  11.858 -21.272  1.00  0.00     0.017 C 
HETATM   30  C26 UNL     1       6.798  10.948 -22.397  1.00  0.00     0.006 C 
ENDBRANCH  22  29
BRANCH  17  31
HETATM   31  C19 UNL     1      10.335  10.131 -22.953  1.00  0.00     0.013 C 
HETATM   32  C20 UNL     1      10.914   9.765 -21.630  1.00  0.00     0.012 C 
BRANCH  31  33
HETATM   33  C21 UNL     1      11.078   9.315 -24.019  1.00  0.00     0.002 C 
HETATM   34  C22 UNL     1      12.551   9.534 -23.962  1.00  0.00     0.005 C 
ENDBRANCH  31  33
ENDBRANCH  17  31
BRANCH  12  35
HETATM   35  C12 UNL     1      12.041  14.358 -24.589  1.00  0.00     0.067 C 
BRANCH  35  36
HETATM   36  C13 UNL     1      13.396  13.694 -24.865  1.00  0.00    -0.017 C 
HETATM   37  C14 UNL     1      14.024  13.293 -23.565  1.00  0.00     0.010 C 
HETATM   38  C15 UNL     1      14.321  14.752 -25.489  1.00  0.00     0.010 C 
ENDBRANCH  35  36
ENDBRANCH  12  35
TORSDOF 8
ENDMDL
MODEL 3
REMARK VINA RESULT: -5.189853874      5.417      8.505
REMARK  8 active torsions:
REMARK  status: ('A' for Active; 'I' for Inactive)
REMARK    1  A    between atoms: C2_2  and  C3_3 
REMARK    2  A    between atoms: C3_3  and  C4_4 
REMARK    3  A    between atoms: C4_4  and  C5_5 
REMARK    4  A    between atoms: C11_16  and  C12_17 
REMARK    5  A    between atoms: C12_17  and  C13_18 
REMARK    6  A    between atoms: C18_25  and  C19_26 
REMARK    7  A    between atoms: C19_26  and  C21_28 
REMARK    8  A    between atoms: C24_34  and  C25_35 
ROOT
HETATM    1  C5  UNL     1       7.640  15.582 -22.074  1.00  0.00     0.155 C 
HETATM    2  N1  UNL     1       8.870  15.660 -22.791  1.00  0.00    -0.348 N 
ATOM      3  H1  UNL     1       9.720  15.647 -22.229  1.00  0.00     0.163 HD
HETATM    4  C6  UNL     1       9.048  15.751 -24.193  1.00  0.00     0.240 C 
HETATM    5  O1  UNL     1       9.914  16.560 -24.691  1.00  0.00    -0.271 OA
HETATM    6  C7  UNL     1       8.301  14.969 -25.176  1.00  0.00     0.175 C 
HETATM    7  C8  UNL     1       7.211  15.956 -25.650  1.00  0.00     0.042 C 
HETATM    8  N2  UNL     1       9.066  14.498 -26.313  1.00  0.00    -0.338 N 
HETATM    9  C9  UNL     1       8.292  14.420 -27.576  1.00  0.00     0.154 C 
HETATM   10  C10 UNL     1      10.423  14.118 -26.366  1.00  0.00     0.266 C 
HETATM   11  O2  UNL     1      11.106  14.754 -27.257  1.00  0.00    -0.266 OA
HETATM   12  C11 UNL     1      11.175  13.121 -25.575  1.00  0.00     0.082 C 
HETATM   13  N3  UNL     1      10.427  11.949 -25.230  1.00  0.00    -0.319 N 
HETATM   14  C16 UNL     1       9.996  11.147 -26.425  1.00  0.00     0.159 C 
HETATM   15  C17 UNL     1      10.019  11.414 -24.014  1.00  0.00     0.247 C 
HETATM   16  O3  UNL     1       8.831  10.895 -24.016  1.00  0.00    -0.271 OA
HETATM   17  C18 UNL     1      10.674  11.313 -22.701  1.00  0.00     0.180 C 
HETATM   18  N4  UNL     1      10.452  12.386 -21.784  1.00  0.00    -0.347 N 
ATOM     19  H4  UNL     1      11.265  12.988 -21.658  1.00  0.00     0.163 HD
HETATM   20  C23 UNL     1       9.355  12.771 -21.033  1.00  0.00     0.229 C 
HETATM   21  O4  UNL     1       9.529  12.880 -19.761  1.00  0.00    -0.273 OA
HETATM   22  C24 UNL     1       7.968  13.092 -21.441  1.00  0.00     0.149 C 
HETATM   23  C27 UNL     1       7.590  14.481 -21.081  1.00  0.00     0.162 C 
HETATM   24  O5  UNL     1       7.232  14.744 -19.963  1.00  0.00    -0.295 OA
ENDROOT
BRANCH   1  25
HETATM   25  C4  UNL     1       7.212  16.893 -21.477  1.00  0.00     0.033 C 
BRANCH  25  26
HETATM   26  C3  UNL     1       6.670  17.876 -22.459  1.00  0.00     0.002 C 
BRANCH  26  27
HETATM   27  C2  UNL     1       7.712  18.985 -22.603  1.00  0.00    -0.004 C 
HETATM   28  C1  UNL     1       7.795  19.354 -24.080  1.00  0.00     0.005 C 
ENDBRANCH  26  27
ENDBRANCH  25  26
ENDBRANCH   1  25
BRANCH  22  29
HETATM   29  C25 UNL     1       7.006  12.045 -20.951  1.00  0.00     0.017 C 
HETATM   30  C26 UNL     1       6.711  10.926 -21.863  1.00  0.00     0.006 C 
ENDBRANCH  22  29
BRANCH  17  31
HETATM   31  C19 UNL     1      10.295   9.950 -22.054  1.00  0.00     0.013 C 
HETATM   32  C20 UNL     1      10.893   9.868 -20.691  1.00  0.00     0.012 C 
BRANCH  31  33
HETATM   33  C21 UNL     1      10.992   8.894 -22.923  1.00  0.00     0.002 C 
HETATM   34  C22 UNL     1      12.471   8.909 -22.738  1.00  0.00     0.005 C 
ENDBRANCH  31  33
ENDBRANCH  17  31
BRANCH  12  35
HETATM   35  C12 UNL     1      12.122  13.660 -24.572  1.00  0.00     0.067 C 
BRANCH  35  36
HETATM   36  C13 UNL     1      13.559  13.207 -24.855  1.00  0.00    -0.017 C 
HETATM   37  C14 UNL     1      13.975  12.206 -23.820  1.00  0.00     0.010 C 
HETATM   38  C15 UNL     1      14.481  14.425 -24.679  1.00  0.00     0.010 C 
ENDBRANCH  35  36
ENDBRANCH  12  35
TORSDOF 8
ENDMDL
MODEL 4
REMARK VINA RESULT: -5.092919995      2.118      7.449
REMARK  8 active torsions:
REMARK  status: ('A' for Active; 'I' for Inactive)
REMARK    1  A    between atoms: C2_2  and  C3_3 
REMARK    2  A    between atoms: C3_3  and  C4_4 
REMARK    3  A    between atoms: C4_4  and  C5_5 
REMARK    4  A    between atoms: C11_16  and  C12_17 
REMARK    5  A    between atoms: C12_17  and  C13_18 
REMARK    6  A    between atoms: C18_25  and  C19_26 
REMARK    7  A    between atoms: C19_26  and  C21_28 
REMARK    8  A    between atoms: C24_34  and  C25_35 
ROOT
HETATM    1  C5  UNL     1      10.881   7.953 -18.202  1.00  0.00     0.155 C 
HETATM    2  N1  UNL     1       9.566   7.424 -18.043  1.00  0.00    -0.348 N 
ATOM      3  H1  UNL     1       8.866   8.062 -17.668  1.00  0.00     0.163 HD
HETATM    4  C6  UNL     1       9.120   6.115 -18.347  1.00  0.00     0.240 C 
HETATM    5  O1  UNL     1       8.340   5.485 -17.541  1.00  0.00    -0.271 OA
HETATM    6  C7  UNL     1       9.480   5.376 -19.556  1.00  0.00     0.175 C 
HETATM    7  C8  UNL     1      10.616   4.448 -19.070  1.00  0.00     0.042 C 
HETATM    8  N2  UNL     1       8.419   4.586 -20.147  1.00  0.00    -0.338 N 
HETATM    9  C9  UNL     1       8.882   3.339 -20.802  1.00  0.00     0.154 C 
HETATM   10  C10 UNL     1       7.034   4.848 -20.171  1.00  0.00     0.266 C 
HETATM   11  O2  UNL     1       6.315   3.891 -19.691  1.00  0.00    -0.266 OA
HETATM   12  C11 UNL     1       6.286   6.029 -20.653  1.00  0.00     0.082 C 
HETATM   13  N3  UNL     1       6.851   6.659 -21.810  1.00  0.00    -0.319 N 
HETATM   14  C16 UNL     1       6.860   5.773 -23.022  1.00  0.00     0.159 C 
HETATM   15  C17 UNL     1       7.393   7.920 -22.027  1.00  0.00     0.247 C 
HETATM   16  O3  UNL     1       8.433   7.941 -22.803  1.00  0.00    -0.271 OA
HETATM   17  C18 UNL     1       7.020   9.260 -21.551  1.00  0.00     0.180 C 
HETATM   18  N4  UNL     1       7.630   9.708 -20.339  1.00  0.00    -0.347 N 
ATOM     19  H4  UNL     1       6.993   9.723 -19.543  1.00  0.00     0.163 HD
HETATM   20  C23 UNL     1       8.914  10.126 -20.030  1.00  0.00     0.229 C 
HETATM   21  O4  UNL     1       9.033  11.291 -19.493  1.00  0.00    -0.273 OA
HETATM   22  C24 UNL     1      10.220   9.451 -20.209  1.00  0.00     0.149 C 
HETATM   23  C27 UNL     1      10.924   9.252 -18.918  1.00  0.00     0.162 C 
HETATM   24  O5  UNL     1      11.552  10.149 -18.422  1.00  0.00    -0.295 OA
ENDROOT
BRANCH   1  25
HETATM   25  C4  UNL     1      11.667   7.993 -16.922  1.00  0.00     0.033 C 
BRANCH  25  26
HETATM   26  C3  UNL     1      12.879   7.125 -16.908  1.00  0.00     0.002 C 
BRANCH  26  27
HETATM   27  C2  UNL     1      13.971   7.894 -16.166  1.00  0.00    -0.004 C 
HETATM   28  C1  UNL     1      13.332   9.141 -15.563  1.00  0.00     0.005 C 
ENDBRANCH  26  27
ENDBRANCH  25  26
ENDBRANCH   1  25
BRANCH  22  29
HETATM   29  C25 UNL     1      11.044  10.143 -21.260  1.00  0.00     0.017 C 
HETATM   30  C26 UNL     1      12.157   9.379 -21.849  1.00  0.00     0.006 C 
ENDBRANCH  22  29
BRANCH  17  31
HETATM   31  C19 UNL     1       7.257  10.285 -22.697  1.00  0.00     0.013 C 
HETATM   32  C20 UNL     1       6.986  11.661 -22.191  1.00  0.00     0.012 C 
BRANCH  31  33
HETATM   33  C21 UNL     1       6.180   9.963 -23.742  1.00  0.00     0.002 C 
HETATM   34  C22 UNL     1       6.226  10.904 -24.897  1.00  0.00     0.005 C 
ENDBRANCH  31  33
ENDBRANCH  17  31
BRANCH  12  35
HETATM   35  C12 UNL     1       5.691   6.898 -19.611  1.00  0.00     0.067 C 
BRANCH  35  36
HETATM   36  C13 UNL     1       4.254   7.298 -19.965  1.00  0.00    -0.017 C 
HETATM   37  C14 UNL     1       3.980   8.673 -19.438  1.00  0.00     0.010 C 
HETATM   38  C15 UNL     1       3.302   6.347 -19.222  1.00  0.00     0.010 C 
ENDBRANCH  35  36
ENDBRANCH  12  35
TORSDOF 8
ENDMDL
MODEL 5
REMARK VINA RESULT: -5.002491795      6.863     12.260
REMARK  8 active torsions:
REMARK  status: ('A' for Active; 'I' for Inactive)
REMARK    1  A    between atoms: C2_2  and  C3_3 
REMARK    2  A    between atoms: C3_3  and  C4_4 
REMARK    3  A    between atoms: C4_4  and  C5_5 
REMARK    4  A    between atoms: C11_16  and  C12_17 
REMARK    5  A    between atoms: C12_17  and  C13_18 
REMARK    6  A    between atoms: C18_25  and  C19_26 
REMARK    7  A    between atoms: C19_26  and  C21_28 
REMARK    8  A    between atoms: C24_34  and  C25_35 
ROOT
HETATM    1  C5  UNL     1       8.278  14.072 -21.476  1.00  0.00     0.155 C 
HETATM    2  N1  UNL     1       8.037  13.925 -22.873  1.00  0.00    -0.348 N 
ATOM      3  H1  UNL     1       7.066  14.010 -23.174  1.00  0.00     0.163 HD
HETATM    4  C6  UNL     1       8.987  13.673 -23.893  1.00  0.00     0.240 C 
HETATM    5  O1  UNL     1       8.740  12.820 -24.823  1.00  0.00    -0.271 OA
HETATM    6  C7  UNL     1      10.290  14.329 -23.991  1.00  0.00     0.175 C 
HETATM    7  C8  UNL     1      11.252  13.283 -23.385  1.00  0.00     0.042 C 
HETATM    8  N2  UNL     1      10.719  14.672 -25.332  1.00  0.00    -0.338 N 
HETATM    9  C9  UNL     1      12.185  14.595 -25.539  1.00  0.00     0.154 C 
HETATM   10  C10 UNL     1       9.932  15.056 -26.437  1.00  0.00     0.266 C 
HETATM   11  O2  UNL     1      10.118  14.328 -27.485  1.00  0.00    -0.266 OA
HETATM   12  C11 UNL     1       8.943  16.145 -26.583  1.00  0.00     0.082 C 
HETATM   13  N3  UNL     1       9.267  17.342 -25.865  1.00  0.00    -0.319 N 
HETATM   14  C16 UNL     1      10.532  17.996 -26.342  1.00  0.00     0.159 C 
HETATM   15  C17 UNL     1       8.647  18.010 -24.816  1.00  0.00     0.247 C 
HETATM   16  O3  UNL     1       9.455  18.515 -23.935  1.00  0.00    -0.271 OA
HETATM   17  C18 UNL     1       7.235  18.269 -24.497  1.00  0.00     0.180 C 
HETATM   18  N4  UNL     1       6.572  17.308 -23.674  1.00  0.00    -0.347 N 
ATOM     19  H4  UNL     1       5.900  16.732 -24.181  1.00  0.00     0.163 HD
HETATM   20  C23 UNL     1       6.659  17.003 -22.326  1.00  0.00     0.229 C 
HETATM   21  O4  UNL     1       5.563  17.043 -21.649  1.00  0.00    -0.273 OA
HETATM   22  C24 UNL     1       7.823  16.623 -21.494  1.00  0.00     0.149 C 
HETATM   23  C27 UNL     1       7.655  15.281 -20.882  1.00  0.00     0.162 C 
HETATM   24  O5  UNL     1       7.003  15.146 -19.881  1.00  0.00    -0.295 OA
ENDROOT
BRANCH   1  25
HETATM   25  C4  UNL     1       7.968  12.835 -20.682  1.00  0.00     0.033 C 
BRANCH  25  26
HETATM   26  C3  UNL     1       6.986  11.914 -21.323  1.00  0.00     0.002 C 
BRANCH  26  27
HETATM   27  C2  UNL     1       7.249  10.519 -20.758  1.00  0.00    -0.004 C 
HETATM   28  C1  UNL     1       6.152  10.215 -19.742  1.00  0.00     0.005 C 
ENDBRANCH  26  27
ENDBRANCH  25  26
ENDBRANCH   1  25
BRANCH  22  29
HETATM   29  C25 UNL     1       8.160  17.710 -20.511  1.00  0.00     0.017 C 
HETATM   30  C26 UNL     1       8.561  17.288 -19.157  1.00  0.00     0.006 C 
ENDBRANCH  22  29
BRANCH  17  31
HETATM   31  C19 UNL     1       7.111  19.695 -23.885  1.00  0.00     0.013 C 
HETATM   32  C20 UNL     1       5.680  19.978 -23.582  1.00  0.00     0.012 C 
BRANCH  31  33
HETATM   33  C21 UNL     1       7.536  20.645 -25.013  1.00  0.00     0.002 C 
HETATM   34  C22 UNL     1       7.181  22.061 -24.711  1.00  0.00     0.005 C 
ENDBRANCH  31  33
ENDBRANCH  17  31
BRANCH  12  35
HETATM   35  C12 UNL     1       7.522  15.735 -26.642  1.00  0.00     0.067 C 
BRANCH  35  36
HETATM   36  C13 UNL     1       6.764  16.489 -27.742  1.00  0.00    -0.017 C 
HETATM   37  C14 UNL     1       5.341  16.684 -27.318  1.00  0.00     0.010 C 
HETATM   38  C15 UNL     1       6.728  15.592 -28.990  1.00  0.00     0.010 C 
ENDBRANCH  35  36
ENDBRANCH  12  35
TORSDOF 8
ENDMDL
