MODEL 1
REMARK VINA RESULT: -9.038422620      0.000      0.000
REMARK  8 active torsions:
REMARK  status: ('A' for Active; 'I' for Inactive)
REMARK    1  A    between atoms: C2_2  and  C3_3 
REMARK    2  A    between atoms: C3_3  and  C4_4 
REMARK    3  A    between atoms: C4_4  and  C5_5 
REMARK    4  A    between atoms: C7_7  and  C8_8 
REMARK    5  A    between atoms: C10_12  and  O3_13 
REMARK    6  A    between atoms: C10_12  and  C11_15 
REMARK    7  A    between atoms: C16_20  and  O4_21 
REMARK    8  A    between atoms: C17_23  and  O5_24 
ROOT
HETATM    1  C8  UNL     1      21.909   4.361 -18.989  1.00  0.00     0.233 C 
HETATM    2  O1  UNL     1      22.976   5.106 -18.349  1.00  0.00    -0.227 OA
HETATM    3  O2  UNL     1      24.013   5.000 -19.170  1.00  0.00    -0.237 OA
HETATM    4  C9  UNL     1      23.490   5.324 -20.417  1.00  0.00     0.251 C 
HETATM    5  C10 UNL     1      22.211   4.533 -20.410  1.00  0.00     0.121 C 
ENDROOT
BRANCH   1   6
HETATM    6  C7  UNL     1      21.847   3.065 -18.342  1.00  0.00     0.010 A 
HETATM    7  C6  UNL     1      22.429   1.918 -18.811  1.00  0.00     0.020 A 
HETATM    8  C5  UNL     1      22.506   0.744 -18.066  1.00  0.00    -0.051 A 
HETATM    9  C19 UNL     1      21.964   0.735 -16.785  1.00  0.00    -0.053 A 
HETATM   10  C18 UNL     1      21.380   1.864 -16.290  1.00  0.00     0.044 A 
HETATM   11  C20 UNL     1      22.052  -0.504 -15.934  1.00  0.00     0.049 C 
HETATM   12  C17 UNL     1      21.315   3.025 -17.048  1.00  0.00     0.075 A 
BRANCH   8  13
HETATM   13  C4  UNL     1      23.180  -0.496 -18.486  1.00  0.00     0.039 C 
BRANCH  13  14
HETATM   14  C3  UNL     1      23.577  -0.699 -19.879  1.00  0.00     0.004 C 
BRANCH  14  15
HETATM   15  C2  UNL     1      24.162  -2.082 -20.110  1.00  0.00    -0.004 C 
HETATM   16  C1  UNL     1      23.178  -3.200 -19.757  1.00  0.00     0.005 C 
ENDBRANCH  14  15
ENDBRANCH  13  14
ENDBRANCH   8  13
BRANCH  12  17
HETATM   17  O5  UNL     1      20.701   4.149 -16.488  1.00  0.00    -0.360 OA
ATOM     18  H5  UNL     1      20.061   4.060 -15.792  1.00  0.00     0.217 HD
ENDBRANCH  12  17
ENDBRANCH   1   6
BRANCH   5  19
HETATM   19  O3  UNL     1      21.254   5.489 -20.966  1.00  0.00    -0.384 OA
ATOM     20  H3  UNL     1      21.511   6.361 -20.688  1.00  0.00     0.210 HD
ENDBRANCH   5  19
BRANCH   5  21
HETATM   21  C11 UNL     1      22.183   3.406 -21.356  1.00  0.00     0.054 C 
HETATM   22  C12 UNL     1      23.437   2.840 -21.887  1.00  0.00     0.010 C 
HETATM   23  C13 UNL     1      23.619   3.072 -23.382  1.00  0.00     0.001 C 
HETATM   24  C14 UNL     1      22.391   2.912 -24.202  1.00  0.00     0.002 C 
HETATM   25  C15 UNL     1      21.192   2.484 -23.420  1.00  0.00     0.032 C 
HETATM   26  C16 UNL     1      21.035   3.545 -22.319  1.00  0.00     0.125 C 
BRANCH  26  27
HETATM   27  O4  UNL     1      19.799   3.337 -21.703  1.00  0.00    -0.395 OA
ATOM     28  H4  UNL     1      19.073   3.631 -22.241  1.00  0.00     0.210 HD
ENDBRANCH  26  27
ENDBRANCH   5  21
TORSDOF 8
ENDMDL
MODEL 2
REMARK VINA RESULT: -8.478630453      1.999      3.234
REMARK  8 active torsions:
REMARK  status: ('A' for Active; 'I' for Inactive)
REMARK    1  A    between atoms: C2_2  and  C3_3 
REMARK    2  A    between atoms: C3_3  and  C4_4 
REMARK    3  A    between atoms: C4_4  and  C5_5 
REMARK    4  A    between atoms: C7_7  and  C8_8 
REMARK    5  A    between atoms: C10_12  and  O3_13 
REMARK    6  A    between atoms: C10_12  and  C11_15 
REMARK    7  A    between atoms: C16_20  and  O4_21 
REMARK    8  A    between atoms: C17_23  and  O5_24 
ROOT
HETATM    1  C8  UNL     1      22.733   3.585 -22.139  1.00  0.00     0.233 C 
HETATM    2  O1  UNL     1      23.665   2.827 -22.952  1.00  0.00    -0.227 OA
HETATM    3  O2  UNL     1      22.911   2.195 -23.842  1.00  0.00    -0.237 OA
HETATM    4  C9  UNL     1      22.082   3.189 -24.349  1.00  0.00     0.251 C 
HETATM    5  C10 UNL     1      21.660   3.887 -23.086  1.00  0.00     0.121 C 
ENDROOT
BRANCH   1   6
HETATM    6  C7  UNL     1      22.525   2.835 -20.916  1.00  0.00     0.010 A 
HETATM    7  C6  UNL     1      22.879   1.527 -20.721  1.00  0.00     0.020 A 
HETATM    8  C5  UNL     1      22.835   0.905 -19.476  1.00  0.00    -0.051 A 
HETATM    9  C19 UNL     1      22.409   1.646 -18.378  1.00  0.00    -0.053 A 
HETATM   10  C18 UNL     1      22.053   2.952 -18.542  1.00  0.00     0.044 A 
HETATM   11  C20 UNL     1      22.375   1.021 -17.009  1.00  0.00     0.049 C 
HETATM   12  C17 UNL     1      22.104   3.555 -19.792  1.00  0.00     0.075 A 
BRANCH   8  13
HETATM   13  C4  UNL     1      23.270  -0.472 -19.189  1.00  0.00     0.039 C 
BRANCH  13  14
HETATM   14  C3  UNL     1      24.016  -1.246 -20.182  1.00  0.00     0.004 C 
BRANCH  14  15
HETATM   15  C2  UNL     1      23.558  -2.693 -20.241  1.00  0.00    -0.004 C 
HETATM   16  C1  UNL     1      24.730  -3.676 -20.283  1.00  0.00     0.005 C 
ENDBRANCH  14  15
ENDBRANCH  13  14
ENDBRANCH   8  13
BRANCH  12  17
HETATM   17  O5  UNL     1      21.722   4.895 -19.898  1.00  0.00    -0.360 OA
ATOM     18  H5  UNL     1      20.945   5.145 -20.383  1.00  0.00     0.217 HD
ENDBRANCH  12  17
ENDBRANCH   1   6
BRANCH   5  19
HETATM   19  O3  UNL     1      21.767   5.296 -23.462  1.00  0.00    -0.384 OA
ATOM     20  H3  UNL     1      21.406   5.399 -24.334  1.00  0.00     0.210 HD
ENDBRANCH   5  19
BRANCH   5  21
HETATM   21  C11 UNL     1      20.240   3.716 -22.738  1.00  0.00     0.054 C 
HETATM   22  C12 UNL     1      19.489   2.536 -23.207  1.00  0.00     0.010 C 
HETATM   23  C13 UNL     1      18.394   2.878 -24.210  1.00  0.00     0.001 C 
HETATM   24  C14 UNL     1      17.620   4.110 -23.908  1.00  0.00     0.002 C 
HETATM   25  C15 UNL     1      18.012   4.773 -22.627  1.00  0.00     0.032 C 
HETATM   26  C16 UNL     1      19.521   5.037 -22.761  1.00  0.00     0.125 C 
BRANCH  26  27
HETATM   27  O4  UNL     1      19.901   5.865 -21.703  1.00  0.00    -0.395 OA
ATOM     28  H4  UNL     1      20.576   5.472 -21.161  1.00  0.00     0.210 HD
ENDBRANCH  26  27
ENDBRANCH   5  21
TORSDOF 8
ENDMDL
MODEL 3
REMARK VINA RESULT: -8.006302716      2.355      4.126
REMARK  8 active torsions:
REMARK  status: ('A' for Active; 'I' for Inactive)
REMARK    1  A    between atoms: C2_2  and  C3_3 
REMARK    2  A    between atoms: C3_3  and  C4_4 
REMARK    3  A    between atoms: C4_4  and  C5_5 
REMARK    4  A    between atoms: C7_7  and  C8_8 
REMARK    5  A    between atoms: C10_12  and  O3_13 
REMARK    6  A    between atoms: C10_12  and  C11_15 
REMARK    7  A    between atoms: C16_20  and  O4_21 
REMARK    8  A    between atoms: C17_23  and  O5_24 
ROOT
HETATM    1  C8  UNL     1      22.096   4.373 -22.146  1.00  0.00     0.233 C 
HETATM    2  O1  UNL     1      23.124   3.361 -22.299  1.00  0.00    -0.227 OA
HETATM    3  O2  UNL     1      22.494   2.301 -22.789  1.00  0.00    -0.237 OA
HETATM    4  C9  UNL     1      21.753   2.809 -23.849  1.00  0.00     0.251 C 
HETATM    5  C10 UNL     1      21.168   4.047 -23.227  1.00  0.00     0.121 C 
ENDROOT
BRANCH   1   6
HETATM    6  C7  UNL     1      21.714   4.386 -20.748  1.00  0.00     0.010 A 
HETATM    7  C6  UNL     1      21.844   3.333 -19.883  1.00  0.00     0.020 A 
HETATM    8  C5  UNL     1      21.644   3.447 -18.509  1.00  0.00    -0.051 A 
HETATM    9  C19 UNL     1      21.292   4.690 -17.992  1.00  0.00    -0.053 A 
HETATM   10  C18 UNL     1      21.158   5.758 -18.829  1.00  0.00     0.044 A 
HETATM   11  C20 UNL     1      21.095   4.864 -16.509  1.00  0.00     0.049 C 
HETATM   12  C17 UNL     1      21.363   5.624 -20.196  1.00  0.00     0.075 A 
BRANCH   8  13
HETATM   13  C4  UNL     1      21.839   2.373 -17.522  1.00  0.00     0.039 C 
BRANCH  13  14
HETATM   14  C3  UNL     1      22.598   1.170 -17.862  1.00  0.00     0.004 C 
BRANCH  14  15
HETATM   15  C2  UNL     1      22.391   0.058 -16.848  1.00  0.00    -0.004 C 
HETATM   16  C1  UNL     1      21.625   0.530 -15.610  1.00  0.00     0.005 C 
ENDBRANCH  14  15
ENDBRANCH  13  14
ENDBRANCH   8  13
BRANCH  12  17
HETATM   17  O5  UNL     1      21.207   6.753 -21.004  1.00  0.00    -0.360 OA
ATOM     18  H5  UNL     1      20.931   6.672 -21.909  1.00  0.00     0.217 HD
ENDBRANCH  12  17
ENDBRANCH   1   6
BRANCH   5  19
HETATM   19  O3  UNL     1      21.339   5.036 -24.290  1.00  0.00    -0.384 OA
ATOM     20  H3  UNL     1      21.828   5.770 -23.936  1.00  0.00     0.210 HD
ENDBRANCH   5  19
BRANCH   5  21
HETATM   21  C11 UNL     1      19.711   3.995 -23.017  1.00  0.00     0.054 C 
HETATM   22  C12 UNL     1      18.998   2.704 -23.018  1.00  0.00     0.010 C 
HETATM   23  C13 UNL     1      18.045   2.541 -24.195  1.00  0.00     0.001 C 
HETATM   24  C14 UNL     1      17.269   3.756 -24.555  1.00  0.00     0.002 C 
HETATM   25  C15 UNL     1      17.512   4.920 -23.651  1.00  0.00     0.032 C 
HETATM   26  C16 UNL     1      19.032   5.151 -23.699  1.00  0.00     0.125 C 
BRANCH  26  27
HETATM   27  O4  UNL     1      19.296   6.368 -23.067  1.00  0.00    -0.395 OA
ATOM     28  H4  UNL     1      19.950   6.285 -22.383  1.00  0.00     0.210 HD
ENDBRANCH  26  27
ENDBRANCH   5  21
TORSDOF 8
ENDMDL
MODEL 4
REMARK VINA RESULT: -7.955772076      1.046      1.605
REMARK  8 active torsions:
REMARK  status: ('A' for Active; 'I' for Inactive)
REMARK    1  A    between atoms: C2_2  and  C3_3 
REMARK    2  A    between atoms: C3_3  and  C4_4 
REMARK    3  A    between atoms: C4_4  and  C5_5 
REMARK    4  A    between atoms: C7_7  and  C8_8 
REMARK    5  A    between atoms: C10_12  and  O3_13 
REMARK    6  A    between atoms: C10_12  and  C11_15 
REMARK    7  A    between atoms: C16_20  and  O4_21 
REMARK    8  A    between atoms: C17_23  and  O5_24 
ROOT
HETATM    1  C8  UNL     1      22.003   5.111 -18.837  1.00  0.00     0.233 C 
HETATM    2  O1  UNL     1      23.303   5.550 -18.366  1.00  0.00    -0.227 OA
HETATM    3  O2  UNL     1      24.181   4.893 -19.113  1.00  0.00    -0.237 OA
HETATM    4  C9  UNL     1      23.729   5.087 -20.414  1.00  0.00     0.251 C 
HETATM    5  C10 UNL     1      22.256   4.833 -20.250  1.00  0.00     0.121 C 
ENDROOT
BRANCH   1   6
HETATM    6  C7  UNL     1      21.527   4.111 -17.903  1.00  0.00     0.010 A 
HETATM    7  C6  UNL     1      21.933   2.804 -17.869  1.00  0.00     0.020 A 
HETATM    8  C5  UNL     1      21.594   1.928 -16.840  1.00  0.00    -0.051 A 
HETATM    9  C19 UNL     1      20.804   2.403 -15.799  1.00  0.00    -0.053 A 
HETATM   10  C18 UNL     1      20.387   3.701 -15.804  1.00  0.00     0.044 A 
HETATM   11  C20 UNL     1      20.440   1.498 -14.651  1.00  0.00     0.049 C 
HETATM   12  C17 UNL     1      20.736   4.559 -16.838  1.00  0.00     0.075 A 
BRANCH   8  13
HETATM   13  C4  UNL     1      22.058   0.537 -16.711  1.00  0.00     0.039 C 
BRANCH  13  14
HETATM   14  C3  UNL     1      23.216   0.058 -17.466  1.00  0.00     0.004 C 
BRANCH  14  15
HETATM   15  C2  UNL     1      22.814  -0.859 -18.608  1.00  0.00    -0.004 C 
HETATM   16  C1  UNL     1      23.790  -0.789 -19.785  1.00  0.00     0.005 C 
ENDBRANCH  14  15
ENDBRANCH  13  14
ENDBRANCH   8  13
BRANCH  12  17
HETATM   17  O5  UNL     1      20.275   5.877 -16.791  1.00  0.00    -0.360 OA
ATOM     18  H5  UNL     1      20.032   6.281 -15.966  1.00  0.00     0.217 HD
ENDBRANCH  12  17
ENDBRANCH   1   6
BRANCH   5  19
HETATM   19  O3  UNL     1      21.668   5.913 -21.040  1.00  0.00    -0.384 OA
ATOM     20  H3  UNL     1      20.751   5.710 -21.186  1.00  0.00     0.210 HD
ENDBRANCH   5  19
BRANCH   5  21
HETATM   21  C11 UNL     1      21.771   3.606 -20.903  1.00  0.00     0.054 C 
HETATM   22  C12 UNL     1      22.606   2.391 -20.932  1.00  0.00     0.010 C 
HETATM   23  C13 UNL     1      23.075   2.014 -22.332  1.00  0.00     0.001 C 
HETATM   24  C14 UNL     1      22.061   2.178 -23.406  1.00  0.00     0.002 C 
HETATM   25  C15 UNL     1      20.724   2.628 -22.913  1.00  0.00     0.032 C 
HETATM   26  C16 UNL     1      20.999   3.935 -22.152  1.00  0.00     0.125 C 
BRANCH  26  27
HETATM   27  O4  UNL     1      19.767   4.529 -21.872  1.00  0.00    -0.395 OA
ATOM     28  H4  UNL     1      19.739   4.908 -21.001  1.00  0.00     0.210 HD
ENDBRANCH  26  27
ENDBRANCH   5  21
TORSDOF 8
ENDMDL
MODEL 5
REMARK VINA RESULT: -7.860079392      6.667     10.951
REMARK  8 active torsions:
REMARK  status: ('A' for Active; 'I' for Inactive)
REMARK    1  A    between atoms: C2_2  and  C3_3 
REMARK    2  A    between atoms: C3_3  and  C4_4 
REMARK    3  A    between atoms: C4_4  and  C5_5 
REMARK    4  A    between atoms: C7_7  and  C8_8 
REMARK    5  A    between atoms: C10_12  and  O3_13 
REMARK    6  A    between atoms: C10_12  and  C11_15 
REMARK    7  A    between atoms: C16_20  and  O4_21 
REMARK    8  A    between atoms: C17_23  and  O5_24 
ROOT
HETATM    1  C8  UNL     1      21.147  -3.272 -10.726  1.00  0.00     0.233 C 
HETATM    2  O1  UNL     1      20.579  -4.205 -11.680  1.00  0.00    -0.227 OA
HETATM    3  O2  UNL     1      21.622  -4.759 -12.284  1.00  0.00    -0.237 OA
HETATM    4  C9  UNL     1      22.454  -5.141 -11.238  1.00  0.00     0.251 C 
HETATM    5  C10 UNL     1      22.412  -3.913 -10.371  1.00  0.00     0.121 C 
ENDROOT
BRANCH   1   6
HETATM    6  C7  UNL     1      21.065  -1.952 -11.320  1.00  0.00     0.010 A 
HETATM    7  C6  UNL     1      21.099  -1.685 -12.662  1.00  0.00     0.020 A 
HETATM    8  C5  UNL     1      20.827  -0.428 -13.196  1.00  0.00    -0.051 A 
HETATM    9  C19 UNL     1      20.507   0.607 -12.323  1.00  0.00    -0.053 A 
HETATM   10  C18 UNL     1      20.463   0.371 -10.981  1.00  0.00     0.044 A 
HETATM   11  C20 UNL     1      20.177   1.975 -12.859  1.00  0.00     0.049 C 
HETATM   12  C17 UNL     1      20.736  -0.890 -10.469  1.00  0.00     0.075 A 
BRANCH   8  13
HETATM   13  C4  UNL     1      20.776  -0.097 -14.629  1.00  0.00     0.039 C 
BRANCH  13  14
HETATM   14  C3  UNL     1      21.957  -0.256 -15.478  1.00  0.00     0.004 C 
BRANCH  14  15
HETATM   15  C2  UNL     1      22.011   0.785 -16.583  1.00  0.00    -0.004 C 
HETATM   16  C1  UNL     1      22.685   0.256 -17.852  1.00  0.00     0.005 C 
ENDBRANCH  14  15
ENDBRANCH  13  14
ENDBRANCH   8  13
BRANCH  12  17
HETATM   17  O5  UNL     1      20.680  -1.071  -9.084  1.00  0.00    -0.360 OA
ATOM     18  H5  UNL     1      21.054  -0.429  -8.492  1.00  0.00     0.217 HD
ENDBRANCH  12  17
ENDBRANCH   1   6
BRANCH   5  19
HETATM   19  O3  UNL     1      22.272  -4.485  -9.033  1.00  0.00    -0.384 OA
ATOM     20  H3  UNL     1      23.053  -4.271  -8.535  1.00  0.00     0.210 HD
ENDBRANCH   5  19
BRANCH   5  21
HETATM   21  C11 UNL     1      23.677  -3.164 -10.310  1.00  0.00     0.054 C 
HETATM   22  C12 UNL     1      24.731  -3.387 -11.318  1.00  0.00     0.010 C 
HETATM   23  C13 UNL     1      25.989  -4.026 -10.745  1.00  0.00     0.001 C 
HETATM   24  C14 UNL     1      26.408  -3.517  -9.413  1.00  0.00     0.002 C 
HETATM   25  C15 UNL     1      25.551  -2.411  -8.890  1.00  0.00     0.032 C 
HETATM   26  C16 UNL     1      24.123  -2.982  -8.885  1.00  0.00     0.125 C 
BRANCH  26  27
HETATM   27  O4  UNL     1      23.311  -2.086  -8.186  1.00  0.00    -0.395 OA
ATOM     28  H4  UNL     1      23.527  -1.181  -8.375  1.00  0.00     0.210 HD
ENDBRANCH  26  27
ENDBRANCH   5  21
TORSDOF 8
ENDMDL
