MODEL 1
REMARK VINA RESULT: -6.352086612      0.000      0.000
REMARK  12 active torsions:
REMARK  status: ('A' for Active; 'I' for Inactive)
REMARK    1  A    between atoms: N1_2  and  S1_4 
REMARK    2  A    between atoms: S1_4  and  N2_7 
REMARK    3  A    between atoms: N2_7  and  C2_9 
REMARK    4  A    between atoms: C2_9  and  C3_10 
REMARK    5  A    between atoms: C5_13  and  N3_14 
REMARK    6  A    between atoms: N3_14  and  N4_16 
REMARK    7  A    between atoms: C6_21  and  S3_22 
REMARK    8  A    between atoms: S3_22  and  C7_23 
REMARK    9  A    between atoms: C10_27  and  O4_28 
REMARK   10  A    between atoms: C11_30  and  O5_31 
REMARK   11  A    between atoms: C12_33  and  O6_34 
REMARK   12  A    between atoms: C13_36  and  O7_37 
ROOT
HETATM    1  C3  UNL     1      29.471  18.258  24.708  1.00  0.00     0.095 C 
HETATM    2  S2  UNL     1      28.254  18.897  23.510  1.00  0.00    -0.158 SA
HETATM    3  C4  UNL     1      28.293  17.729  22.118  1.00  0.00     0.102 C 
HETATM    4  C5  UNL     1      27.882  16.386  22.662  1.00  0.00     0.126 C 
HETATM    5  C6  UNL     1      28.181  16.189  24.108  1.00  0.00     0.104 C 
HETATM    6  C13 UNL     1      29.509  16.765  24.539  1.00  0.00     0.149 C 
ENDROOT
BRANCH   5   7
HETATM    7  S3  UNL     1      28.130  14.435  24.563  1.00  0.00    -0.125 SA
BRANCH   7   8
HETATM    8  C7  UNL     1      28.977  13.385  23.392  1.00  0.00     0.215 C 
HETATM    9  O3  UNL     1      29.684  14.149  22.481  1.00  0.00    -0.365 OA
HETATM   10  C8  UNL     1      30.599  13.356  21.752  1.00  0.00     0.150 C 
HETATM   11  C9  UNL     1      31.389  14.288  20.881  1.00  0.00     0.042 C 
HETATM   12  C10 UNL     1      29.856  12.294  21.018  1.00  0.00     0.178 C 
HETATM   13  C11 UNL     1      28.357  12.452  21.155  1.00  0.00     0.181 C 
HETATM   14  C12 UNL     1      27.942  12.608  22.602  1.00  0.00     0.188 C 
BRANCH  12  15
HETATM   15  O4  UNL     1      30.167  12.362  19.660  1.00  0.00    -0.390 OA
ATOM     16  H4  UNL     1      30.111  11.494  19.278  1.00  0.00     0.210 HD
ENDBRANCH  12  15
BRANCH  13  17
HETATM   17  O5  UNL     1      27.773  11.318  20.603  1.00  0.00    -0.390 OA
ATOM     18  H5  UNL     1      27.390  11.577  19.773  1.00  0.00     0.210 HD
ENDBRANCH  13  17
BRANCH  14  19
HETATM   19  O6  UNL     1      26.698  13.221  22.629  1.00  0.00    -0.389 OA
ATOM     20  H6  UNL     1      26.752  14.147  22.425  1.00  0.00     0.210 HD
ENDBRANCH  14  19
ENDBRANCH   7   8
ENDBRANCH   5   7
BRANCH   4  21
HETATM   21  N3  UNL     1      26.413  16.348  22.543  1.00  0.00    -0.316 N 
ATOM     22  H3  UNL     1      25.795  16.805  23.213  1.00  0.00     0.182 HD
BRANCH  21  23
HETATM   23  N4  UNL     1      25.983  15.711  21.556  1.00  0.00    -0.253 N 
HETATM   24  N5  UNL     1      25.153  15.013  20.967  1.00  0.00    -0.331 N 
ATOM     25  H52 UNL     1      24.442  14.910  21.691  1.00  0.00     0.178 HD
ATOM     26  H51 UNL     1      24.802  14.493  20.161  1.00  0.00     0.178 HD
ATOM     27  H4  UNL     1      26.717  15.839  20.859  1.00  0.00     0.207 HD
ENDBRANCH  21  23
ENDBRANCH   4  21
BRANCH   6  28
HETATM   28  O7  UNL     1      29.763  16.233  25.826  1.00  0.00    -0.393 OA
ATOM     29  H7  UNL     1      30.707  16.238  25.930  1.00  0.00     0.210 HD
ENDBRANCH   6  28
BRANCH   1  30
HETATM   30  C2  UNL     1      30.819  18.818  24.298  1.00  0.00     0.151 C 
BRANCH  30  31
HETATM   31  N2  UNL     1      31.583  17.844  23.536  1.00  0.00    -0.302 N 
ATOM     32  H2  UNL     1      31.314  17.413  22.652  1.00  0.00     0.173 HD
BRANCH  31  33
HETATM   33  S1  UNL     1      33.053  17.555  24.433  1.00  0.00     0.314 S 
HETATM   34  O1  UNL     1      33.706  18.871  24.717  1.00  0.00    -0.183 OA
HETATM   35  O2  UNL     1      32.724  16.808  25.691  1.00  0.00    -0.183 OA
BRANCH  33  36
HETATM   36  N1  UNL     1      34.092  16.646  23.412  1.00  0.00    -0.307 N 
HETATM   37  C1  UNL     1      34.910  15.796  24.290  1.00  0.00     0.161 C 
ATOM     38  H1  UNL     1      34.133  16.689  22.394  1.00  0.00     0.173 HD
ENDBRANCH  33  36
ENDBRANCH  31  33
ENDBRANCH  30  31
ENDBRANCH   1  30
TORSDOF 12
ENDMDL
MODEL 2
REMARK VINA RESULT: -6.203693957      3.532      5.351
REMARK  12 active torsions:
REMARK  status: ('A' for Active; 'I' for Inactive)
REMARK    1  A    between atoms: N1_2  and  S1_4 
REMARK    2  A    between atoms: S1_4  and  N2_7 
REMARK    3  A    between atoms: N2_7  and  C2_9 
REMARK    4  A    between atoms: C2_9  and  C3_10 
REMARK    5  A    between atoms: C5_13  and  N3_14 
REMARK    6  A    between atoms: N3_14  and  N4_16 
REMARK    7  A    between atoms: C6_21  and  S3_22 
REMARK    8  A    between atoms: S3_22  and  C7_23 
REMARK    9  A    between atoms: C10_27  and  O4_28 
REMARK   10  A    between atoms: C11_30  and  O5_31 
REMARK   11  A    between atoms: C12_33  and  O6_34 
REMARK   12  A    between atoms: C13_36  and  O7_37 
ROOT
HETATM    1  C3  UNL     1      31.063  14.998  22.753  1.00  0.00     0.095 C 
HETATM    2  S2  UNL     1      29.795  14.218  23.805  1.00  0.00    -0.158 SA
HETATM    3  C4  UNL     1      28.396  15.378  23.809  1.00  0.00     0.102 C 
HETATM    4  C5  UNL     1      27.930  15.507  22.383  1.00  0.00     0.126 C 
HETATM    5  C6  UNL     1      28.989  15.260  21.364  1.00  0.00     0.104 C 
HETATM    6  C13 UNL     1      30.336  15.831  21.736  1.00  0.00     0.149 C 
ENDROOT
BRANCH   5   7
HETATM    7  S3  UNL     1      28.509  15.905  19.739  1.00  0.00    -0.125 SA
BRANCH   7   8
HETATM    8  C7  UNL     1      27.736  17.514  19.826  1.00  0.00     0.215 C 
HETATM    9  O3  UNL     1      26.364  17.385  19.938  1.00  0.00    -0.365 OA
HETATM   10  C8  UNL     1      25.766  18.608  20.320  1.00  0.00     0.150 C 
HETATM   11  C9  UNL     1      24.305  18.336  20.525  1.00  0.00     0.042 C 
HETATM   12  C10 UNL     1      26.072  19.646  19.296  1.00  0.00     0.178 C 
HETATM   13  C11 UNL     1      26.803  19.069  18.103  1.00  0.00     0.181 C 
HETATM   14  C12 UNL     1      28.002  18.248  18.526  1.00  0.00     0.188 C 
BRANCH  12  15
HETATM   15  O4  UNL     1      24.881  20.207  18.833  1.00  0.00    -0.390 OA
ATOM     16  H4  UNL     1      24.929  21.153  18.904  1.00  0.00     0.210 HD
ENDBRANCH  12  15
BRANCH  13  17
HETATM   17  O5  UNL     1      27.203  20.138  17.311  1.00  0.00    -0.390 OA
ATOM     18  H5  UNL     1      27.736  19.783  16.609  1.00  0.00     0.210 HD
ENDBRANCH  13  17
BRANCH  14  19
HETATM   19  O6  UNL     1      28.316  17.380  17.492  1.00  0.00    -0.389 OA
ATOM     20  H6  UNL     1      27.730  17.481  16.750  1.00  0.00     0.210 HD
ENDBRANCH  14  19
ENDBRANCH   7   8
ENDBRANCH   5   7
BRANCH   4  21
HETATM   21  N3  UNL     1      26.932  14.437  22.199  1.00  0.00    -0.316 N 
ATOM     22  H3  UNL     1      27.093  13.477  22.503  1.00  0.00     0.182 HD
BRANCH  21  23
HETATM   23  N4  UNL     1      25.872  14.799  21.642  1.00  0.00    -0.253 N 
HETATM   24  N5  UNL     1      25.054  14.800  20.718  1.00  0.00    -0.331 N 
ATOM     25  H52 UNL     1      25.499  14.152  20.068  1.00  0.00     0.178 HD
ATOM     26  H51 UNL     1      24.189  15.095  20.263  1.00  0.00     0.178 HD
ATOM     27  H4  UNL     1      25.460  15.441  22.319  1.00  0.00     0.207 HD
ENDBRANCH  21  23
ENDBRANCH   4  21
BRANCH   6  28
HETATM   28  O7  UNL     1      31.118  15.778  20.556  1.00  0.00    -0.393 OA
ATOM     29  H7  UNL     1      31.400  16.669  20.388  1.00  0.00     0.210 HD
ENDBRANCH   6  28
BRANCH   1  30
HETATM   30  C2  UNL     1      31.859  15.928  23.649  1.00  0.00     0.151 C 
BRANCH  30  31
HETATM   31  N2  UNL     1      31.772  17.303  23.187  1.00  0.00    -0.302 N 
ATOM     32  H2  UNL     1      31.780  17.624  22.219  1.00  0.00     0.173 HD
BRANCH  31  33
HETATM   33  S1  UNL     1      31.650  18.299  24.616  1.00  0.00     0.314 S 
HETATM   34  O1  UNL     1      31.217  17.440  25.763  1.00  0.00    -0.183 OA
HETATM   35  O2  UNL     1      32.975  18.954  24.874  1.00  0.00    -0.183 OA
BRANCH  33  36
HETATM   36  N1  UNL     1      30.421  19.458  24.315  1.00  0.00    -0.307 N 
HETATM   37  C1  UNL     1      29.168  18.894  24.840  1.00  0.00     0.161 C 
ATOM     38  H1  UNL     1      30.537  20.364  23.860  1.00  0.00     0.173 HD
ENDBRANCH  33  36
ENDBRANCH  31  33
ENDBRANCH  30  31
ENDBRANCH   1  30
TORSDOF 12
ENDMDL
MODEL 3
REMARK VINA RESULT: -6.161006719      2.259      2.887
REMARK  12 active torsions:
REMARK  status: ('A' for Active; 'I' for Inactive)
REMARK    1  A    between atoms: N1_2  and  S1_4 
REMARK    2  A    between atoms: S1_4  and  N2_7 
REMARK    3  A    between atoms: N2_7  and  C2_9 
REMARK    4  A    between atoms: C2_9  and  C3_10 
REMARK    5  A    between atoms: C5_13  and  N3_14 
REMARK    6  A    between atoms: N3_14  and  N4_16 
REMARK    7  A    between atoms: C6_21  and  S3_22 
REMARK    8  A    between atoms: S3_22  and  C7_23 
REMARK    9  A    between atoms: C10_27  and  O4_28 
REMARK   10  A    between atoms: C11_30  and  O5_31 
REMARK   11  A    between atoms: C12_33  and  O6_34 
REMARK   12  A    between atoms: C13_36  and  O7_37 
ROOT
HETATM    1  C3  UNL     1      29.235  18.931  24.573  1.00  0.00     0.095 C 
HETATM    2  S2  UNL     1      29.366  20.195  23.266  1.00  0.00    -0.158 SA
HETATM    3  C4  UNL     1      29.600  19.265  21.722  1.00  0.00     0.102 C 
HETATM    4  C5  UNL     1      28.377  18.405  21.540  1.00  0.00     0.126 C 
HETATM    5  C6  UNL     1      27.692  18.031  22.808  1.00  0.00     0.104 C 
HETATM    6  C13 UNL     1      28.640  17.706  23.938  1.00  0.00     0.149 C 
ENDROOT
BRANCH   5   7
HETATM    7  S3  UNL     1      26.568  16.630  22.567  1.00  0.00    -0.125 SA
BRANCH   7   8
HETATM    8  C7  UNL     1      27.299  15.302  21.621  1.00  0.00     0.215 C 
HETATM    9  O3  UNL     1      26.316  14.564  20.986  1.00  0.00    -0.365 OA
HETATM   10  C8  UNL     1      26.871  13.720  19.997  1.00  0.00     0.150 C 
HETATM   11  C9  UNL     1      25.724  13.054  19.296  1.00  0.00     0.042 C 
HETATM   12  C10 UNL     1      27.840  12.786  20.635  1.00  0.00     0.178 C 
HETATM   13  C11 UNL     1      27.849  12.918  22.143  1.00  0.00     0.181 C 
HETATM   14  C12 UNL     1      28.006  14.360  22.576  1.00  0.00     0.188 C 
BRANCH  12  15
HETATM   15  O4  UNL     1      27.490  11.471  20.327  1.00  0.00    -0.390 OA
ATOM     16  H4  UNL     1      26.900  11.467  19.582  1.00  0.00     0.210 HD
ENDBRANCH  12  15
BRANCH  13  17
HETATM   17  O5  UNL     1      28.908  12.153  22.616  1.00  0.00    -0.390 OA
ATOM     18  H5  UNL     1      28.960  11.378  22.068  1.00  0.00     0.210 HD
ENDBRANCH  13  17
BRANCH  14  19
HETATM   19  O6  UNL     1      27.525  14.474  23.871  1.00  0.00    -0.389 OA
ATOM     20  H6  UNL     1      28.214  14.683  24.491  1.00  0.00     0.210 HD
ENDBRANCH  14  19
ENDBRANCH   7   8
ENDBRANCH   5   7
BRANCH   4  21
HETATM   21  N3  UNL     1      27.418  19.240  20.792  1.00  0.00    -0.316 N 
ATOM     22  H3  UNL     1      26.448  19.358  21.084  1.00  0.00     0.182 HD
BRANCH  21  23
HETATM   23  N4  UNL     1      27.887  19.794  19.774  1.00  0.00    -0.253 N 
HETATM   24  N5  UNL     1      27.858  20.132  18.587  1.00  0.00    -0.331 N 
ATOM     25  H52 UNL     1      26.961  19.742  18.299  1.00  0.00     0.178 HD
ATOM     26  H51 UNL     1      28.241  20.584  17.756  1.00  0.00     0.178 HD
ATOM     27  H4  UNL     1      28.777  20.169  20.101  1.00  0.00     0.207 HD
ENDBRANCH  21  23
ENDBRANCH   4  21
BRANCH   6  28
HETATM   28  O7  UNL     1      27.851  17.090  24.940  1.00  0.00    -0.393 OA
ATOM     29  H7  UNL     1      28.379  17.096  25.730  1.00  0.00     0.210 HD
ENDBRANCH   6  28
BRANCH   1  30
HETATM   30  C2  UNL     1      30.651  18.603  25.004  1.00  0.00     0.151 C 
BRANCH  30  31
HETATM   31  N2  UNL     1      31.071  17.310  24.490  1.00  0.00    -0.302 N 
ATOM     32  H2  UNL     1      30.465  16.541  24.203  1.00  0.00     0.173 HD
BRANCH  31  33
HETATM   33  S1  UNL     1      32.817  17.330  24.461  1.00  0.00     0.314 S 
HETATM   34  O1  UNL     1      33.283  18.731  24.705  1.00  0.00    -0.183 OA
HETATM   35  O2  UNL     1      33.337  16.377  25.495  1.00  0.00    -0.183 OA
BRANCH  33  36
HETATM   36  N1  UNL     1      33.296  16.869  22.879  1.00  0.00    -0.307 N 
HETATM   37  C1  UNL     1      33.131  18.055  22.024  1.00  0.00     0.161 C 
ATOM     38  H1  UNL     1      33.631  15.950  22.588  1.00  0.00     0.173 HD
ENDBRANCH  33  36
ENDBRANCH  31  33
ENDBRANCH  30  31
ENDBRANCH   1  30
TORSDOF 12
ENDMDL
MODEL 4
REMARK VINA RESULT: -6.125180582      2.729      4.298
REMARK  12 active torsions:
REMARK  status: ('A' for Active; 'I' for Inactive)
REMARK    1  A    between atoms: N1_2  and  S1_4 
REMARK    2  A    between atoms: S1_4  and  N2_7 
REMARK    3  A    between atoms: N2_7  and  C2_9 
REMARK    4  A    between atoms: C2_9  and  C3_10 
REMARK    5  A    between atoms: C5_13  and  N3_14 
REMARK    6  A    between atoms: N3_14  and  N4_16 
REMARK    7  A    between atoms: C6_21  and  S3_22 
REMARK    8  A    between atoms: S3_22  and  C7_23 
REMARK    9  A    between atoms: C10_27  and  O4_28 
REMARK   10  A    between atoms: C11_30  and  O5_31 
REMARK   11  A    between atoms: C12_33  and  O6_34 
REMARK   12  A    between atoms: C13_36  and  O7_37 
ROOT
HETATM    1  C3  UNL     1      30.154  17.769  23.946  1.00  0.00     0.095 C 
HETATM    2  S2  UNL     1      28.902  17.661  25.266  1.00  0.00    -0.158 SA
HETATM    3  C4  UNL     1      27.522  16.725  24.544  1.00  0.00     0.102 C 
HETATM    4  C5  UNL     1      28.060  15.366  24.177  1.00  0.00     0.126 C 
HETATM    5  C6  UNL     1      29.518  15.341  23.876  1.00  0.00     0.104 C 
HETATM    6  C13 UNL     1      29.999  16.540  23.094  1.00  0.00     0.149 C 
ENDROOT
BRANCH   5   7
HETATM    7  S3  UNL     1      29.985  13.835  22.982  1.00  0.00    -0.125 SA
BRANCH   7   8
HETATM    8  C7  UNL     1      29.052  13.599  21.477  1.00  0.00     0.215 C 
HETATM    9  O3  UNL     1      27.708  13.439  21.762  1.00  0.00    -0.365 OA
HETATM   10  C8  UNL     1      26.920  13.564  20.595  1.00  0.00     0.150 C 
HETATM   11  C9  UNL     1      25.485  13.490  21.025  1.00  0.00     0.042 C 
HETATM   12  C10 UNL     1      27.331  12.525  19.609  1.00  0.00     0.178 C 
HETATM   13  C11 UNL     1      28.358  11.573  20.183  1.00  0.00     0.181 C 
HETATM   14  C12 UNL     1      29.515  12.314  20.817  1.00  0.00     0.188 C 
BRANCH  12  15
HETATM   15  O4  UNL     1      26.218  11.774  19.234  1.00  0.00    -0.390 OA
ATOM     16  H4  UNL     1      25.463  12.345  19.155  1.00  0.00     0.210 HD
ENDBRANCH  12  15
BRANCH  13  17
HETATM   17  O5  UNL     1      28.808  10.776  19.138  1.00  0.00    -0.390 OA
ATOM     18  H5  UNL     1      29.642  10.409  19.404  1.00  0.00     0.210 HD
ENDBRANCH  13  17
BRANCH  14  19
HETATM   19  O6  UNL     1      30.132  11.459  21.718  1.00  0.00    -0.389 OA
ATOM     20  H6  UNL     1      30.647  11.931  22.363  1.00  0.00     0.210 HD
ENDBRANCH  14  19
ENDBRANCH   7   8
ENDBRANCH   5   7
BRANCH   4  21
HETATM   21  N3  UNL     1      27.880  14.536  25.383  1.00  0.00    -0.316 N 
ATOM     22  H3  UNL     1      27.965  14.913  26.327  1.00  0.00     0.182 HD
BRANCH  21  23
HETATM   23  N4  UNL     1      27.615  13.335  25.158  1.00  0.00    -0.253 N 
HETATM   24  N5  UNL     1      26.955  12.425  24.648  1.00  0.00    -0.331 N 
ATOM     25  H52 UNL     1      26.253  12.962  24.138  1.00  0.00     0.178 HD
ATOM     26  H51 UNL     1      26.739  11.445  24.464  1.00  0.00     0.178 HD
ATOM     27  H4  UNL     1      28.335  12.836  25.681  1.00  0.00     0.207 HD
ENDBRANCH  21  23
ENDBRANCH   4  21
BRANCH   6  28
HETATM   28  O7  UNL     1      31.300  16.212  22.641  1.00  0.00    -0.393 OA
ATOM     29  H7  UNL     1      31.180  15.657  21.880  1.00  0.00     0.210 HD
ENDBRANCH   6  28
BRANCH   1  30
HETATM   30  C2  UNL     1      29.795  18.979  23.104  1.00  0.00     0.151 C 
BRANCH  30  31
HETATM   31  N2  UNL     1      29.633  18.617  21.706  1.00  0.00    -0.302 N 
ATOM     32  H2  UNL     1      30.347  18.234  21.087  1.00  0.00     0.173 HD
BRANCH  31  33
HETATM   33  S1  UNL     1      27.973  18.967  21.293  1.00  0.00     0.314 S 
HETATM   34  O1  UNL     1      27.305  19.589  22.479  1.00  0.00    -0.183 OA
HETATM   35  O2  UNL     1      27.943  19.868  20.094  1.00  0.00    -0.183 OA
BRANCH  33  36
HETATM   36  N1  UNL     1      27.210  17.463  20.971  1.00  0.00    -0.307 N 
HETATM   37  C1  UNL     1      25.782  17.639  21.277  1.00  0.00     0.161 C 
ATOM     38  H1  UNL     1      27.660  16.612  20.633  1.00  0.00     0.173 HD
ENDBRANCH  33  36
ENDBRANCH  31  33
ENDBRANCH  30  31
ENDBRANCH   1  30
TORSDOF 12
ENDMDL
MODEL 5
REMARK VINA RESULT: -6.063579514      2.409      2.963
REMARK  12 active torsions:
REMARK  status: ('A' for Active; 'I' for Inactive)
REMARK    1  A    between atoms: N1_2  and  S1_4 
REMARK    2  A    between atoms: S1_4  and  N2_7 
REMARK    3  A    between atoms: N2_7  and  C2_9 
REMARK    4  A    between atoms: C2_9  and  C3_10 
REMARK    5  A    between atoms: C5_13  and  N3_14 
REMARK    6  A    between atoms: N3_14  and  N4_16 
REMARK    7  A    between atoms: C6_21  and  S3_22 
REMARK    8  A    between atoms: S3_22  and  C7_23 
REMARK    9  A    between atoms: C10_27  and  O4_28 
REMARK   10  A    between atoms: C11_30  and  O5_31 
REMARK   11  A    between atoms: C12_33  and  O6_34 
REMARK   12  A    between atoms: C13_36  and  O7_37 
ROOT
HETATM    1  C3  UNL     1      28.425  18.765  24.282  1.00  0.00     0.095 C 
HETATM    2  S2  UNL     1      28.580  20.072  23.021  1.00  0.00    -0.158 SA
HETATM    3  C4  UNL     1      29.155  19.224  21.520  1.00  0.00     0.102 C 
HETATM    4  C5  UNL     1      28.094  18.221  21.151  1.00  0.00     0.126 C 
HETATM    5  C6  UNL     1      27.286  17.727  22.301  1.00  0.00     0.104 C 
HETATM    6  C13 UNL     1      28.093  17.492  23.555  1.00  0.00     0.149 C 
ENDROOT
BRANCH   5   7
HETATM    7  S3  UNL     1      26.401  16.201  21.882  1.00  0.00    -0.125 SA
BRANCH   7   8
HETATM    8  C7  UNL     1      27.442  14.981  21.096  1.00  0.00     0.215 C 
HETATM    9  O3  UNL     1      26.695  14.179  20.253  1.00  0.00    -0.365 OA
HETATM   10  C8  UNL     1      27.528  13.425  19.395  1.00  0.00     0.150 C 
HETATM   11  C9  UNL     1      26.627  12.682  18.453  1.00  0.00     0.042 C 
HETATM   12  C10 UNL     1      28.426  12.562  20.213  1.00  0.00     0.178 C 
HETATM   13  C11 UNL     1      28.100  12.641  21.689  1.00  0.00     0.181 C 
HETATM   14  C12 UNL     1      28.018  14.075  22.167  1.00  0.00     0.188 C 
BRANCH  12  15
HETATM   15  O4  UNL     1      28.280  11.233  19.817  1.00  0.00    -0.390 OA
ATOM     16  H4  UNL     1      29.137  10.850  19.671  1.00  0.00     0.210 HD
ENDBRANCH  12  15
BRANCH  13  17
HETATM   17  O5  UNL     1      29.103  11.961  22.367  1.00  0.00    -0.390 OA
ATOM     18  H5  UNL     1      28.899  12.013  23.294  1.00  0.00     0.210 HD
ENDBRANCH  13  17
BRANCH  14  19
HETATM   19  O6  UNL     1      27.264  14.098  23.330  1.00  0.00    -0.389 OA
ATOM     20  H6  UNL     1      27.345  13.291  23.825  1.00  0.00     0.210 HD
ENDBRANCH  14  19
ENDBRANCH   7   8
ENDBRANCH   5   7
BRANCH   4  21
HETATM   21  N3  UNL     1      27.155  18.948  20.278  1.00  0.00    -0.316 N 
ATOM     22  H3  UNL     1      26.142  18.863  20.367  1.00  0.00     0.182 HD
BRANCH  21  23
HETATM   23  N4  UNL     1      27.695  19.679  19.418  1.00  0.00    -0.253 N 
HETATM   24  N5  UNL     1      27.770  20.207  18.305  1.00  0.00    -0.331 N 
ATOM     25  H52 UNL     1      26.930  19.835  17.861  1.00  0.00     0.178 HD
ATOM     26  H51 UNL     1      28.211  20.803  17.604  1.00  0.00     0.178 HD
ATOM     27  H4  UNL     1      28.525  20.028  19.898  1.00  0.00     0.207 HD
ENDBRANCH  21  23
ENDBRANCH   4  21
BRANCH   6  28
HETATM   28  O7  UNL     1      27.253  16.754  24.424  1.00  0.00    -0.393 OA
ATOM     29  H7  UNL     1      26.391  16.760  24.024  1.00  0.00     0.210 HD
ENDBRANCH   6  28
BRANCH   1  30
HETATM   30  C2  UNL     1      29.794  18.607  24.916  1.00  0.00     0.151 C 
BRANCH  30  31
HETATM   31  N2  UNL     1      29.994  17.253  25.404  1.00  0.00    -0.302 N 
ATOM     32  H2  UNL     1      29.374  16.728  26.020  1.00  0.00     0.173 HD
BRANCH  31  33
HETATM   33  S1  UNL     1      31.506  16.700  24.727  1.00  0.00     0.314 S 
HETATM   34  O1  UNL     1      32.562  16.785  25.784  1.00  0.00    -0.183 OA
HETATM   35  O2  UNL     1      31.334  15.301  24.215  1.00  0.00    -0.183 OA
BRANCH  33  36
HETATM   36  N1  UNL     1      31.917  17.788  23.465  1.00  0.00    -0.307 N 
HETATM   37  C1  UNL     1      33.384  17.890  23.454  1.00  0.00     0.161 C 
ATOM     38  H1  UNL     1      31.268  18.271  22.842  1.00  0.00     0.173 HD
ENDBRANCH  33  36
ENDBRANCH  31  33
ENDBRANCH  30  31
ENDBRANCH   1  30
TORSDOF 12
ENDMDL
