MODEL 1
REMARK VINA RESULT: -5.166382810      0.000      0.000
REMARK  1 active torsions:
REMARK  status: ('A' for Active; 'I' for Inactive)
REMARK    1  A    between atoms: C2_2  and  C4_4 
ROOT
HETATM    1  C4  UNL     1       1.817  -1.045  20.616  1.00  0.00     0.086 C 
HETATM    2  C5  UNL     1       1.190  -2.408  20.614  1.00  0.00     0.032 C 
HETATM    3  C6  UNL     1       1.503  -3.219  19.392  1.00  0.00     0.089 C 
HETATM    4  C7  UNL     1       2.441  -2.564  18.435  1.00  0.00     0.298 C 
HETATM    5  F1  UNL     1       3.097  -3.510  17.671  1.00  0.00    -0.198 F 
HETATM    6  F2  UNL     1       1.699  -1.798  17.523  1.00  0.00    -0.198 F 
HETATM    7  C8  UNL     1       3.429  -1.678  19.036  1.00  0.00     0.161 C 
HETATM    8  N1  UNL     1       4.745  -1.628  18.443  1.00  0.00    -0.081 NA
HETATM    9  N2  UNL     1       3.122  -0.976  20.055  1.00  0.00    -0.372 N 
ATOM     10  H2  UNL     1       3.819  -0.359  20.472  1.00  0.00     0.161 HD
ENDROOT
BRANCH   1  11
HETATM   11  C2  UNL     1       1.789  -0.475  22.040  1.00  0.00     0.000 C 
HETATM   12  C1  UNL     1       3.085   0.179  22.397  1.00  0.00     0.011 C 
HETATM   13  C3  UNL     1       1.490  -1.564  23.046  1.00  0.00     0.011 C 
ENDBRANCH   1  11
TORSDOF 1
ENDMDL
MODEL 2
REMARK VINA RESULT: -4.669358880      0.808      1.198
REMARK  1 active torsions:
REMARK  status: ('A' for Active; 'I' for Inactive)
REMARK    1  A    between atoms: C2_2  and  C4_4 
ROOT
HETATM    1  C4  UNL     1       2.383  -0.923  20.416  1.00  0.00     0.086 C 
HETATM    2  C5  UNL     1       1.201  -1.838  20.289  1.00  0.00     0.032 C 
HETATM    3  C6  UNL     1       1.283  -2.781  19.127  1.00  0.00     0.089 C 
HETATM    4  C7  UNL     1       2.554  -2.700  18.349  1.00  0.00     0.298 C 
HETATM    5  F1  UNL     1       2.801  -3.891  17.694  1.00  0.00    -0.198 F 
HETATM    6  F2  UNL     1       2.408  -1.740  17.337  1.00  0.00    -0.198 F 
HETATM    7  C8  UNL     1       3.735  -2.335  19.121  1.00  0.00     0.161 C 
HETATM    8  N1  UNL     1       4.996  -2.939  18.758  1.00  0.00    -0.081 NA
HETATM    9  N2  UNL     1       3.638  -1.504  20.083  1.00  0.00    -0.372 N 
ATOM     10  H2  UNL     1       4.468  -1.254  20.620  1.00  0.00     0.161 HD
ENDROOT
BRANCH   1  11
HETATM   11  C2  UNL     1       2.404  -0.312  21.823  1.00  0.00     0.000 C 
HETATM   12  C1  UNL     1       1.803  -1.235  22.833  1.00  0.00     0.011 C 
HETATM   13  C3  UNL     1       1.656   1.003  21.847  1.00  0.00     0.011 C 
ENDBRANCH   1  11
TORSDOF 1
ENDMDL
MODEL 3
REMARK VINA RESULT: -3.515221960      9.515     10.589
REMARK  1 active torsions:
REMARK  status: ('A' for Active; 'I' for Inactive)
REMARK    1  A    between atoms: C2_2  and  C4_4 
ROOT
HETATM    1  C4  UNL     1      -3.747  -8.270  15.265  1.00  0.00     0.086 C 
HETATM    2  C5  UNL     1      -4.436  -9.324  14.449  1.00  0.00     0.032 C 
HETATM    3  C6  UNL     1      -4.971  -8.826  13.140  1.00  0.00     0.089 C 
HETATM    4  C7  UNL     1      -4.658  -7.398  12.843  1.00  0.00     0.298 C 
HETATM    5  F1  UNL     1      -4.672  -7.170  11.480  1.00  0.00    -0.198 F 
HETATM    6  F2  UNL     1      -5.677  -6.590  13.367  1.00  0.00    -0.198 F 
HETATM    7  C8  UNL     1      -3.398  -6.910  13.387  1.00  0.00     0.161 C 
HETATM    8  N1  UNL     1      -2.649  -5.951  12.609  1.00  0.00    -0.081 NA
HETATM    9  N2  UNL     1      -2.987  -7.327  14.519  1.00  0.00    -0.372 N 
ATOM     10  H2  UNL     1      -2.103  -6.982  14.894  1.00  0.00     0.161 HD
ENDROOT
BRANCH   1  11
HETATM   11  C2  UNL     1      -2.897  -8.943  16.350  1.00  0.00     0.000 C 
HETATM   12  C1  UNL     1      -3.054  -8.264  17.672  1.00  0.00     0.011 C 
HETATM   13  C3  UNL     1      -1.435  -8.941  15.963  1.00  0.00     0.011 C 
ENDBRANCH   1  11
TORSDOF 1
ENDMDL
MODEL 4
REMARK VINA RESULT: -3.399225499      1.942      2.816
REMARK  1 active torsions:
REMARK  status: ('A' for Active; 'I' for Inactive)
REMARK    1  A    between atoms: C2_2  and  C4_4 
ROOT
HETATM    1  C4  UNL     1       1.772  -1.485  20.710  1.00  0.00     0.086 C 
HETATM    2  C5  UNL     1       2.711  -0.329  20.888  1.00  0.00     0.032 C 
HETATM    3  C6  UNL     1       4.025  -0.500  20.187  1.00  0.00     0.089 C 
HETATM    4  C7  UNL     1       4.140  -1.747  19.376  1.00  0.00     0.298 C 
HETATM    5  F1  UNL     1       5.075  -1.589  18.370  1.00  0.00    -0.198 F 
HETATM    6  F2  UNL     1       4.638  -2.775  20.190  1.00  0.00    -0.198 F 
HETATM    7  C8  UNL     1       2.896  -2.226  18.790  1.00  0.00     0.161 C 
HETATM    8  N1  UNL     1       2.955  -2.844  17.486  1.00  0.00    -0.081 NA
HETATM    9  N2  UNL     1       1.799  -2.096  19.426  1.00  0.00    -0.372 N 
ATOM     10  H2  UNL     1       0.931  -2.433  19.009  1.00  0.00     0.161 HD
ENDROOT
BRANCH   1  11
HETATM   11  C2  UNL     1       0.352  -1.051  21.094  1.00  0.00     0.000 C 
HETATM   12  C1  UNL     1      -0.667  -1.601  20.150  1.00  0.00     0.011 C 
HETATM   13  C3  UNL     1       0.242   0.458  21.119  1.00  0.00     0.011 C 
ENDBRANCH   1  11
TORSDOF 1
ENDMDL
MODEL 5
REMARK VINA RESULT: -3.357379335      2.225      3.741
REMARK  1 active torsions:
REMARK  status: ('A' for Active; 'I' for Inactive)
REMARK    1  A    between atoms: C2_2  and  C4_4 
ROOT
HETATM    1  C4  UNL     1       3.393  -2.016  19.906  1.00  0.00     0.086 C 
HETATM    2  C5  UNL     1       2.434  -2.335  18.798  1.00  0.00     0.032 C 
HETATM    3  C6  UNL     1       0.993  -2.146  19.168  1.00  0.00     0.089 C 
HETATM    4  C7  UNL     1       0.769  -1.602  20.539  1.00  0.00     0.298 C 
HETATM    5  F1  UNL     1      -0.449  -0.955  20.613  1.00  0.00    -0.198 F 
HETATM    6  F2  UNL     1       0.681  -2.670  21.444  1.00  0.00    -0.198 F 
HETATM    7  C8  UNL     1       1.807  -0.706  21.031  1.00  0.00     0.161 C 
HETATM    8  N1  UNL     1       1.406   0.404  21.864  1.00  0.00    -0.081 NA
HETATM    9  N2  UNL     1       3.028  -0.913  20.726  1.00  0.00    -0.372 N 
ATOM     10  H2  UNL     1       3.749  -0.281  21.073  1.00  0.00     0.161 HD
ENDROOT
BRANCH   1  11
HETATM   11  C2  UNL     1       4.801  -1.839  19.323  1.00  0.00     0.000 C 
HETATM   12  C1  UNL     1       5.679  -3.006  19.640  1.00  0.00     0.011 C 
HETATM   13  C3  UNL     1       5.444  -0.576  19.852  1.00  0.00     0.011 C 
ENDBRANCH   1  11
TORSDOF 1
ENDMDL
