MODEL 1
REMARK VINA RESULT: -4.056029945      0.000      0.000
REMARK  1 active torsions:
REMARK  status: ('A' for Active; 'I' for Inactive)
REMARK    1  A    between atoms: C1_4  and  C2_5 
ROOT
HETATM    1  C2  UNL     1       4.647  32.515 -11.350  1.00  0.00     0.063 A 
HETATM    2  C3  UNL     1       3.576  32.169 -12.160  1.00  0.00     0.119 A 
HETATM    3  N2  UNL     1       2.512  31.824 -11.402  1.00  0.00    -0.360 N 
ATOM      4  H2  UNL     1       1.594  31.527 -11.732  1.00  0.00     0.166 HD
HETATM    5  C4  UNL     1       2.915  31.952 -10.117  1.00  0.00     0.180 A 
HETATM    6  N3  UNL     1       4.193  32.366 -10.098  1.00  0.00    -0.350 N 
ATOM      7  H3  UNL     1       4.739  32.542  -9.253  1.00  0.00     0.166 HD
ENDROOT
BRANCH   1   8
HETATM    8  C1  UNL     1       5.962  32.942 -11.808  1.00  0.00     0.111 C 
HETATM    9  N1  UNL     1       6.967  32.156 -11.706  1.00  0.00    -0.406 N 
ATOM     10  H12 UNL     1       6.829  31.230 -11.301  1.00  0.00     0.155 HD
ATOM     11  H11 UNL     1       7.888  32.455 -12.027  1.00  0.00     0.155 HD
ENDBRANCH   1   8
TORSDOF 1
ENDMDL
MODEL 2
REMARK VINA RESULT: -3.950776143      1.276      1.276
REMARK  1 active torsions:
REMARK  status: ('A' for Active; 'I' for Inactive)
REMARK    1  A    between atoms: C1_4  and  C2_5 
ROOT
HETATM    1  C2  UNL     1       4.546  32.995 -11.558  1.00  0.00     0.063 A 
HETATM    2  C3  UNL     1       3.477  32.506 -12.294  1.00  0.00     0.119 A 
HETATM    3  N2  UNL     1       2.651  31.793 -11.498  1.00  0.00    -0.360 N 
ATOM      4  H2  UNL     1       1.790  31.320 -11.772  1.00  0.00     0.166 HD
HETATM    5  C4  UNL     1       3.201  31.834 -10.262  1.00  0.00     0.180 A 
HETATM    6  N3  UNL     1       4.333  32.557 -10.310  1.00  0.00    -0.350 N 
ATOM      7  H3  UNL     1       4.942  32.743  -9.512  1.00  0.00     0.166 HD
ENDROOT
BRANCH   1   8
HETATM    8  C1  UNL     1       5.638  33.808 -12.074  1.00  0.00     0.111 C 
HETATM    9  N1  UNL     1       5.743  35.038 -11.735  1.00  0.00    -0.406 N 
ATOM     10  H12 UNL     1       5.051  35.434 -11.100  1.00  0.00     0.155 HD
ATOM     11  H11 UNL     1       6.509  35.607 -12.097  1.00  0.00     0.155 HD
ENDBRANCH   1   8
TORSDOF 1
ENDMDL
MODEL 3
REMARK VINA RESULT: -3.933849594      1.978      3.540
REMARK  1 active torsions:
REMARK  status: ('A' for Active; 'I' for Inactive)
REMARK    1  A    between atoms: C1_4  and  C2_5 
ROOT
HETATM    1  C2  UNL     1       2.287  32.973 -11.264  1.00  0.00     0.063 A 
HETATM    2  C3  UNL     1       2.649  32.096 -10.253  1.00  0.00     0.119 A 
HETATM    3  N2  UNL     1       3.744  31.393 -10.618  1.00  0.00    -0.360 N 
ATOM      4  H2  UNL     1       4.226  30.680 -10.071  1.00  0.00     0.166 HD
HETATM    5  C4  UNL     1       4.069  31.828 -11.857  1.00  0.00     0.180 A 
HETATM    6  N3  UNL     1       3.190  32.774 -12.233  1.00  0.00    -0.350 N 
ATOM      7  H3  UNL     1       3.209  33.267 -13.126  1.00  0.00     0.166 HD
ENDROOT
BRANCH   1   8
HETATM    8  C1  UNL     1       1.159  33.895 -11.232  1.00  0.00     0.111 C 
HETATM    9  N1  UNL     1       1.360  35.159 -11.214  1.00  0.00    -0.406 N 
ATOM     10  H12 UNL     1       2.319  35.505 -11.222  1.00  0.00     0.155 HD
ATOM     11  H11 UNL     1       0.571  35.804 -11.192  1.00  0.00     0.155 HD
ENDBRANCH   1   8
TORSDOF 1
ENDMDL
MODEL 4
REMARK VINA RESULT: -3.924804099      2.003      3.261
REMARK  1 active torsions:
REMARK  status: ('A' for Active; 'I' for Inactive)
REMARK    1  A    between atoms: C1_4  and  C2_5 
ROOT
HETATM    1  C2  UNL     1       3.157  33.403 -11.943  1.00  0.00     0.063 A 
HETATM    2  C3  UNL     1       3.015  32.061 -11.625  1.00  0.00     0.119 A 
HETATM    3  N2  UNL     1       4.226  31.504 -11.406  1.00  0.00    -0.360 N 
ATOM      4  H2  UNL     1       4.420  30.534 -11.156  1.00  0.00     0.166 HD
HETATM    5  C4  UNL     1       5.129  32.496 -11.587  1.00  0.00     0.180 A 
HETATM    6  N3  UNL     1       4.478  33.627 -11.907  1.00  0.00    -0.350 N 
ATOM      7  H3  UNL     1       4.925  34.526 -12.096  1.00  0.00     0.166 HD
ENDROOT
BRANCH   1   8
HETATM    8  C1  UNL     1       2.075  34.330 -12.244  1.00  0.00     0.111 C 
HETATM    9  N1  UNL     1       1.527  35.007 -11.306  1.00  0.00    -0.406 N 
ATOM     10  H12 UNL     1       1.862  34.886 -10.350  1.00  0.00     0.155 HD
ATOM     11  H11 UNL     1       0.769  35.657 -11.516  1.00  0.00     0.155 HD
ENDBRANCH   1   8
TORSDOF 1
ENDMDL
MODEL 5
REMARK VINA RESULT: -3.884273082      1.682      1.716
REMARK  1 active torsions:
REMARK  status: ('A' for Active; 'I' for Inactive)
REMARK    1  A    between atoms: C1_4  and  C2_5 
ROOT
HETATM    1  C2  UNL     1       4.255  31.597 -11.618  1.00  0.00     0.063 A 
HETATM    2  C3  UNL     1       3.828  32.834 -12.080  1.00  0.00     0.119 A 
HETATM    3  N2  UNL     1       2.794  33.277 -11.332  1.00  0.00    -0.360 N 
ATOM      4  H2  UNL     1       2.285  34.154 -11.446  1.00  0.00     0.166 HD
HETATM    5  C4  UNL     1       2.571  32.320 -10.401  1.00  0.00     0.180 A 
HETATM    6  N3  UNL     1       3.451  31.320 -10.582  1.00  0.00    -0.350 N 
ATOM      7  H3  UNL     1       3.500  30.474 -10.013  1.00  0.00     0.166 HD
ENDROOT
BRANCH   1   8
HETATM    8  C1  UNL     1       5.347  30.809 -12.172  1.00  0.00     0.111 C 
HETATM    9  N1  UNL     1       5.358  29.536 -12.034  1.00  0.00    -0.406 N 
ATOM     10  H12 UNL     1       4.591  29.089 -11.532  1.00  0.00     0.155 HD
ATOM     11  H11 UNL     1       6.122  28.984 -12.422  1.00  0.00     0.155 HD
ENDBRANCH   1   8
TORSDOF 1
ENDMDL
