MODEL 1
REMARK VINA RESULT: -7.615563613      0.000      0.000
REMARK  17 active torsions:
REMARK  status: ('A' for Active; 'I' for Inactive)
REMARK    1  A    between atoms: C4_4  and  C5_5 
REMARK    2  A    between atoms: C5_5  and  N1_6 
REMARK    3  A    between atoms: N1_6  and  C6_9 
REMARK    4  A    between atoms: C6_9  and  C7_10 
REMARK    5  A    between atoms: C7_10  and  C8_11 
REMARK    6  A    between atoms: C8_11  and  C9_12 
REMARK    7  A    between atoms: C9_12  and  N2_13 
REMARK    8  A    between atoms: N2_13  and  C10_15 
REMARK    9  A    between atoms: C10_15  and  C11_16 
REMARK   10  A    between atoms: C11_16  and  C12_17 
REMARK   11  A    between atoms: C12_17  and  C13_18 
REMARK   12  A    between atoms: C13_18  and  N3_19 
REMARK   13  A    between atoms: N3_19  and  C14_21 
REMARK   14  A    between atoms: C14_21  and  C15_22 
REMARK   15  A    between atoms: C15_22  and  N4_23 
REMARK   16  A    between atoms: N4_23  and  C16_26 
REMARK   17  A    between atoms: C16_26  and  C17_27 
ROOT
HETATM    1  C11 UNL     1      -1.400  18.537  30.739  1.00  0.00     0.021 C 
ENDROOT
BRANCH   1   2
HETATM    2  C10 UNL     1      -2.154  19.432  29.805  1.00  0.00     0.113 C 
BRANCH   2   3
HETATM    3  N2  UNL     1      -3.491  18.980  29.620  1.00  0.00    -0.421 N 
ATOM      4  H2  UNL     1      -4.096  18.757  30.411  1.00  0.00     0.153 HD
BRANCH   3   5
HETATM    5  C9  UNL     1      -3.944  18.852  28.272  1.00  0.00     0.113 C 
BRANCH   5   6
HETATM    6  C8  UNL     1      -2.718  19.204  27.398  1.00  0.00     0.021 C 
BRANCH   6   7
HETATM    7  C7  UNL     1      -3.267  20.042  26.260  1.00  0.00     0.029 C 
BRANCH   7   8
HETATM    8  C6  UNL     1      -4.317  21.012  26.676  1.00  0.00     0.232 C 
BRANCH   8   9
HETATM    9  N1  UNL     1      -3.827  22.357  26.900  1.00  0.00    -0.071 N 
ATOM     10  H12 UNL     1      -4.402  23.067  26.447  1.00  0.00     0.277 HD
ATOM     11  H11 UNL     1      -2.957  22.547  26.402  1.00  0.00     0.277 HD
BRANCH   9  12
HETATM   12  C5  UNL     1      -3.709  22.559  28.326  1.00  0.00     0.270 C 
BRANCH  12  13
HETATM   13  C4  UNL     1      -2.781  23.646  28.668  1.00  0.00    -0.033 A 
HETATM   14  C3  UNL     1      -3.286  24.822  29.174  1.00  0.00     0.009 A 
HETATM   15  C2  UNL     1      -2.450  25.890  29.509  1.00  0.00     0.001 A 
HETATM   16  C1  UNL     1      -1.097  25.725  29.315  1.00  0.00     0.000 A 
HETATM   17  C23 UNL     1      -0.579  24.561  28.812  1.00  0.00     0.001 A 
HETATM   18  C22 UNL     1      -1.431  23.510  28.486  1.00  0.00     0.009 A 
ENDBRANCH  12  13
ENDBRANCH   9  12
ENDBRANCH   8   9
ENDBRANCH   7   8
ENDBRANCH   6   7
ENDBRANCH   5   6
ENDBRANCH   3   5
ENDBRANCH   2   3
ENDBRANCH   1   2
BRANCH   1  19
HETATM   19  C12 UNL     1      -0.944  17.239  30.061  1.00  0.00     0.021 C 
BRANCH  19  20
HETATM   20  C13 UNL     1       0.323  16.830  30.751  1.00  0.00     0.113 C 
BRANCH  20  21
HETATM   21  N3  UNL     1       0.434  15.459  31.096  1.00  0.00    -0.420 N 
ATOM     22  H3  UNL     1      -0.389  14.879  31.259  1.00  0.00     0.153 HD
BRANCH  21  23
HETATM   23  C14 UNL     1       1.764  14.930  31.203  1.00  0.00     0.141 C 
BRANCH  23  24
HETATM   24  C15 UNL     1       2.759  16.010  31.555  1.00  0.00     0.251 C 
BRANCH  24  25
HETATM   25  N4  UNL     1       3.308  15.877  32.875  1.00  0.00    -0.070 N 
ATOM     26  H42 UNL     1       3.483  14.904  33.126  1.00  0.00     0.277 HD
ATOM     27  H41 UNL     1       4.269  16.214  32.932  1.00  0.00     0.277 HD
BRANCH  25  28
HETATM   28  C16 UNL     1       2.434  16.541  33.820  1.00  0.00     0.272 C 
BRANCH  28  29
HETATM   29  C17 UNL     1       2.056  15.592  34.924  1.00  0.00    -0.017 A 
HETATM   30  C18 UNL     1       3.024  15.190  35.812  1.00  0.00     0.011 A 
HETATM   31  C19 UNL     1       2.675  14.326  36.807  1.00  0.00     0.018 A 
HETATM   32  C20 UNL     1       1.377  13.879  36.901  1.00  0.00     0.087 A 
HETATM   33  N5  UNL     1       0.441  14.268  36.041  1.00  0.00    -0.375 N 
HETATM   34  C21 UNL     1       0.785  15.121  35.061  1.00  0.00     0.096 A 
ATOM     35  H5  UNL     1      -0.517  13.928  36.125  1.00  0.00     0.164 HD
ENDBRANCH  28  29
ENDBRANCH  25  28
ENDBRANCH  24  25
ENDBRANCH  23  24
ENDBRANCH  21  23
ENDBRANCH  20  21
ENDBRANCH  19  20
ENDBRANCH   1  19
TORSDOF 17
ENDMDL
MODEL 2
REMARK VINA RESULT: -7.535659977      1.924      2.843
REMARK  17 active torsions:
REMARK  status: ('A' for Active; 'I' for Inactive)
REMARK    1  A    between atoms: C4_4  and  C5_5 
REMARK    2  A    between atoms: C5_5  and  N1_6 
REMARK    3  A    between atoms: N1_6  and  C6_9 
REMARK    4  A    between atoms: C6_9  and  C7_10 
REMARK    5  A    between atoms: C7_10  and  C8_11 
REMARK    6  A    between atoms: C8_11  and  C9_12 
REMARK    7  A    between atoms: C9_12  and  N2_13 
REMARK    8  A    between atoms: N2_13  and  C10_15 
REMARK    9  A    between atoms: C10_15  and  C11_16 
REMARK   10  A    between atoms: C11_16  and  C12_17 
REMARK   11  A    between atoms: C12_17  and  C13_18 
REMARK   12  A    between atoms: C13_18  and  N3_19 
REMARK   13  A    between atoms: N3_19  and  C14_21 
REMARK   14  A    between atoms: C14_21  and  C15_22 
REMARK   15  A    between atoms: C15_22  and  N4_23 
REMARK   16  A    between atoms: N4_23  and  C16_26 
REMARK   17  A    between atoms: C16_26  and  C17_27 
ROOT
HETATM    1  C11 UNL     1       0.119  17.336  31.784  1.00  0.00     0.021 C 
ENDROOT
BRANCH   1   2
HETATM    2  C10 UNL     1      -0.775  18.043  30.813  1.00  0.00     0.113 C 
BRANCH   2   3
HETATM    3  N2  UNL     1      -1.270  17.151  29.820  1.00  0.00    -0.421 N 
ATOM      4  H2  UNL     1      -0.788  16.282  29.592  1.00  0.00     0.153 HD
BRANCH   3   5
HETATM    5  C9  UNL     1      -2.477  17.534  29.159  1.00  0.00     0.113 C 
BRANCH   5   6
HETATM    6  C8  UNL     1      -2.130  17.536  27.653  1.00  0.00     0.021 C 
BRANCH   6   7
HETATM    7  C7  UNL     1      -2.656  18.856  27.123  1.00  0.00     0.029 C 
BRANCH   7   8
HETATM    8  C6  UNL     1      -2.168  20.045  27.876  1.00  0.00     0.232 C 
BRANCH   8   9
HETATM    9  N1  UNL     1      -3.221  20.926  28.338  1.00  0.00    -0.071 N 
ATOM     10  H12 UNL     1      -4.144  20.492  28.299  1.00  0.00     0.277 HD
ATOM     11  H11 UNL     1      -3.404  21.695  27.693  1.00  0.00     0.277 HD
BRANCH   9  12
HETATM   12  C5  UNL     1      -2.875  21.381  29.665  1.00  0.00     0.270 C 
BRANCH  12  13
HETATM   13  C4  UNL     1      -2.757  22.844  29.749  1.00  0.00    -0.033 A 
HETATM   14  C3  UNL     1      -3.282  23.616  28.739  1.00  0.00     0.009 A 
HETATM   15  C2  UNL     1      -3.191  25.010  28.765  1.00  0.00     0.001 A 
HETATM   16  C1  UNL     1      -2.555  25.587  29.841  1.00  0.00     0.000 A 
HETATM   17  C23 UNL     1      -2.026  24.832  30.854  1.00  0.00     0.001 A 
HETATM   18  C22 UNL     1      -2.130  23.444  30.807  1.00  0.00     0.009 A 
ENDBRANCH  12  13
ENDBRANCH   9  12
ENDBRANCH   8   9
ENDBRANCH   7   8
ENDBRANCH   6   7
ENDBRANCH   5   6
ENDBRANCH   3   5
ENDBRANCH   2   3
ENDBRANCH   1   2
BRANCH   1  19
HETATM   19  C12 UNL     1       0.744  16.069  31.185  1.00  0.00     0.021 C 
BRANCH  19  20
HETATM   20  C13 UNL     1       0.495  14.972  32.176  1.00  0.00     0.113 C 
BRANCH  20  21
HETATM   21  N3  UNL     1       1.618  14.538  32.925  1.00  0.00    -0.420 N 
ATOM     22  H3  UNL     1       2.308  13.897  32.533  1.00  0.00     0.153 HD
BRANCH  21  23
HETATM   23  C14 UNL     1       1.734  15.047  34.262  1.00  0.00     0.141 C 
BRANCH  23  24
HETATM   24  C15 UNL     1       0.394  15.078  34.957  1.00  0.00     0.251 C 
BRANCH  24  25
HETATM   25  N4  UNL     1       0.297  14.162  36.058  1.00  0.00    -0.070 N 
ATOM     26  H42 UNL     1      -0.404  14.449  36.741  1.00  0.00     0.277 HD
ATOM     27  H41 UNL     1      -0.121  13.273  35.788  1.00  0.00     0.277 HD
BRANCH  25  28
HETATM   28  C16 UNL     1       1.608  13.997  36.653  1.00  0.00     0.272 C 
BRANCH  28  29
HETATM   29  C17 UNL     1       1.592  14.485  38.075  1.00  0.00    -0.017 A 
HETATM   30  C18 UNL     1       2.299  13.787  39.024  1.00  0.00     0.011 A 
HETATM   31  C19 UNL     1       2.275  14.233  40.311  1.00  0.00     0.018 A 
HETATM   32  C20 UNL     1       1.554  15.359  40.632  1.00  0.00     0.087 A 
HETATM   33  N5  UNL     1       0.870  16.036  39.714  1.00  0.00    -0.375 N 
HETATM   34  C21 UNL     1       0.893  15.596  38.444  1.00  0.00     0.096 A 
ATOM     35  H5  UNL     1       0.340  16.869  39.968  1.00  0.00     0.164 HD
ENDBRANCH  28  29
ENDBRANCH  25  28
ENDBRANCH  24  25
ENDBRANCH  23  24
ENDBRANCH  21  23
ENDBRANCH  20  21
ENDBRANCH  19  20
ENDBRANCH   1  19
TORSDOF 17
ENDMDL
MODEL 3
REMARK VINA RESULT: -7.504691300      1.216      1.423
REMARK  17 active torsions:
REMARK  status: ('A' for Active; 'I' for Inactive)
REMARK    1  A    between atoms: C4_4  and  C5_5 
REMARK    2  A    between atoms: C5_5  and  N1_6 
REMARK    3  A    between atoms: N1_6  and  C6_9 
REMARK    4  A    between atoms: C6_9  and  C7_10 
REMARK    5  A    between atoms: C7_10  and  C8_11 
REMARK    6  A    between atoms: C8_11  and  C9_12 
REMARK    7  A    between atoms: C9_12  and  N2_13 
REMARK    8  A    between atoms: N2_13  and  C10_15 
REMARK    9  A    between atoms: C10_15  and  C11_16 
REMARK   10  A    between atoms: C11_16  and  C12_17 
REMARK   11  A    between atoms: C12_17  and  C13_18 
REMARK   12  A    between atoms: C13_18  and  N3_19 
REMARK   13  A    between atoms: N3_19  and  C14_21 
REMARK   14  A    between atoms: C14_21  and  C15_22 
REMARK   15  A    between atoms: C15_22  and  N4_23 
REMARK   16  A    between atoms: N4_23  and  C16_26 
REMARK   17  A    between atoms: C16_26  and  C17_27 
ROOT
HETATM    1  C11 UNL     1      -1.371  18.613  30.806  1.00  0.00     0.021 C 
ENDROOT
BRANCH   1   2
HETATM    2  C10 UNL     1      -2.292  19.416  29.939  1.00  0.00     0.113 C 
BRANCH   2   3
HETATM    3  N2  UNL     1      -3.478  18.691  29.633  1.00  0.00    -0.421 N 
ATOM      4  H2  UNL     1      -3.982  18.162  30.345  1.00  0.00     0.153 HD
BRANCH   3   5
HETATM    5  C9  UNL     1      -3.927  18.741  28.278  1.00  0.00     0.113 C 
BRANCH   5   6
HETATM    6  C8  UNL     1      -2.672  19.090  27.447  1.00  0.00     0.021 C 
BRANCH   6   7
HETATM    7  C7  UNL     1      -3.178  19.939  26.297  1.00  0.00     0.029 C 
BRANCH   7   8
HETATM    8  C6  UNL     1      -4.292  20.855  26.667  1.00  0.00     0.232 C 
BRANCH   8   9
HETATM    9  N1  UNL     1      -3.888  22.234  26.850  1.00  0.00    -0.071 N 
ATOM     10  H12 UNL     1      -4.521  22.894  26.397  1.00  0.00     0.277 HD
ATOM     11  H11 UNL     1      -3.045  22.471  26.327  1.00  0.00     0.277 HD
BRANCH   9  12
HETATM   12  C5  UNL     1      -3.752  22.477  28.268  1.00  0.00     0.270 C 
BRANCH  12  13
HETATM   13  C4  UNL     1      -2.760  23.518  28.572  1.00  0.00    -0.033 A 
HETATM   14  C3  UNL     1      -3.181  24.696  29.146  1.00  0.00     0.009 A 
HETATM   15  C2  UNL     1      -2.281  25.721  29.447  1.00  0.00     0.001 A 
HETATM   16  C1  UNL     1      -0.953  25.512  29.150  1.00  0.00     0.000 A 
HETATM   17  C23 UNL     1      -0.519  24.346  28.579  1.00  0.00     0.001 A 
HETATM   18  C22 UNL     1      -1.434  23.337  28.288  1.00  0.00     0.009 A 
ENDBRANCH  12  13
ENDBRANCH   9  12
ENDBRANCH   8   9
ENDBRANCH   7   8
ENDBRANCH   6   7
ENDBRANCH   5   6
ENDBRANCH   3   5
ENDBRANCH   2   3
ENDBRANCH   1   2
BRANCH   1  19
HETATM   19  C12 UNL     1      -0.901  17.324  30.120  1.00  0.00     0.021 C 
BRANCH  19  20
HETATM   20  C13 UNL     1       0.541  17.155  30.493  1.00  0.00     0.113 C 
BRANCH  20  21
HETATM   21  N3  UNL     1       0.827  17.104  31.882  1.00  0.00    -0.420 N 
ATOM     22  H3  UNL     1       1.284  17.878  32.364  1.00  0.00     0.153 HD
BRANCH  21  23
HETATM   23  C14 UNL     1       0.441  15.906  32.572  1.00  0.00     0.141 C 
BRANCH  23  24
HETATM   24  C15 UNL     1       1.626  14.999  32.805  1.00  0.00     0.251 C 
BRANCH  24  25
HETATM   25  N4  UNL     1       1.735  14.534  34.159  1.00  0.00    -0.070 N 
ATOM     26  H42 UNL     1       1.284  13.630  34.296  1.00  0.00     0.277 HD
ATOM     27  H41 UNL     1       2.687  14.257  34.398  1.00  0.00     0.277 HD
BRANCH  25  28
HETATM   28  C16 UNL     1       1.217  15.550  35.052  1.00  0.00     0.272 C 
BRANCH  28  29
HETATM   29  C17 UNL     1       1.358  15.099  36.480  1.00  0.00    -0.017 A 
HETATM   30  C18 UNL     1       1.229  16.028  37.484  1.00  0.00     0.011 A 
HETATM   31  C19 UNL     1       1.364  15.612  38.775  1.00  0.00     0.018 A 
HETATM   32  C20 UNL     1       1.623  14.288  39.044  1.00  0.00     0.087 A 
HETATM   33  N5  UNL     1       1.747  13.389  38.072  1.00  0.00    -0.375 N 
HETATM   34  C21 UNL     1       1.614  13.799  36.799  1.00  0.00     0.096 A 
ATOM     35  H5  UNL     1       1.939  12.412  38.289  1.00  0.00     0.164 HD
ENDBRANCH  28  29
ENDBRANCH  25  28
ENDBRANCH  24  25
ENDBRANCH  23  24
ENDBRANCH  21  23
ENDBRANCH  20  21
ENDBRANCH  19  20
ENDBRANCH   1  19
TORSDOF 17
ENDMDL
MODEL 4
REMARK VINA RESULT: -7.354437356      1.678      2.791
REMARK  17 active torsions:
REMARK  status: ('A' for Active; 'I' for Inactive)
REMARK    1  A    between atoms: C4_4  and  C5_5 
REMARK    2  A    between atoms: C5_5  and  N1_6 
REMARK    3  A    between atoms: N1_6  and  C6_9 
REMARK    4  A    between atoms: C6_9  and  C7_10 
REMARK    5  A    between atoms: C7_10  and  C8_11 
REMARK    6  A    between atoms: C8_11  and  C9_12 
REMARK    7  A    between atoms: C9_12  and  N2_13 
REMARK    8  A    between atoms: N2_13  and  C10_15 
REMARK    9  A    between atoms: C10_15  and  C11_16 
REMARK   10  A    between atoms: C11_16  and  C12_17 
REMARK   11  A    between atoms: C12_17  and  C13_18 
REMARK   12  A    between atoms: C13_18  and  N3_19 
REMARK   13  A    between atoms: N3_19  and  C14_21 
REMARK   14  A    between atoms: C14_21  and  C15_22 
REMARK   15  A    between atoms: C15_22  and  N4_23 
REMARK   16  A    between atoms: N4_23  and  C16_26 
REMARK   17  A    between atoms: C16_26  and  C17_27 
ROOT
HETATM    1  C11 UNL     1       0.525  16.396  31.226  1.00  0.00     0.021 C 
ENDROOT
BRANCH   1   2
HETATM    2  C10 UNL     1      -0.154  17.566  31.869  1.00  0.00     0.113 C 
BRANCH   2   3
HETATM    3  N2  UNL     1      -0.850  18.353  30.907  1.00  0.00    -0.421 N 
ATOM      4  H2  UNL     1      -1.402  19.167  31.179  1.00  0.00     0.153 HD
BRANCH   3   5
HETATM    5  C9  UNL     1      -0.736  17.945  29.543  1.00  0.00     0.113 C 
BRANCH   5   6
HETATM    6  C8  UNL     1      -2.095  17.292  29.201  1.00  0.00     0.021 C 
BRANCH   6   7
HETATM    7  C7  UNL     1      -2.157  17.270  27.686  1.00  0.00     0.029 C 
BRANCH   7   8
HETATM    8  C6  UNL     1      -2.541  18.574  27.078  1.00  0.00     0.232 C 
BRANCH   8   9
HETATM    9  N1  UNL     1      -3.610  19.260  27.774  1.00  0.00    -0.071 N 
ATOM     10  H12 UNL     1      -3.492  19.249  28.787  1.00  0.00     0.277 HD
ATOM     11  H11 UNL     1      -4.495  18.753  27.734  1.00  0.00     0.277 HD
BRANCH   9  12
HETATM   12  C5  UNL     1      -3.708  20.598  27.238  1.00  0.00     0.270 C 
BRANCH  12  13
HETATM   13  C4  UNL     1      -3.295  21.626  28.204  1.00  0.00    -0.033 A 
HETATM   14  C3  UNL     1      -3.303  22.947  27.820  1.00  0.00     0.009 A 
HETATM   15  C2  UNL     1      -2.912  23.963  28.695  1.00  0.00     0.001 A 
HETATM   16  C1  UNL     1      -2.517  23.596  29.962  1.00  0.00     0.000 A 
HETATM   17  C23 UNL     1      -2.503  22.285  30.360  1.00  0.00     0.001 A 
HETATM   18  C22 UNL     1      -2.898  21.290  29.470  1.00  0.00     0.009 A 
ENDBRANCH  12  13
ENDBRANCH   9  12
ENDBRANCH   8   9
ENDBRANCH   7   8
ENDBRANCH   6   7
ENDBRANCH   5   6
ENDBRANCH   3   5
ENDBRANCH   2   3
ENDBRANCH   1   2
BRANCH   1  19
HETATM   19  C12 UNL     1       0.454  15.133  32.093  1.00  0.00     0.021 C 
BRANCH  19  20
HETATM   20  C13 UNL     1       1.576  15.241  33.082  1.00  0.00     0.113 C 
BRANCH  20  21
HETATM   21  N3  UNL     1       2.839  15.616  32.558  1.00  0.00    -0.420 N 
ATOM     22  H3  UNL     1       3.242  15.150  31.745  1.00  0.00     0.153 HD
BRANCH  21  23
HETATM   23  C14 UNL     1       3.520  16.687  33.229  1.00  0.00     0.141 C 
BRANCH  23  24
HETATM   24  C15 UNL     1       2.658  17.295  34.309  1.00  0.00     0.251 C 
BRANCH  24  25
HETATM   25  N4  UNL     1       3.337  17.453  35.564  1.00  0.00    -0.070 N 
ATOM     26  H42 UNL     1       4.082  18.148  35.518  1.00  0.00     0.277 HD
ATOM     27  H41 UNL     1       2.755  17.913  36.265  1.00  0.00     0.277 HD
BRANCH  25  28
HETATM   28  C16 UNL     1       3.817  16.160  36.009  1.00  0.00     0.272 C 
BRANCH  28  29
HETATM   29  C17 UNL     1       2.756  15.473  36.825  1.00  0.00    -0.017 A 
HETATM   30  C18 UNL     1       2.127  16.178  37.822  1.00  0.00     0.011 A 
HETATM   31  C19 UNL     1       1.171  15.546  38.560  1.00  0.00     0.018 A 
HETATM   32  C20 UNL     1       0.859  14.233  38.296  1.00  0.00     0.087 A 
HETATM   33  N5  UNL     1       1.468  13.551  37.331  1.00  0.00    -0.375 N 
HETATM   34  C21 UNL     1       2.411  14.174  36.603  1.00  0.00     0.096 A 
ATOM     35  H5  UNL     1       1.225  12.577  37.148  1.00  0.00     0.164 HD
ENDBRANCH  28  29
ENDBRANCH  25  28
ENDBRANCH  24  25
ENDBRANCH  23  24
ENDBRANCH  21  23
ENDBRANCH  20  21
ENDBRANCH  19  20
ENDBRANCH   1  19
TORSDOF 17
ENDMDL
MODEL 5
REMARK VINA RESULT: -7.332248379      1.856      2.887
REMARK  17 active torsions:
REMARK  status: ('A' for Active; 'I' for Inactive)
REMARK    1  A    between atoms: C4_4  and  C5_5 
REMARK    2  A    between atoms: C5_5  and  N1_6 
REMARK    3  A    between atoms: N1_6  and  C6_9 
REMARK    4  A    between atoms: C6_9  and  C7_10 
REMARK    5  A    between atoms: C7_10  and  C8_11 
REMARK    6  A    between atoms: C8_11  and  C9_12 
REMARK    7  A    between atoms: C9_12  and  N2_13 
REMARK    8  A    between atoms: N2_13  and  C10_15 
REMARK    9  A    between atoms: C10_15  and  C11_16 
REMARK   10  A    between atoms: C11_16  and  C12_17 
REMARK   11  A    between atoms: C12_17  and  C13_18 
REMARK   12  A    between atoms: C13_18  and  N3_19 
REMARK   13  A    between atoms: N3_19  and  C14_21 
REMARK   14  A    between atoms: C14_21  and  C15_22 
REMARK   15  A    between atoms: C15_22  and  N4_23 
REMARK   16  A    between atoms: N4_23  and  C16_26 
REMARK   17  A    between atoms: C16_26  and  C17_27 
ROOT
HETATM    1  C11 UNL     1       0.335  17.331  31.257  1.00  0.00     0.021 C 
ENDROOT
BRANCH   1   2
HETATM    2  C10 UNL     1      -0.376  17.959  30.099  1.00  0.00     0.113 C 
BRANCH   2   3
HETATM    3  N2  UNL     1      -1.573  18.608  30.516  1.00  0.00    -0.421 N 
ATOM      4  H2  UNL     1      -1.605  19.185  31.357  1.00  0.00     0.153 HD
BRANCH   3   5
HETATM    5  C9  UNL     1      -2.727  18.411  29.699  1.00  0.00     0.113 C 
BRANCH   5   6
HETATM    6  C8  UNL     1      -2.219  17.639  28.459  1.00  0.00     0.021 C 
BRANCH   6   7
HETATM    7  C7  UNL     1      -2.406  18.590  27.293  1.00  0.00     0.029 C 
BRANCH   7   8
HETATM    8  C6  UNL     1      -3.293  19.748  27.595  1.00  0.00     0.232 C 
BRANCH   8   9
HETATM    9  N1  UNL     1      -2.672  21.040  27.385  1.00  0.00    -0.071 N 
ATOM     10  H12 UNL     1      -2.282  21.142  26.448  1.00  0.00     0.277 HD
ATOM     11  H11 UNL     1      -1.802  21.148  27.907  1.00  0.00     0.277 HD
BRANCH   9  12
HETATM   12  C5  UNL     1      -3.644  22.061  27.700  1.00  0.00     0.270 C 
BRANCH  12  13
HETATM   13  C4  UNL     1      -3.168  22.997  28.729  1.00  0.00    -0.033 A 
HETATM   14  C3  UNL     1      -2.588  22.496  29.872  1.00  0.00     0.009 A 
HETATM   15  C2  UNL     1      -2.127  23.340  30.885  1.00  0.00     0.001 A 
HETATM   16  C1  UNL     1      -2.272  24.697  30.700  1.00  0.00     0.000 A 
HETATM   17  C23 UNL     1      -2.847  25.211  29.568  1.00  0.00     0.001 A 
HETATM   18  C22 UNL     1      -3.299  24.350  28.571  1.00  0.00     0.009 A 
ENDBRANCH  12  13
ENDBRANCH   9  12
ENDBRANCH   8   9
ENDBRANCH   7   8
ENDBRANCH   6   7
ENDBRANCH   5   6
ENDBRANCH   3   5
ENDBRANCH   2   3
ENDBRANCH   1   2
BRANCH   1  19
HETATM   19  C12 UNL     1       0.431  15.806  31.125  1.00  0.00     0.021 C 
BRANCH  19  20
HETATM   20  C13 UNL     1       1.722  15.410  31.777  1.00  0.00     0.113 C 
BRANCH  20  21
HETATM   21  N3  UNL     1       1.620  14.538  32.891  1.00  0.00    -0.420 N 
ATOM     22  H3  UNL     1       1.560  13.527  32.776  1.00  0.00     0.153 HD
BRANCH  21  23
HETATM   23  C14 UNL     1       1.606  15.153  34.188  1.00  0.00     0.141 C 
BRANCH  23  24
HETATM   24  C15 UNL     1       0.260  14.997  34.855  1.00  0.00     0.251 C 
BRANCH  24  25
HETATM   25  N4  UNL     1       0.311  14.249  36.080  1.00  0.00    -0.070 N 
ATOM     26  H42 UNL     1      -0.265  14.665  36.812  1.00  0.00     0.277 HD
ATOM     27  H41 UNL     1      -0.172  13.354  36.009  1.00  0.00     0.277 HD
BRANCH  25  28
HETATM   28  C16 UNL     1       1.694  14.099  36.486  1.00  0.00     0.272 C 
BRANCH  28  29
HETATM   29  C17 UNL     1       1.843  14.454  37.940  1.00  0.00    -0.017 A 
HETATM   30  C18 UNL     1       1.010  15.406  38.478  1.00  0.00     0.011 A 
HETATM   31  C19 UNL     1       1.155  15.726  39.795  1.00  0.00     0.018 A 
HETATM   32  C20 UNL     1       2.119  15.099  40.549  1.00  0.00     0.087 A 
HETATM   33  N5  UNL     1       2.925  14.178  40.029  1.00  0.00    -0.375 N 
HETATM   34  C21 UNL     1       2.782  13.862  38.730  1.00  0.00     0.096 A 
ATOM     35  H5  UNL     1       3.635  13.723  40.602  1.00  0.00     0.164 HD
ENDBRANCH  28  29
ENDBRANCH  25  28
ENDBRANCH  24  25
ENDBRANCH  23  24
ENDBRANCH  21  23
ENDBRANCH  20  21
ENDBRANCH  19  20
ENDBRANCH   1  19
TORSDOF 17
ENDMDL
