MODEL 1
REMARK VINA RESULT: -10.214058926      0.000      0.000
REMARK  19 active torsions:
REMARK  status: ('A' for Active; 'I' for Inactive)
REMARK    1  A    between atoms: N1_1  and  C1_4 
REMARK    2  A    between atoms: C2_7  and  N3_8 
REMARK    3  A    between atoms: C3_13  and  N5_14 
REMARK    4  A    between atoms: N5_14  and  C4_16 
REMARK    5  A    between atoms: C4_16  and  C5_17 
REMARK       I    between atoms: C5_17  and  N6_19 
REMARK    6  A    between atoms: N6_19  and  C6_21 
REMARK    7  A    between atoms: C6_21  and  C7_22 
REMARK    8  A    between atoms: C7_22  and  N7_23 
REMARK    9  A    between atoms: C7_22  and  C11_34 
REMARK       I    between atoms: N7_23  and  C8_25 
REMARK   10  A    between atoms: C8_25  and  C9_27 
REMARK   11  A    between atoms: C9_27  and  N8_28 
REMARK   12  A    between atoms: C9_27  and  C10_32 
REMARK       I    between atoms: C11_34  and  N9_36 
REMARK   13  A    between atoms: N9_36  and  C12_38 
REMARK   14  A    between atoms: C12_38  and  C13_39 
REMARK   15  A    between atoms: C14_40  and  C15_41 
REMARK   16  A    between atoms: C15_41  and  O5_43 
REMARK   17  A    between atoms: O5_43  and  N10_44 
REMARK   18  A    between atoms: N12_50  and  C17_51 
REMARK   19  A    between atoms: C17_51  and  C18_52 
ROOT
HETATM    1  C7  UNL     1      -0.204 -46.377 -28.753  1.00  0.00     0.194 C 
ENDROOT
BRANCH   1   2
HETATM    2  C6  UNL     1       0.823 -46.142 -29.810  1.00  0.00     0.157 C 
BRANCH   2   3
HETATM    3  N6  UNL     1       2.068 -45.594 -29.378  1.00  0.00    -0.357 N 
HETATM    4  C5  UNL     1       3.181 -46.449 -29.277  1.00  0.00     0.235 C 
HETATM    5  O1  UNL     1       3.096 -47.651 -29.554  1.00  0.00    -0.272 OA
ATOM      6  H6  UNL     1       2.150 -44.603 -29.148  1.00  0.00     0.162 HD
BRANCH   4   7
HETATM    7  C4  UNL     1       4.503 -45.886 -28.822  1.00  0.00     0.240 C 
BRANCH   7   8
HETATM    8  N5  UNL     1       4.652 -45.982 -27.416  1.00  0.00    -0.216 N 
ATOM      9  H5  UNL     1       4.171 -45.263 -26.876  1.00  0.00     0.178 HD
BRANCH   8  10
HETATM   10  C3  UNL     1       5.295 -46.831 -26.735  1.00  0.00     0.707 A 
HETATM   11  N4  UNL     1       5.660 -48.024 -27.277  1.00  0.00    -0.022 N 
HETATM   12  C2  UNL     1       6.336 -48.938 -26.578  1.00  0.00     0.705 A 
ATOM     13  H4  UNL     1       5.409 -48.226 -28.244  1.00  0.00     0.203 HD
HETATM   14  N2  UNL     1       6.696 -48.718 -25.286  1.00  0.00    -0.022 N 
HETATM   15  C1  UNL     1       6.336 -47.553 -24.771  1.00  0.00     0.705 A 
ATOM     16  H2  UNL     1       7.214 -49.411 -24.744  1.00  0.00     0.203 HD
HETATM   17  N14 UNL     1       5.648 -46.619 -25.472  1.00  0.00    -0.022 N 
ATOM     18  H14 UNL     1       5.397 -45.739 -25.021  1.00  0.00     0.203 HD
BRANCH  12  19
HETATM   19  N3  UNL     1       6.669 -50.062 -27.121  1.00  0.00    -0.234 N 
ATOM     20  H32 UNL     1       7.506 -50.128 -27.701  1.00  0.00     0.174 HD
ATOM     21  H31 UNL     1       6.074 -50.873 -26.952  1.00  0.00     0.174 HD
ENDBRANCH  12  19
BRANCH  15  22
HETATM   22  N1  UNL     1       6.672 -47.324 -23.545  1.00  0.00    -0.234 N 
ATOM     23  H12 UNL     1       7.640 -47.100 -23.313  1.00  0.00     0.174 HD
ATOM     24  H11 UNL     1       5.934 -47.382 -22.843  1.00  0.00     0.174 HD
ENDBRANCH  15  22
ENDBRANCH   8  10
ENDBRANCH   7   8
ENDBRANCH   4   7
ENDBRANCH   2   3
ENDBRANCH   1   2
BRANCH   1  25
HETATM   25  N7  UNL     1      -0.840 -47.666 -28.789  1.00  0.00    -0.344 N 
HETATM   26  C8  UNL     1      -2.233 -47.910 -28.784  1.00  0.00     0.249 C 
HETATM   27  O2  UNL     1      -3.028 -46.950 -28.758  1.00  0.00    -0.271 OA
ATOM     28  H7  UNL     1      -0.229 -48.482 -28.821  1.00  0.00     0.163 HD
BRANCH  26  29
HETATM   29  C9  UNL     1      -2.784 -49.291 -28.808  1.00  0.00     0.284 C 
BRANCH  29  30
HETATM   30  N8  UNL     1      -1.923 -50.236 -29.448  1.00  0.00    -0.066 N 
ATOM     31  H83 UNL     1      -1.072 -49.783 -29.781  1.00  0.00     0.275 HD
ATOM     32  H82 UNL     1      -1.518 -50.876 -28.765  1.00  0.00     0.275 HD
ATOM     33  H81 UNL     1      -2.376 -50.753 -30.202  1.00  0.00     0.275 HD
ENDBRANCH  29  30
BRANCH  29  34
HETATM   34  C10 UNL     1      -4.085 -49.265 -29.631  1.00  0.00     0.128 C 
HETATM   35  S1  UNL     1      -5.525 -49.051 -28.577  1.00  0.00    -0.095 SA
ENDBRANCH  29  34
ENDBRANCH  26  29
ENDBRANCH   1  25
BRANCH   1  36
HETATM   36  C11 UNL     1       0.143 -45.980 -27.394  1.00  0.00     0.246 C 
HETATM   37  O3  UNL     1       1.174 -46.465 -26.829  1.00  0.00    -0.271 OA
HETATM   38  N9  UNL     1      -0.619 -45.055 -26.614  1.00  0.00    -0.333 N 
ATOM     39  H9  UNL     1      -1.443 -44.630 -27.040  1.00  0.00     0.168 HD
BRANCH  38  40
HETATM   40  C12 UNL     1      -0.299 -44.700 -25.297  1.00  0.00     0.123 C 
BRANCH  40  41
HETATM   41  C13 UNL     1       0.059 -43.356 -24.846  1.00  0.00     0.084 A 
HETATM   42  C14 UNL     1       1.406 -42.907 -25.069  1.00  0.00     0.139 A 
HETATM   43  N11 UNL     1       1.439 -41.685 -24.549  1.00  0.00    -0.345 N 
HETATM   44  C16 UNL     1       0.291 -41.334 -24.037  1.00  0.00     0.184 A 
ATOM     45  H11 UNL     1       2.267 -41.088 -24.550  1.00  0.00     0.167 HD
HETATM   46  N12 UNL     1      -0.589 -42.385 -24.217  1.00  0.00    -0.334 N 
BRANCH  42  47
HETATM   47  C15 UNL     1       2.476 -43.659 -25.701  1.00  0.00     0.333 C 
HETATM   48  O4  UNL     1       2.796 -43.586 -26.899  1.00  0.00    -0.256 OA
BRANCH  47  49
HETATM   49  O5  UNL     1       3.244 -44.561 -24.938  1.00  0.00    -0.201 OA
BRANCH  49  50
HETATM   50  N10 UNL     1       2.656 -45.710 -24.482  1.00  0.00    -0.302 N 
ATOM     51 2H10 UNL     1       2.154 -46.311 -25.135  1.00  0.00     0.184 HD
ATOM     52 1H10 UNL     1       2.732 -45.943 -23.492  1.00  0.00     0.184 HD
ENDBRANCH  49  50
ENDBRANCH  47  49
ENDBRANCH  42  47
BRANCH  46  53
HETATM   53  C17 UNL     1      -1.930 -42.351 -23.670  1.00  0.00     0.187 C 
BRANCH  53  54
HETATM   54  C18 UNL     1      -2.439 -40.931 -23.647  1.00  0.00     0.028 A 
HETATM   55  C19 UNL     1      -1.950 -40.055 -22.676  1.00  0.00     0.027 A 
HETATM   56  C20 UNL     1      -2.367 -38.748 -22.576  1.00  0.00     0.015 A 
HETATM   57  C21 UNL     1      -3.306 -38.270 -23.464  1.00  0.00    -0.009 A 
HETATM   58  C22 UNL     1      -3.766 -36.968 -23.413  1.00  0.00     0.013 A 
HETATM   59  C26 UNL     1      -3.781 -39.159 -24.423  1.00  0.00     0.042 A 
HETATM   60  C23 UNL     1      -4.707 -36.484 -24.295  1.00  0.00     0.001 A 
HETATM   61  C24 UNL     1      -5.187 -37.354 -25.252  1.00  0.00     0.002 A 
HETATM   62  C25 UNL     1      -4.728 -38.661 -25.306  1.00  0.00     0.030 A 
HETATM   63  N13 UNL     1      -3.345 -40.445 -24.494  1.00  0.00    -0.358 N 
ATOM     64  H13 UNL     1      -3.724 -41.057 -25.217  1.00  0.00     0.166 HD
ENDBRANCH  53  54
ENDBRANCH  46  53
ENDBRANCH  40  41
ENDBRANCH  38  40
ENDBRANCH   1  36
TORSDOF 19
ENDMDL
MODEL 2
REMARK VINA RESULT: -10.161051435      2.868      6.432
REMARK  19 active torsions:
REMARK  status: ('A' for Active; 'I' for Inactive)
REMARK    1  A    between atoms: N1_1  and  C1_4 
REMARK    2  A    between atoms: C2_7  and  N3_8 
REMARK    3  A    between atoms: C3_13  and  N5_14 
REMARK    4  A    between atoms: N5_14  and  C4_16 
REMARK    5  A    between atoms: C4_16  and  C5_17 
REMARK       I    between atoms: C5_17  and  N6_19 
REMARK    6  A    between atoms: N6_19  and  C6_21 
REMARK    7  A    between atoms: C6_21  and  C7_22 
REMARK    8  A    between atoms: C7_22  and  N7_23 
REMARK    9  A    between atoms: C7_22  and  C11_34 
REMARK       I    between atoms: N7_23  and  C8_25 
REMARK   10  A    between atoms: C8_25  and  C9_27 
REMARK   11  A    between atoms: C9_27  and  N8_28 
REMARK   12  A    between atoms: C9_27  and  C10_32 
REMARK       I    between atoms: C11_34  and  N9_36 
REMARK   13  A    between atoms: N9_36  and  C12_38 
REMARK   14  A    between atoms: C12_38  and  C13_39 
REMARK   15  A    between atoms: C14_40  and  C15_41 
REMARK   16  A    between atoms: C15_41  and  O5_43 
REMARK   17  A    between atoms: O5_43  and  N10_44 
REMARK   18  A    between atoms: N12_50  and  C17_51 
REMARK   19  A    between atoms: C17_51  and  C18_52 
ROOT
HETATM    1  C7  UNL     1       2.476 -45.861 -25.388  1.00  0.00     0.194 C 
ENDROOT
BRANCH   1   2
HETATM    2  C6  UNL     1       2.365 -45.169 -26.705  1.00  0.00     0.157 C 
BRANCH   2   3
HETATM    3  N6  UNL     1       1.678 -45.874 -27.740  1.00  0.00    -0.357 N 
HETATM    4  C5  UNL     1       0.274 -45.798 -27.786  1.00  0.00     0.235 C 
HETATM    5  O1  UNL     1      -0.364 -45.138 -26.958  1.00  0.00    -0.272 OA
ATOM      6  H6  UNL     1       2.194 -46.420 -28.430  1.00  0.00     0.162 HD
BRANCH   4   7
HETATM    7  C4  UNL     1      -0.467 -46.537 -28.872  1.00  0.00     0.240 C 
BRANCH   7   8
HETATM    8  N5  UNL     1      -1.840 -46.681 -28.557  1.00  0.00    -0.216 N 
ATOM      9  H5  UNL     1      -2.289 -45.852 -28.168  1.00  0.00     0.178 HD
BRANCH   8  10
HETATM   10  C3  UNL     1      -2.590 -47.690 -28.689  1.00  0.00     0.707 A 
HETATM   11  N4  UNL     1      -2.071 -48.905 -29.013  1.00  0.00    -0.022 N 
HETATM   12  C2  UNL     1      -2.841 -49.985 -29.161  1.00  0.00     0.705 A 
ATOM     13  H4  UNL     1      -1.064 -48.993 -29.146  1.00  0.00     0.203 HD
HETATM   14  N2  UNL     1      -4.189 -49.921 -28.993  1.00  0.00    -0.022 N 
HETATM   15  C1  UNL     1      -4.682 -48.734 -28.677  1.00  0.00     0.705 A 
ATOM     16  H2  UNL     1      -4.786 -50.742 -29.104  1.00  0.00     0.203 HD
HETATM   17  N14 UNL     1      -3.908 -47.632 -28.526  1.00  0.00    -0.022 N 
ATOM     18  H14 UNL     1      -4.345 -46.743 -28.282  1.00  0.00     0.203 HD
BRANCH  12  19
HETATM   19  N3  UNL     1      -2.318 -51.124 -29.468  1.00  0.00    -0.234 N 
ATOM     20  H32 UNL     1      -2.551 -51.961 -28.933  1.00  0.00     0.174 HD
ATOM     21  H31 UNL     1      -1.670 -51.161 -30.256  1.00  0.00     0.174 HD
ENDBRANCH  12  19
BRANCH  15  22
HETATM   22  N1  UNL     1      -5.960 -48.655 -28.509  1.00  0.00    -0.234 N 
ATOM     23  H12 UNL     1      -6.491 -47.912 -28.965  1.00  0.00     0.174 HD
ATOM     24  H11 UNL     1      -6.393 -49.358 -27.911  1.00  0.00     0.174 HD
ENDBRANCH  15  22
ENDBRANCH   8  10
ENDBRANCH   7   8
ENDBRANCH   4   7
ENDBRANCH   2   3
ENDBRANCH   1   2
BRANCH   1  25
HETATM   25  N7  UNL     1       3.765 -46.428 -25.097  1.00  0.00    -0.344 N 
HETATM   26  C8  UNL     1       4.625 -47.063 -26.022  1.00  0.00     0.249 C 
HETATM   27  O2  UNL     1       4.285 -47.158 -27.218  1.00  0.00    -0.271 OA
ATOM     28  H7  UNL     1       4.090 -46.365 -24.132  1.00  0.00     0.163 HD
BRANCH  26  29
HETATM   29  C9  UNL     1       5.936 -47.631 -25.608  1.00  0.00     0.284 C 
BRANCH  29  30
HETATM   30  N8  UNL     1       6.735 -46.720 -24.849  1.00  0.00    -0.066 N 
ATOM     31  H83 UNL     1       6.737 -45.795 -25.279  1.00  0.00     0.275 HD
ATOM     32  H82 UNL     1       6.283 -46.493 -23.964  1.00  0.00     0.275 HD
ATOM     33  H81 UNL     1       7.688 -47.048 -24.693  1.00  0.00     0.275 HD
ENDBRANCH  29  30
BRANCH  29  34
HETATM   34  C10 UNL     1       6.736 -47.949 -26.884  1.00  0.00     0.128 C 
HETATM   35  S1  UNL     1       6.799 -49.717 -27.196  1.00  0.00    -0.095 SA
ENDBRANCH  29  34
ENDBRANCH  26  29
ENDBRANCH   1  25
BRANCH   1  36
HETATM   36  C11 UNL     1       1.910 -45.176 -24.232  1.00  0.00     0.246 C 
HETATM   37  O3  UNL     1       2.187 -45.570 -23.055  1.00  0.00    -0.271 OA
HETATM   38  N9  UNL     1       1.028 -44.054 -24.322  1.00  0.00    -0.333 N 
ATOM     39  H9  UNL     1       0.797 -43.696 -25.250  1.00  0.00     0.168 HD
BRANCH  38  40
HETATM   40  C12 UNL     1       0.463 -43.418 -23.209  1.00  0.00     0.123 C 
BRANCH  40  41
HETATM   41  C13 UNL     1      -0.961 -43.144 -23.023  1.00  0.00     0.084 A 
HETATM   42  C14 UNL     1      -1.668 -43.899 -22.025  1.00  0.00     0.139 A 
HETATM   43  N11 UNL     1      -2.918 -43.454 -22.095  1.00  0.00    -0.345 N 
HETATM   44  C16 UNL     1      -3.063 -42.531 -23.006  1.00  0.00     0.184 A 
ATOM     45  H11 UNL     1      -3.677 -43.794 -21.504  1.00  0.00     0.167 HD
HETATM   46  N12 UNL     1      -1.833 -42.329 -23.602  1.00  0.00    -0.334 N 
BRANCH  42  47
HETATM   47  C15 UNL     1      -1.113 -44.931 -21.166  1.00  0.00     0.333 C 
HETATM   48  O4  UNL     1      -0.875 -44.806 -19.953  1.00  0.00    -0.256 OA
BRANCH  47  49
HETATM   49  O5  UNL     1      -0.799 -46.195 -21.703  1.00  0.00    -0.201 OA
BRANCH  49  50
HETATM   50  N10 UNL     1       0.292 -46.866 -21.222  1.00  0.00    -0.302 N 
ATOM     51 2H10 UNL     1       0.762 -46.526 -20.383  1.00  0.00     0.184 HD
ATOM     52 1H10 UNL     1       0.616 -47.698 -21.715  1.00  0.00     0.184 HD
ENDBRANCH  49  50
ENDBRANCH  47  49
ENDBRANCH  42  47
BRANCH  46  53
HETATM   53  C17 UNL     1      -1.675 -41.431 -24.727  1.00  0.00     0.187 C 
BRANCH  53  54
HETATM   54  C18 UNL     1      -2.295 -40.093 -24.408  1.00  0.00     0.028 A 
HETATM   55  C19 UNL     1      -1.679 -39.272 -23.462  1.00  0.00     0.027 A 
HETATM   56  C20 UNL     1      -2.181 -38.043 -23.104  1.00  0.00     0.015 A 
HETATM   57  C21 UNL     1      -3.340 -37.590 -23.696  1.00  0.00    -0.009 A 
HETATM   58  C22 UNL     1      -3.895 -36.366 -23.376  1.00  0.00     0.013 A 
HETATM   59  C26 UNL     1      -3.939 -38.422 -24.636  1.00  0.00     0.042 A 
HETATM   60  C23 UNL     1      -5.055 -35.907 -23.961  1.00  0.00     0.001 A 
HETATM   61  C24 UNL     1      -5.660 -36.722 -24.895  1.00  0.00     0.002 A 
HETATM   62  C25 UNL     1      -5.106 -37.951 -25.218  1.00  0.00     0.030 A 
HETATM   63  N13 UNL     1      -3.413 -39.632 -24.967  1.00  0.00    -0.358 N 
ATOM     64  H13 UNL     1      -3.890 -40.205 -25.664  1.00  0.00     0.166 HD
ENDBRANCH  53  54
ENDBRANCH  46  53
ENDBRANCH  40  41
ENDBRANCH  38  40
ENDBRANCH   1  36
TORSDOF 19
ENDMDL
MODEL 3
REMARK VINA RESULT: -9.990869423      2.151      3.175
REMARK  19 active torsions:
REMARK  status: ('A' for Active; 'I' for Inactive)
REMARK    1  A    between atoms: N1_1  and  C1_4 
REMARK    2  A    between atoms: C2_7  and  N3_8 
REMARK    3  A    between atoms: C3_13  and  N5_14 
REMARK    4  A    between atoms: N5_14  and  C4_16 
REMARK    5  A    between atoms: C4_16  and  C5_17 
REMARK       I    between atoms: C5_17  and  N6_19 
REMARK    6  A    between atoms: N6_19  and  C6_21 
REMARK    7  A    between atoms: C6_21  and  C7_22 
REMARK    8  A    between atoms: C7_22  and  N7_23 
REMARK    9  A    between atoms: C7_22  and  C11_34 
REMARK       I    between atoms: N7_23  and  C8_25 
REMARK   10  A    between atoms: C8_25  and  C9_27 
REMARK   11  A    between atoms: C9_27  and  N8_28 
REMARK   12  A    between atoms: C9_27  and  C10_32 
REMARK       I    between atoms: C11_34  and  N9_36 
REMARK   13  A    between atoms: N9_36  and  C12_38 
REMARK   14  A    between atoms: C12_38  and  C13_39 
REMARK   15  A    between atoms: C14_40  and  C15_41 
REMARK   16  A    between atoms: C15_41  and  O5_43 
REMARK   17  A    between atoms: O5_43  and  N10_44 
REMARK   18  A    between atoms: N12_50  and  C17_51 
REMARK   19  A    between atoms: C17_51  and  C18_52 
ROOT
HETATM    1  C7  UNL     1      -0.152 -46.352 -28.725  1.00  0.00     0.194 C 
ENDROOT
BRANCH   1   2
HETATM    2  C6  UNL     1       0.819 -46.105 -29.830  1.00  0.00     0.157 C 
BRANCH   2   3
HETATM    3  N6  UNL     1       2.105 -45.615 -29.451  1.00  0.00    -0.357 N 
HETATM    4  C5  UNL     1       3.160 -46.534 -29.309  1.00  0.00     0.235 C 
HETATM    5  O1  UNL     1       2.992 -47.744 -29.506  1.00  0.00    -0.272 OA
ATOM      6  H6  UNL     1       2.256 -44.619 -29.288  1.00  0.00     0.162 HD
BRANCH   4   7
HETATM    7  C4  UNL     1       4.524 -46.033 -28.909  1.00  0.00     0.240 C 
BRANCH   7   8
HETATM    8  N5  UNL     1       4.696 -46.061 -27.503  1.00  0.00    -0.216 N 
ATOM      9  H5  UNL     1       4.235 -45.308 -26.991  1.00  0.00     0.178 HD
BRANCH   8  10
HETATM   10  C3  UNL     1       5.337 -46.885 -26.791  1.00  0.00     0.707 A 
HETATM   11  N4  UNL     1       5.738 -48.080 -27.301  1.00  0.00    -0.022 N 
HETATM   12  C2  UNL     1       6.414 -48.969 -26.570  1.00  0.00     0.705 A 
ATOM     13  H4  UNL     1       5.516 -48.304 -28.271  1.00  0.00     0.203 HD
HETATM   14  N2  UNL     1       6.736 -48.720 -25.273  1.00  0.00    -0.022 N 
HETATM   15  C1  UNL     1       6.340 -47.553 -24.788  1.00  0.00     0.705 A 
ATOM     16  H2  UNL     1       7.252 -49.393 -24.706  1.00  0.00     0.203 HD
HETATM   17  N14 UNL     1       5.654 -46.645 -25.522  1.00  0.00    -0.022 N 
ATOM     18  H14 UNL     1       5.375 -45.762 -25.094  1.00  0.00     0.203 HD
BRANCH  12  19
HETATM   19  N3  UNL     1       6.781 -50.095 -27.084  1.00  0.00    -0.234 N 
ATOM     20  H32 UNL     1       6.824 -50.211 -28.097  1.00  0.00     0.174 HD
ATOM     21  H31 UNL     1       7.026 -50.857 -26.451  1.00  0.00     0.174 HD
ENDBRANCH  12  19
BRANCH  15  22
HETATM   22  N1  UNL     1       6.641 -47.297 -23.558  1.00  0.00    -0.234 N 
ATOM     23  H12 UNL     1       7.473 -47.711 -23.138  1.00  0.00     0.174 HD
ATOM     24  H11 UNL     1       6.013 -46.676 -23.047  1.00  0.00     0.174 HD
ENDBRANCH  15  22
ENDBRANCH   8  10
ENDBRANCH   7   8
ENDBRANCH   4   7
ENDBRANCH   2   3
ENDBRANCH   1   2
BRANCH   1  25
HETATM   25  N7  UNL     1      -0.786 -47.643 -28.740  1.00  0.00    -0.344 N 
HETATM   26  C8  UNL     1      -2.178 -47.888 -28.758  1.00  0.00     0.249 C 
HETATM   27  O2  UNL     1      -2.975 -46.929 -28.775  1.00  0.00    -0.271 OA
ATOM     28  H7  UNL     1      -0.174 -48.458 -28.737  1.00  0.00     0.163 HD
BRANCH  26  29
HETATM   29  C9  UNL     1      -2.728 -49.271 -28.756  1.00  0.00     0.284 C 
BRANCH  29  30
HETATM   30  N8  UNL     1      -1.863 -50.227 -29.374  1.00  0.00    -0.066 N 
ATOM     31  H83 UNL     1      -1.637 -49.947 -30.328  1.00  0.00     0.275 HD
ATOM     32  H82 UNL     1      -0.931 -50.191 -28.961  1.00  0.00     0.275 HD
ATOM     33  H81 UNL     1      -2.229 -51.179 -29.353  1.00  0.00     0.275 HD
ENDBRANCH  29  30
BRANCH  29  34
HETATM   34  C10 UNL     1      -4.026 -49.263 -29.585  1.00  0.00     0.128 C 
HETATM   35  S1  UNL     1      -5.476 -49.135 -28.532  1.00  0.00    -0.095 SA
ENDBRANCH  29  34
ENDBRANCH  26  29
ENDBRANCH   1  25
BRANCH   1  36
HETATM   36  C11 UNL     1       0.262 -45.965 -27.382  1.00  0.00     0.246 C 
HETATM   37  O3  UNL     1       1.327 -46.442 -26.878  1.00  0.00    -0.271 OA
HETATM   38  N9  UNL     1      -0.469 -45.058 -26.552  1.00  0.00    -0.333 N 
ATOM     39  H9  UNL     1      -1.320 -44.640 -26.929  1.00  0.00     0.168 HD
BRANCH  38  40
HETATM   40  C12 UNL     1      -0.083 -44.714 -25.250  1.00  0.00     0.123 C 
BRANCH  40  41
HETATM   41  C13 UNL     1       0.328 -43.380 -24.815  1.00  0.00     0.084 A 
HETATM   42  C14 UNL     1       1.727 -43.054 -24.870  1.00  0.00     0.139 A 
HETATM   43  N11 UNL     1       1.797 -41.811 -24.406  1.00  0.00    -0.345 N 
HETATM   44  C16 UNL     1       0.627 -41.341 -24.073  1.00  0.00     0.184 A 
ATOM     45  H11 UNL     1       2.667 -41.285 -24.321  1.00  0.00     0.167 HD
HETATM   46  N12 UNL     1      -0.310 -42.325 -24.325  1.00  0.00    -0.334 N 
BRANCH  42  47
HETATM   47  C15 UNL     1       2.802 -43.925 -25.316  1.00  0.00     0.333 C 
HETATM   48  O4  UNL     1       3.031 -45.064 -24.878  1.00  0.00    -0.256 OA
BRANCH  47  49
HETATM   49  O5  UNL     1       3.685 -43.489 -26.323  1.00  0.00    -0.201 OA
BRANCH  49  50
HETATM   50  N10 UNL     1       4.800 -42.782 -25.964  1.00  0.00    -0.302 N 
ATOM     51 2H10 UNL     1       5.322 -42.271 -26.676  1.00  0.00     0.184 HD
ATOM     52 1H10 UNL     1       5.090 -42.781 -24.986  1.00  0.00     0.184 HD
ENDBRANCH  49  50
ENDBRANCH  47  49
ENDBRANCH  42  47
BRANCH  46  53
HETATM   53  C17 UNL     1      -1.704 -42.152 -23.969  1.00  0.00     0.187 C 
BRANCH  53  54
HETATM   54  C18 UNL     1      -1.917 -42.535 -22.526  1.00  0.00     0.028 A 
HETATM   55  C19 UNL     1      -2.415 -43.807 -22.232  1.00  0.00     0.027 A 
HETATM   56  C20 UNL     1      -2.649 -44.233 -20.946  1.00  0.00     0.015 A 
HETATM   57  C21 UNL     1      -2.386 -43.383 -19.894  1.00  0.00    -0.009 A 
HETATM   58  C22 UNL     1      -2.603 -43.753 -18.581  1.00  0.00     0.013 A 
HETATM   59  C26 UNL     1      -1.891 -42.122 -20.208  1.00  0.00     0.042 A 
HETATM   60  C23 UNL     1      -2.345 -42.907 -17.524  1.00  0.00     0.001 A 
HETATM   61  C24 UNL     1      -1.854 -41.653 -17.821  1.00  0.00     0.002 A 
HETATM   62  C25 UNL     1      -1.636 -41.278 -19.137  1.00  0.00     0.030 A 
HETATM   63  N13 UNL     1      -1.670 -41.732 -21.493  1.00  0.00    -0.358 N 
ATOM     64  H13 UNL     1      -1.305 -40.796 -21.670  1.00  0.00     0.166 HD
ENDBRANCH  53  54
ENDBRANCH  46  53
ENDBRANCH  40  41
ENDBRANCH  38  40
ENDBRANCH   1  36
TORSDOF 19
ENDMDL
MODEL 4
REMARK VINA RESULT: -9.978243712      2.148      3.377
REMARK  19 active torsions:
REMARK  status: ('A' for Active; 'I' for Inactive)
REMARK    1  A    between atoms: N1_1  and  C1_4 
REMARK    2  A    between atoms: C2_7  and  N3_8 
REMARK    3  A    between atoms: C3_13  and  N5_14 
REMARK    4  A    between atoms: N5_14  and  C4_16 
REMARK    5  A    between atoms: C4_16  and  C5_17 
REMARK       I    between atoms: C5_17  and  N6_19 
REMARK    6  A    between atoms: N6_19  and  C6_21 
REMARK    7  A    between atoms: C6_21  and  C7_22 
REMARK    8  A    between atoms: C7_22  and  N7_23 
REMARK    9  A    between atoms: C7_22  and  C11_34 
REMARK       I    between atoms: N7_23  and  C8_25 
REMARK   10  A    between atoms: C8_25  and  C9_27 
REMARK   11  A    between atoms: C9_27  and  N8_28 
REMARK   12  A    between atoms: C9_27  and  C10_32 
REMARK       I    between atoms: C11_34  and  N9_36 
REMARK   13  A    between atoms: N9_36  and  C12_38 
REMARK   14  A    between atoms: C12_38  and  C13_39 
REMARK   15  A    between atoms: C14_40  and  C15_41 
REMARK   16  A    between atoms: C15_41  and  O5_43 
REMARK   17  A    between atoms: O5_43  and  N10_44 
REMARK   18  A    between atoms: N12_50  and  C17_51 
REMARK   19  A    between atoms: C17_51  and  C18_52 
ROOT
HETATM    1  C7  UNL     1      -0.163 -46.385 -28.693  1.00  0.00     0.194 C 
ENDROOT
BRANCH   1   2
HETATM    2  C6  UNL     1       0.829 -46.196 -29.792  1.00  0.00     0.157 C 
BRANCH   2   3
HETATM    3  N6  UNL     1       2.086 -45.627 -29.426  1.00  0.00    -0.357 N 
HETATM    4  C5  UNL     1       3.198 -46.479 -29.298  1.00  0.00     0.235 C 
HETATM    5  O1  UNL     1       3.104 -47.696 -29.497  1.00  0.00    -0.272 OA
ATOM      6  H6  UNL     1       2.175 -44.624 -29.260  1.00  0.00     0.162 HD
BRANCH   4   7
HETATM    7  C4  UNL     1       4.532 -45.894 -28.911  1.00  0.00     0.240 C 
BRANCH   7   8
HETATM    8  N5  UNL     1       4.747 -45.970 -27.513  1.00  0.00    -0.216 N 
ATOM      9  H5  UNL     1       4.353 -45.202 -26.968  1.00  0.00     0.178 HD
BRANCH   8  10
HETATM   10  C3  UNL     1       5.355 -46.852 -26.842  1.00  0.00     0.707 A 
HETATM   11  N4  UNL     1       5.682 -46.633 -25.541  1.00  0.00    -0.022 N 
HETATM   12  C2  UNL     1       6.327 -47.547 -24.812  1.00  0.00     0.705 A 
ATOM     13  H4  UNL     1       5.428 -45.745 -25.108  1.00  0.00     0.203 HD
HETATM   14  N2  UNL     1       6.688 -48.747 -25.340  1.00  0.00    -0.022 N 
HETATM   15  C1  UNL     1       6.363 -48.948 -26.607  1.00  0.00     0.705 A 
ATOM     16  H2  UNL     1       7.181 -49.451 -24.790  1.00  0.00     0.203 HD
HETATM   17  N14 UNL     1       5.710 -48.026 -27.355  1.00  0.00    -0.022 N 
ATOM     18  H14 UNL     1       5.487 -48.237 -28.327  1.00  0.00     0.203 HD
BRANCH  12  19
HETATM   19  N3  UNL     1       6.623 -47.309 -23.578  1.00  0.00    -0.234 N 
ATOM     20  H32 UNL     1       6.264 -47.910 -22.835  1.00  0.00     0.174 HD
ATOM     21  H31 UNL     1       7.223 -46.510 -23.371  1.00  0.00     0.174 HD
ENDBRANCH  12  19
BRANCH  15  22
HETATM   22  N1  UNL     1       6.695 -50.084 -27.125  1.00  0.00    -0.234 N 
ATOM     23  H12 UNL     1       6.051 -50.874 -27.079  1.00  0.00     0.174 HD
ATOM     24  H11 UNL     1       7.612 -50.141 -27.567  1.00  0.00     0.174 HD
ENDBRANCH  15  22
ENDBRANCH   8  10
ENDBRANCH   7   8
ENDBRANCH   4   7
ENDBRANCH   2   3
ENDBRANCH   1   2
BRANCH   1  25
HETATM   25  N7  UNL     1      -0.843 -47.653 -28.690  1.00  0.00    -0.344 N 
HETATM   26  C8  UNL     1      -2.242 -47.848 -28.713  1.00  0.00     0.249 C 
HETATM   27  O2  UNL     1      -3.005 -46.862 -28.753  1.00  0.00    -0.271 OA
ATOM     28  H7  UNL     1      -0.260 -48.489 -28.668  1.00  0.00     0.163 HD
BRANCH  26  29
HETATM   29  C9  UNL     1      -2.842 -49.210 -28.691  1.00  0.00     0.284 C 
BRANCH  29  30
HETATM   30  N8  UNL     1      -1.990 -50.215 -29.246  1.00  0.00    -0.066 N 
ATOM     31  H83 UNL     1      -1.055 -49.843 -29.417  1.00  0.00     0.275 HD
ATOM     32  H82 UNL     1      -1.764 -50.923 -28.548  1.00  0.00     0.275 HD
ATOM     33  H81 UNL     1      -2.367 -50.647 -30.089  1.00  0.00     0.275 HD
ENDBRANCH  29  30
BRANCH  29  34
HETATM   34  C10 UNL     1      -4.107 -49.182 -29.568  1.00  0.00     0.128 C 
HETATM   35  S1  UNL     1      -5.592 -49.007 -28.573  1.00  0.00    -0.095 SA
ENDBRANCH  29  34
ENDBRANCH  26  29
ENDBRANCH   1  25
BRANCH   1  36
HETATM   36  C11 UNL     1       0.250 -45.986 -27.354  1.00  0.00     0.246 C 
HETATM   37  O3  UNL     1       1.311 -46.466 -26.841  1.00  0.00    -0.271 OA
HETATM   38  N9  UNL     1      -0.476 -45.066 -26.535  1.00  0.00    -0.333 N 
ATOM     39  H9  UNL     1      -1.323 -44.645 -26.919  1.00  0.00     0.168 HD
BRANCH  38  40
HETATM   40  C12 UNL     1      -0.091 -44.709 -25.237  1.00  0.00     0.123 C 
BRANCH  40  41
HETATM   41  C13 UNL     1       0.306 -43.368 -24.810  1.00  0.00     0.084 A 
HETATM   42  C14 UNL     1       1.700 -43.024 -24.877  1.00  0.00     0.139 A 
HETATM   43  N11 UNL     1       1.757 -41.779 -24.418  1.00  0.00    -0.345 N 
HETATM   44  C16 UNL     1       0.582 -41.323 -24.078  1.00  0.00     0.184 A 
ATOM     45  H11 UNL     1       2.620 -41.240 -24.341  1.00  0.00     0.167 HD
HETATM   46  N12 UNL     1      -0.343 -42.320 -24.319  1.00  0.00    -0.334 N 
BRANCH  42  47
HETATM   47  C15 UNL     1       2.782 -43.883 -25.327  1.00  0.00     0.333 C 
HETATM   48  O4  UNL     1       3.025 -45.020 -24.892  1.00  0.00    -0.256 OA
BRANCH  47  49
HETATM   49  O5  UNL     1       3.658 -43.435 -26.336  1.00  0.00    -0.201 OA
BRANCH  49  50
HETATM   50  N10 UNL     1       4.794 -42.763 -25.976  1.00  0.00    -0.302 N 
ATOM     51 2H10 UNL     1       4.817 -41.745 -26.035  1.00  0.00     0.184 HD
ATOM     52 1H10 UNL     1       5.601 -43.297 -25.652  1.00  0.00     0.184 HD
ENDBRANCH  49  50
ENDBRANCH  47  49
ENDBRANCH  42  47
BRANCH  46  53
HETATM   53  C17 UNL     1      -1.736 -42.164 -23.954  1.00  0.00     0.187 C 
BRANCH  53  54
HETATM   54  C18 UNL     1      -1.933 -42.540 -22.506  1.00  0.00     0.028 A 
HETATM   55  C19 UNL     1      -2.377 -43.827 -22.198  1.00  0.00     0.027 A 
HETATM   56  C20 UNL     1      -2.592 -44.250 -20.907  1.00  0.00     0.015 A 
HETATM   57  C21 UNL     1      -2.365 -43.377 -19.864  1.00  0.00    -0.009 A 
HETATM   58  C22 UNL     1      -2.565 -43.742 -18.547  1.00  0.00     0.013 A 
HETATM   59  C26 UNL     1      -1.923 -42.100 -20.193  1.00  0.00     0.042 A 
HETATM   60  C23 UNL     1      -2.343 -42.874 -17.500  1.00  0.00     0.001 A 
HETATM   61  C24 UNL     1      -1.905 -41.604 -17.811  1.00  0.00     0.002 A 
HETATM   62  C25 UNL     1      -1.703 -41.235 -19.132  1.00  0.00     0.030 A 
HETATM   63  N13 UNL     1      -1.719 -41.716 -21.482  1.00  0.00    -0.358 N 
ATOM     64  H13 UNL     1      -1.394 -40.768 -21.670  1.00  0.00     0.166 HD
ENDBRANCH  53  54
ENDBRANCH  46  53
ENDBRANCH  40  41
ENDBRANCH  38  40
ENDBRANCH   1  36
TORSDOF 19
ENDMDL
MODEL 5
REMARK VINA RESULT: -9.904609533      0.572      1.174
REMARK  19 active torsions:
REMARK  status: ('A' for Active; 'I' for Inactive)
REMARK    1  A    between atoms: N1_1  and  C1_4 
REMARK    2  A    between atoms: C2_7  and  N3_8 
REMARK    3  A    between atoms: C3_13  and  N5_14 
REMARK    4  A    between atoms: N5_14  and  C4_16 
REMARK    5  A    between atoms: C4_16  and  C5_17 
REMARK       I    between atoms: C5_17  and  N6_19 
REMARK    6  A    between atoms: N6_19  and  C6_21 
REMARK    7  A    between atoms: C6_21  and  C7_22 
REMARK    8  A    between atoms: C7_22  and  N7_23 
REMARK    9  A    between atoms: C7_22  and  C11_34 
REMARK       I    between atoms: N7_23  and  C8_25 
REMARK   10  A    between atoms: C8_25  and  C9_27 
REMARK   11  A    between atoms: C9_27  and  N8_28 
REMARK   12  A    between atoms: C9_27  and  C10_32 
REMARK       I    between atoms: C11_34  and  N9_36 
REMARK   13  A    between atoms: N9_36  and  C12_38 
REMARK   14  A    between atoms: C12_38  and  C13_39 
REMARK   15  A    between atoms: C14_40  and  C15_41 
REMARK   16  A    between atoms: C15_41  and  O5_43 
REMARK   17  A    between atoms: O5_43  and  N10_44 
REMARK   18  A    between atoms: N12_50  and  C17_51 
REMARK   19  A    between atoms: C17_51  and  C18_52 
ROOT
HETATM    1  C7  UNL     1      -0.229 -46.343 -28.687  1.00  0.00     0.194 C 
ENDROOT
BRANCH   1   2
HETATM    2  C6  UNL     1       0.755 -46.070 -29.775  1.00  0.00     0.157 C 
BRANCH   2   3
HETATM    3  N6  UNL     1       2.038 -45.593 -29.370  1.00  0.00    -0.357 N 
HETATM    4  C5  UNL     1       3.109 -46.504 -29.321  1.00  0.00     0.235 C 
HETATM    5  O1  UNL     1       2.957 -47.694 -29.621  1.00  0.00    -0.272 OA
ATOM      6  H6  UNL     1       2.175 -44.613 -29.121  1.00  0.00     0.162 HD
BRANCH   4   7
HETATM    7  C4  UNL     1       4.470 -46.017 -28.895  1.00  0.00     0.240 C 
BRANCH   7   8
HETATM    8  N5  UNL     1       4.628 -46.082 -27.488  1.00  0.00    -0.216 N 
ATOM      9  H5  UNL     1       4.137 -45.360 -26.960  1.00  0.00     0.178 HD
BRANCH   8  10
HETATM   10  C3  UNL     1       5.289 -46.905 -26.793  1.00  0.00     0.707 A 
HETATM   11  N4  UNL     1       5.693 -48.092 -27.320  1.00  0.00    -0.022 N 
HETATM   12  C2  UNL     1       6.390 -48.979 -26.607  1.00  0.00     0.705 A 
ATOM     13  H4  UNL     1       5.457 -48.311 -28.287  1.00  0.00     0.203 HD
HETATM   14  N2  UNL     1       6.731 -48.737 -25.313  1.00  0.00    -0.022 N 
HETATM   15  C1  UNL     1       6.333 -47.577 -24.813  1.00  0.00     0.705 A 
ATOM     16  H2  UNL     1       7.264 -49.409 -24.760  1.00  0.00     0.203 HD
HETATM   17  N14 UNL     1       5.625 -46.671 -25.529  1.00  0.00    -0.022 N 
ATOM     18  H14 UNL     1       5.345 -45.794 -25.089  1.00  0.00     0.203 HD
BRANCH  12  19
HETATM   19  N3  UNL     1       6.759 -50.098 -27.136  1.00  0.00    -0.234 N 
ATOM     20  H32 UNL     1       7.617 -50.151 -27.685  1.00  0.00     0.174 HD
ATOM     21  H31 UNL     1       6.172 -50.919 -26.987  1.00  0.00     0.174 HD
ENDBRANCH  12  19
BRANCH  15  22
HETATM   22  N1  UNL     1       6.652 -47.327 -23.586  1.00  0.00    -0.234 N 
ATOM     23  H12 UNL     1       7.509 -46.817 -23.375  1.00  0.00     0.174 HD
ATOM     24  H11 UNL     1       6.014 -47.664 -22.864  1.00  0.00     0.174 HD
ENDBRANCH  15  22
ENDBRANCH   8  10
ENDBRANCH   7   8
ENDBRANCH   4   7
ENDBRANCH   2   3
ENDBRANCH   1   2
BRANCH   1  25
HETATM   25  N7  UNL     1      -0.843 -47.643 -28.725  1.00  0.00    -0.344 N 
HETATM   26  C8  UNL     1      -2.231 -47.909 -28.763  1.00  0.00     0.249 C 
HETATM   27  O2  UNL     1      -3.042 -46.961 -28.777  1.00  0.00    -0.271 OA
ATOM     28  H7  UNL     1      -0.219 -48.449 -28.726  1.00  0.00     0.163 HD
BRANCH  26  29
HETATM   29  C9  UNL     1      -2.760 -49.299 -28.785  1.00  0.00     0.284 C 
BRANCH  29  30
HETATM   30  N8  UNL     1      -1.876 -50.234 -29.407  1.00  0.00    -0.066 N 
ATOM     31  H83 UNL     1      -1.697 -51.028 -28.791  1.00  0.00     0.275 HD
ATOM     32  H82 UNL     1      -2.342 -50.718 -30.174  1.00  0.00     0.275 HD
ATOM     33  H81 UNL     1      -1.000 -49.817 -29.722  1.00  0.00     0.275 HD
ENDBRANCH  29  30
BRANCH  29  34
HETATM   34  C10 UNL     1      -4.050 -49.299 -29.626  1.00  0.00     0.128 C 
HETATM   35  S1  UNL     1      -5.500 -49.013 -28.604  1.00  0.00    -0.095 SA
ENDBRANCH  29  34
ENDBRANCH  26  29
ENDBRANCH   1  25
BRANCH   1  36
HETATM   36  C11 UNL     1       0.160 -45.966 -27.334  1.00  0.00     0.246 C 
HETATM   37  O3  UNL     1       1.199 -46.471 -26.802  1.00  0.00    -0.271 OA
HETATM   38  N9  UNL     1      -0.568 -45.040 -26.523  1.00  0.00    -0.333 N 
ATOM     39  H9  UNL     1      -1.397 -44.599 -26.922  1.00  0.00     0.168 HD
BRANCH  38  40
HETATM   40  C12 UNL     1      -0.207 -44.704 -25.212  1.00  0.00     0.123 C 
BRANCH  40  41
HETATM   41  C13 UNL     1       0.198 -43.373 -24.760  1.00  0.00     0.084 A 
HETATM   42  C14 UNL     1       1.541 -42.946 -25.040  1.00  0.00     0.139 A 
HETATM   43  N11 UNL     1       1.622 -41.732 -24.506  1.00  0.00    -0.345 N 
HETATM   44  C16 UNL     1       0.506 -41.368 -23.936  1.00  0.00     0.184 A 
ATOM     45  H11 UNL     1       2.460 -41.151 -24.539  1.00  0.00     0.167 HD
HETATM   46  N12 UNL     1      -0.401 -42.399 -24.088  1.00  0.00    -0.334 N 
BRANCH  42  47
HETATM   47  C15 UNL     1       2.566 -43.709 -25.733  1.00  0.00     0.333 C 
HETATM   48  O4  UNL     1       2.837 -43.616 -26.941  1.00  0.00    -0.256 OA
BRANCH  47  49
HETATM   49  O5  UNL     1       3.343 -44.645 -25.022  1.00  0.00    -0.201 OA
BRANCH  49  50
HETATM   50  N10 UNL     1       2.725 -45.736 -24.473  1.00  0.00    -0.302 N 
ATOM     51 2H10 UNL     1       1.746 -45.922 -24.690  1.00  0.00     0.184 HD
ATOM     52 1H10 UNL     1       3.260 -46.346 -23.854  1.00  0.00     0.184 HD
ENDBRANCH  49  50
ENDBRANCH  47  49
ENDBRANCH  42  47
BRANCH  46  53
HETATM   53  C17 UNL     1      -1.714 -42.348 -23.478  1.00  0.00     0.187 C 
BRANCH  53  54
HETATM   54  C18 UNL     1      -2.259 -40.944 -23.549  1.00  0.00     0.028 A 
HETATM   55  C19 UNL     1      -3.148 -40.616 -24.575  1.00  0.00     0.027 A 
HETATM   56  C20 UNL     1      -3.684 -39.358 -24.719  1.00  0.00     0.015 A 
HETATM   57  C21 UNL     1      -3.340 -38.370 -23.822  1.00  0.00    -0.009 A 
HETATM   58  C22 UNL     1      -3.844 -37.087 -23.917  1.00  0.00     0.013 A 
HETATM   59  C26 UNL     1      -2.454 -38.717 -22.808  1.00  0.00     0.042 A 
HETATM   60  C23 UNL     1      -3.501 -36.094 -23.026  1.00  0.00     0.001 A 
HETATM   61  C24 UNL     1      -2.623 -36.423 -22.014  1.00  0.00     0.002 A 
HETATM   62  C25 UNL     1      -2.116 -37.709 -21.917  1.00  0.00     0.030 A 
HETATM   63  N13 UNL     1      -1.943 -39.973 -22.694  1.00  0.00    -0.358 N 
ATOM     64  H13 UNL     1      -1.297 -40.176 -21.931  1.00  0.00     0.166 HD
ENDBRANCH  53  54
ENDBRANCH  46  53
ENDBRANCH  40  41
ENDBRANCH  38  40
ENDBRANCH   1  36
TORSDOF 19
ENDMDL
