MODEL 1
REMARK VINA RESULT: -6.424687562      0.000      0.000
REMARK  12 active torsions:
REMARK  status: ('A' for Active; 'I' for Inactive)
REMARK    1  A    between atoms: C2_2  and  C3_3 
REMARK    2  A    between atoms: C3_3  and  N1_4 
REMARK    3  A    between atoms: C4_6  and  C5_7 
REMARK    4  A    between atoms: C6_8  and  C7_9 
REMARK    5  A    between atoms: C7_9  and  C8_10 
REMARK    6  A    between atoms: C7_9  and  C11_14 
REMARK    7  A    between atoms: C8_10  and  O1_11 
REMARK    8  A    between atoms: O1_11  and  C9_12 
REMARK    9  A    between atoms: C11_14  and  N2_15 
REMARK   10  A    between atoms: C14_18  and  C15_19 
REMARK   11  A    between atoms: C15_19  and  O2_20 
REMARK   12  A    between atoms: C16_23  and  O4_24 
ROOT
HETATM    1  C7  UNL     1      -4.775   1.926  11.948  1.00  0.00    -0.038 C 
ENDROOT
BRANCH   1   2
HETATM    2  C6  UNL     1      -4.638   3.115  11.111  1.00  0.00     0.008 C 
HETATM    3  C5  UNL     1      -3.667   3.896  10.815  1.00  0.00     0.017 C 
BRANCH   3   4
HETATM    4  C4  UNL     1      -3.885   5.054   9.904  1.00  0.00     0.083 C 
HETATM    5  N1  UNL     1      -5.063   5.412   9.532  1.00  0.00    -0.395 N 
ATOM      6  H1  UNL     1      -5.883   4.901   9.858  1.00  0.00     0.159 HD
BRANCH   5   7
HETATM    7  C3  UNL     1      -5.211   6.537   8.652  1.00  0.00     0.145 C 
BRANCH   7   8
HETATM    8  C2  UNL     1      -6.646   7.003   8.622  1.00  0.00    -0.018 C 
HETATM    9  C1  UNL     1      -7.536   6.448   7.825  1.00  0.00     0.008 C 
ENDBRANCH   7   8
ENDBRANCH   5   7
ENDBRANCH   3   4
ENDBRANCH   1   2
BRANCH   1  10
HETATM   10  C8  UNL     1      -4.979   0.716  11.030  1.00  0.00     0.203 C 
BRANCH  10  11
HETATM   11  O1  UNL     1      -4.035   0.421  10.167  1.00  0.00    -0.387 OA
BRANCH  11  12
HETATM   12  C9  UNL     1      -3.157  -0.596  10.280  1.00  0.00     0.163 C 
HETATM   13  C10 UNL     1      -3.627  -1.596  11.360  1.00  0.00     0.033 C 
ENDBRANCH  11  12
ENDBRANCH  10  11
ENDBRANCH   1  10
BRANCH   1  14
HETATM   14  C11 UNL     1      -3.928   1.691  13.104  1.00  0.00     0.163 C 
BRANCH  14  15
HETATM   15  N2  UNL     1      -4.614   1.832  14.403  1.00  0.00    -0.339 N 
HETATM   16  C12 UNL     1      -5.220   3.029  14.812  1.00  0.00     0.089 C 
HETATM   17  C13 UNL     1      -6.164   2.929  15.726  1.00  0.00     0.024 C 
HETATM   18  C14 UNL     1      -6.567   1.639  16.290  1.00  0.00     0.174 C 
HETATM   19  O3  UNL     1      -5.829   0.553  15.968  1.00  0.00    -0.333 OA
HETATM   20  C16 UNL     1      -4.629   0.743  15.362  1.00  0.00     0.371 C 
BRANCH  18  21
HETATM   21  C15 UNL     1      -6.760   1.837  17.780  1.00  0.00     0.200 C 
BRANCH  21  22
HETATM   22  O2  UNL     1      -5.731   1.337  18.538  1.00  0.00    -0.398 OA
ATOM     23  H2  UNL     1      -5.364   1.969  19.145  1.00  0.00     0.209 HD
ENDBRANCH  21  22
ENDBRANCH  18  21
BRANCH  20  24
HETATM   24  O4  UNL     1      -3.574   0.925  16.289  1.00  0.00    -0.354 OA
ATOM     25  H4  UNL     1      -3.779   0.459  17.091  1.00  0.00     0.214 HD
ENDBRANCH  20  24
ENDBRANCH  14  15
ENDBRANCH   1  14
TORSDOF 12
ENDMDL
MODEL 2
REMARK VINA RESULT: -6.417151341      3.110      7.163
REMARK  12 active torsions:
REMARK  status: ('A' for Active; 'I' for Inactive)
REMARK    1  A    between atoms: C2_2  and  C3_3 
REMARK    2  A    between atoms: C3_3  and  N1_4 
REMARK    3  A    between atoms: C4_6  and  C5_7 
REMARK    4  A    between atoms: C6_8  and  C7_9 
REMARK    5  A    between atoms: C7_9  and  C8_10 
REMARK    6  A    between atoms: C7_9  and  C11_14 
REMARK    7  A    between atoms: C8_10  and  O1_11 
REMARK    8  A    between atoms: O1_11  and  C9_12 
REMARK    9  A    between atoms: C11_14  and  N2_15 
REMARK   10  A    between atoms: C14_18  and  C15_19 
REMARK   11  A    between atoms: C15_19  and  O2_20 
REMARK   12  A    between atoms: C16_23  and  O4_24 
ROOT
HETATM    1  C7  UNL     1      -2.730   5.035  13.019  1.00  0.00    -0.038 C 
ENDROOT
BRANCH   1   2
HETATM    2  C6  UNL     1      -3.282   4.114  14.010  1.00  0.00     0.008 C 
HETATM    3  C5  UNL     1      -4.358   4.086  14.705  1.00  0.00     0.017 C 
BRANCH   3   4
HETATM    4  C4  UNL     1      -4.610   2.964  15.653  1.00  0.00     0.083 C 
HETATM    5  N1  UNL     1      -4.787   1.757  15.244  1.00  0.00    -0.395 N 
ATOM      6  H1  UNL     1      -4.756   1.542  14.247  1.00  0.00     0.159 HD
BRANCH   5   7
HETATM    7  C3  UNL     1      -5.027   0.717  16.205  1.00  0.00     0.145 C 
BRANCH   7   8
HETATM    8  C2  UNL     1      -6.012   1.176  17.251  1.00  0.00    -0.018 C 
HETATM    9  C1  UNL     1      -7.313   1.102  17.055  1.00  0.00     0.008 C 
ENDBRANCH   7   8
ENDBRANCH   5   7
ENDBRANCH   3   4
ENDBRANCH   1   2
BRANCH   1  10
HETATM   10  C8  UNL     1      -1.678   5.906  13.712  1.00  0.00     0.203 C 
BRANCH  10  11
HETATM   11  O1  UNL     1      -2.085   6.913  14.449  1.00  0.00    -0.387 OA
BRANCH  11  12
HETATM   12  C9  UNL     1      -1.767   8.209  14.255  1.00  0.00     0.163 C 
HETATM   13  C10 UNL     1      -1.702   8.956  15.605  1.00  0.00     0.033 C 
ENDBRANCH  11  12
ENDBRANCH  10  11
ENDBRANCH   1  10
BRANCH   1  14
HETATM   14  C11 UNL     1      -2.395   4.612  11.671  1.00  0.00     0.163 C 
BRANCH  14  15
HETATM   15  N2  UNL     1      -2.827   3.241  11.337  1.00  0.00    -0.339 N 
HETATM   16  C12 UNL     1      -1.924   2.230  10.974  1.00  0.00     0.089 C 
HETATM   17  C13 UNL     1      -2.331   0.989  11.145  1.00  0.00     0.024 C 
HETATM   18  C14 UNL     1      -3.654   0.671  11.686  1.00  0.00     0.174 C 
HETATM   19  O3  UNL     1      -4.525   1.690  11.857  1.00  0.00    -0.333 OA
HETATM   20  C16 UNL     1      -4.235   2.891  11.295  1.00  0.00     0.371 C 
BRANCH  18  21
HETATM   21  C15 UNL     1      -4.206  -0.487  10.878  1.00  0.00     0.200 C 
BRANCH  21  22
HETATM   22  O2  UNL     1      -4.761  -0.107   9.683  1.00  0.00    -0.398 OA
ATOM     23  H2  UNL     1      -4.265  -0.392   8.925  1.00  0.00     0.209 HD
ENDBRANCH  21  22
ENDBRANCH  18  21
BRANCH  20  24
HETATM   24  O4  UNL     1      -4.700   2.994   9.961  1.00  0.00    -0.354 OA
ATOM     25  H4  UNL     1      -4.240   3.700   9.524  1.00  0.00     0.214 HD
ENDBRANCH  20  24
ENDBRANCH  14  15
ENDBRANCH   1  14
TORSDOF 12
ENDMDL
MODEL 3
REMARK VINA RESULT: -6.379439416      3.306      6.847
REMARK  12 active torsions:
REMARK  status: ('A' for Active; 'I' for Inactive)
REMARK    1  A    between atoms: C2_2  and  C3_3 
REMARK    2  A    between atoms: C3_3  and  N1_4 
REMARK    3  A    between atoms: C4_6  and  C5_7 
REMARK    4  A    between atoms: C6_8  and  C7_9 
REMARK    5  A    between atoms: C7_9  and  C8_10 
REMARK    6  A    between atoms: C7_9  and  C11_14 
REMARK    7  A    between atoms: C8_10  and  O1_11 
REMARK    8  A    between atoms: O1_11  and  C9_12 
REMARK    9  A    between atoms: C11_14  and  N2_15 
REMARK   10  A    between atoms: C14_18  and  C15_19 
REMARK   11  A    between atoms: C15_19  and  O2_20 
REMARK   12  A    between atoms: C16_23  and  O4_24 
ROOT
HETATM    1  C7  UNL     1      -4.055   2.238  11.683  1.00  0.00    -0.038 C 
ENDROOT
BRANCH   1   2
HETATM    2  C6  UNL     1      -4.524   2.434  13.053  1.00  0.00     0.008 C 
HETATM    3  C5  UNL     1      -4.285   3.300  13.966  1.00  0.00     0.017 C 
BRANCH   3   4
HETATM    4  C4  UNL     1      -4.954   3.196  15.294  1.00  0.00     0.083 C 
HETATM    5  N1  UNL     1      -6.169   2.791  15.411  1.00  0.00    -0.395 N 
ATOM      6  H1  UNL     1      -6.706   2.529  14.584  1.00  0.00     0.159 HD
BRANCH   5   7
HETATM    7  C3  UNL     1      -6.761   2.711  16.716  1.00  0.00     0.145 C 
BRANCH   7   8
HETATM    8  C2  UNL     1      -7.056   1.277  17.080  1.00  0.00    -0.018 C 
HETATM    9  C1  UNL     1      -6.098   0.441  17.425  1.00  0.00     0.008 C 
ENDBRANCH   7   8
ENDBRANCH   5   7
ENDBRANCH   3   4
ENDBRANCH   1   2
BRANCH   1  10
HETATM   10  C8  UNL     1      -4.997   1.246  10.994  1.00  0.00     0.203 C 
BRANCH  10  11
HETATM   11  O1  UNL     1      -4.497   0.428  10.097  1.00  0.00    -0.387 OA
BRANCH  11  12
HETATM   12  C9  UNL     1      -3.497  -0.452  10.306  1.00  0.00     0.163 C 
HETATM   13  C10 UNL     1      -3.867  -1.427  11.446  1.00  0.00     0.033 C 
ENDBRANCH  11  12
ENDBRANCH  10  11
ENDBRANCH   1  10
BRANCH   1  14
HETATM   14  C11 UNL     1      -3.603   3.341  10.854  1.00  0.00     0.163 C 
BRANCH  14  15
HETATM   15  N2  UNL     1      -2.136   3.476  10.764  1.00  0.00    -0.339 N 
HETATM   16  C12 UNL     1      -1.356   2.688   9.905  1.00  0.00     0.089 C 
HETATM   17  C13 UNL     1      -0.180   3.177   9.564  1.00  0.00     0.024 C 
HETATM   18  C14 UNL     1       0.295   4.474  10.052  1.00  0.00     0.174 C 
HETATM   19  O3  UNL     1      -0.439   5.095  11.002  1.00  0.00    -0.333 OA
HETATM   20  C16 UNL     1      -1.416   4.391  11.629  1.00  0.00     0.371 C 
BRANCH  18  21
HETATM   21  C15 UNL     1       1.760   4.314  10.407  1.00  0.00     0.200 C 
BRANCH  21  22
HETATM   22  O2  UNL     1       1.972   3.953  11.713  1.00  0.00    -0.398 OA
ATOM     23  H2  UNL     1       1.895   4.676  12.325  1.00  0.00     0.209 HD
ENDBRANCH  21  22
ENDBRANCH  18  21
BRANCH  20  24
HETATM   24  O4  UNL     1      -0.937   3.684  12.759  1.00  0.00    -0.354 OA
ATOM     25  H4  UNL     1      -1.476   3.897  13.512  1.00  0.00     0.214 HD
ENDBRANCH  20  24
ENDBRANCH  14  15
ENDBRANCH   1  14
TORSDOF 12
ENDMDL
MODEL 4
REMARK VINA RESULT: -6.370642357      1.616      1.625
REMARK  12 active torsions:
REMARK  status: ('A' for Active; 'I' for Inactive)
REMARK    1  A    between atoms: C2_2  and  C3_3 
REMARK    2  A    between atoms: C3_3  and  N1_4 
REMARK    3  A    between atoms: C4_6  and  C5_7 
REMARK    4  A    between atoms: C6_8  and  C7_9 
REMARK    5  A    between atoms: C7_9  and  C8_10 
REMARK    6  A    between atoms: C7_9  and  C11_14 
REMARK    7  A    between atoms: C8_10  and  O1_11 
REMARK    8  A    between atoms: O1_11  and  C9_12 
REMARK    9  A    between atoms: C11_14  and  N2_15 
REMARK   10  A    between atoms: C14_18  and  C15_19 
REMARK   11  A    between atoms: C15_19  and  O2_20 
REMARK   12  A    between atoms: C16_23  and  O4_24 
ROOT
HETATM    1  C7  UNL     1      -4.655   2.606  12.133  1.00  0.00    -0.038 C 
ENDROOT
BRANCH   1   2
HETATM    2  C6  UNL     1      -4.476   4.037  11.894  1.00  0.00     0.008 C 
HETATM    3  C5  UNL     1      -3.468   4.827  11.903  1.00  0.00     0.017 C 
BRANCH   3   4
HETATM    4  C4  UNL     1      -3.647   6.277  11.609  1.00  0.00     0.083 C 
HETATM    5  N1  UNL     1      -4.806   6.836  11.635  1.00  0.00    -0.395 N 
ATOM      6  H1  UNL     1      -5.636   6.288  11.860  1.00  0.00     0.159 HD
BRANCH   5   7
HETATM    7  C3  UNL     1      -4.917   8.237  11.342  1.00  0.00     0.145 C 
BRANCH   7   8
HETATM    8  C2  UNL     1      -6.358   8.680  11.404  1.00  0.00    -0.018 C 
HETATM    9  C1  UNL     1      -7.324   7.844  11.727  1.00  0.00     0.008 C 
ENDBRANCH   7   8
ENDBRANCH   5   7
ENDBRANCH   3   4
ENDBRANCH   1   2
BRANCH   1  10
HETATM   10  C8  UNL     1      -4.660   1.893  10.777  1.00  0.00     0.203 C 
BRANCH  10  11
HETATM   11  O1  UNL     1      -5.087   0.653  10.724  1.00  0.00    -0.387 OA
BRANCH  11  12
HETATM   12  C9  UNL     1      -4.375  -0.405  10.286  1.00  0.00     0.163 C 
HETATM   13  C10 UNL     1      -3.987  -1.319  11.469  1.00  0.00     0.033 C 
ENDBRANCH  11  12
ENDBRANCH  10  11
ENDBRANCH   1  10
BRANCH   1  14
HETATM   14  C11 UNL     1      -3.960   1.906  13.199  1.00  0.00     0.163 C 
BRANCH  14  15
HETATM   15  N2  UNL     1      -4.651   1.940  14.502  1.00  0.00    -0.339 N 
HETATM   16  C12 UNL     1      -5.280   3.092  14.996  1.00  0.00     0.089 C 
HETATM   17  C13 UNL     1      -6.224   2.908  15.897  1.00  0.00     0.024 C 
HETATM   18  C14 UNL     1      -6.604   1.573  16.364  1.00  0.00     0.174 C 
HETATM   19  O3  UNL     1      -5.844   0.528  15.966  1.00  0.00    -0.333 OA
HETATM   20  C16 UNL     1      -4.647   0.783  15.379  1.00  0.00     0.371 C 
BRANCH  18  21
HETATM   21  C15 UNL     1      -6.802   1.658  17.865  1.00  0.00     0.200 C 
BRANCH  21  22
HETATM   22  O2  UNL     1      -5.710   1.249  18.587  1.00  0.00    -0.398 OA
ATOM     23  H2  UNL     1      -5.641   1.663  19.439  1.00  0.00     0.209 HD
ENDBRANCH  21  22
ENDBRANCH  18  21
BRANCH  20  24
HETATM   24  O4  UNL     1      -3.597   0.917  16.321  1.00  0.00    -0.354 OA
ATOM     25  H4  UNL     1      -3.882   0.570  17.157  1.00  0.00     0.214 HD
ENDBRANCH  20  24
ENDBRANCH  14  15
ENDBRANCH   1  14
TORSDOF 12
ENDMDL
MODEL 5
REMARK VINA RESULT: -6.356710032      2.761      6.940
REMARK  12 active torsions:
REMARK  status: ('A' for Active; 'I' for Inactive)
REMARK    1  A    between atoms: C2_2  and  C3_3 
REMARK    2  A    between atoms: C3_3  and  N1_4 
REMARK    3  A    between atoms: C4_6  and  C5_7 
REMARK    4  A    between atoms: C6_8  and  C7_9 
REMARK    5  A    between atoms: C7_9  and  C8_10 
REMARK    6  A    between atoms: C7_9  and  C11_14 
REMARK    7  A    between atoms: C8_10  and  O1_11 
REMARK    8  A    between atoms: O1_11  and  C9_12 
REMARK    9  A    between atoms: C11_14  and  N2_15 
REMARK   10  A    between atoms: C14_18  and  C15_19 
REMARK   11  A    between atoms: C15_19  and  O2_20 
REMARK   12  A    between atoms: C16_23  and  O4_24 
ROOT
HETATM    1  C7  UNL     1      -4.557   4.675  12.267  1.00  0.00    -0.038 C 
ENDROOT
BRANCH   1   2
HETATM    2  C6  UNL     1      -5.199   4.410  13.552  1.00  0.00     0.008 C 
HETATM    3  C5  UNL     1      -5.869   5.119  14.382  1.00  0.00     0.017 C 
BRANCH   3   4
HETATM    4  C4  UNL     1      -6.392   4.511  15.638  1.00  0.00     0.083 C 
HETATM    5  N1  UNL     1      -6.408   3.238  15.820  1.00  0.00    -0.395 N 
ATOM      6  H1  UNL     1      -6.058   2.610  15.096  1.00  0.00     0.159 HD
BRANCH   5   7
HETATM    7  C3  UNL     1      -6.925   2.710  17.051  1.00  0.00     0.145 C 
BRANCH   7   8
HETATM    8  C2  UNL     1      -7.007   1.204  16.991  1.00  0.00    -0.018 C 
HETATM    9  C1  UNL     1      -5.960   0.445  17.243  1.00  0.00     0.008 C 
ENDBRANCH   7   8
ENDBRANCH   5   7
ENDBRANCH   3   4
ENDBRANCH   1   2
BRANCH   1  10
HETATM   10  C8  UNL     1      -4.862   6.124  11.871  1.00  0.00     0.203 C 
BRANCH  10  11
HETATM   11  O1  UNL     1      -5.653   6.339  10.846  1.00  0.00    -0.387 OA
BRANCH  11  12
HETATM   12  C9  UNL     1      -6.450   7.414  10.681  1.00  0.00     0.163 C 
HETATM   13  C10 UNL     1      -7.300   7.654  11.949  1.00  0.00     0.033 C 
ENDBRANCH  11  12
ENDBRANCH  10  11
ENDBRANCH   1  10
BRANCH   1  14
HETATM   14  C11 UNL     1      -3.211   4.220  11.965  1.00  0.00     0.163 C 
BRANCH  14  15
HETATM   15  N2  UNL     1      -3.133   2.831  11.473  1.00  0.00    -0.339 N 
HETATM   16  C12 UNL     1      -1.917   2.210  11.151  1.00  0.00     0.089 C 
HETATM   17  C13 UNL     1      -1.905   0.892  11.172  1.00  0.00     0.024 C 
HETATM   18  C14 UNL     1      -3.095   0.109  11.513  1.00  0.00     0.174 C 
HETATM   19  O3  UNL     1      -4.266   0.771  11.649  1.00  0.00    -0.333 OA
HETATM   20  C16 UNL     1      -4.336   2.059  11.224  1.00  0.00     0.371 C 
BRANCH  18  21
HETATM   21  C15 UNL     1      -3.155  -1.063  10.553  1.00  0.00     0.200 C 
BRANCH  21  22
HETATM   22  O2  UNL     1      -3.543  -0.714   9.285  1.00  0.00    -0.398 OA
ATOM     23  H2  UNL     1      -4.051  -1.386   8.844  1.00  0.00     0.209 HD
ENDBRANCH  21  22
ENDBRANCH  18  21
BRANCH  20  24
HETATM   24  O4  UNL     1      -4.679   2.160   9.854  1.00  0.00    -0.354 OA
ATOM     25  H4  UNL     1      -4.877   1.295   9.516  1.00  0.00     0.214 HD
ENDBRANCH  20  24
ENDBRANCH  14  15
ENDBRANCH   1  14
TORSDOF 12
ENDMDL
