MODEL 1
REMARK VINA RESULT: -6.119898024      0.000      0.000
REMARK  9 active torsions:
REMARK  status: ('A' for Active; 'I' for Inactive)
REMARK    1  A    between atoms: O1_2  and  N1_3 
REMARK    2  A    between atoms: N1_3  and  C2_4 
REMARK    3  A    between atoms: N1_3  and  C8_10 
REMARK    4  A    between atoms: C2_4  and  C3_5 
REMARK    5  A    between atoms: C3_5  and  C4_6 
REMARK    6  A    between atoms: C4_6  and  C5_7 
REMARK    7  A    between atoms: C8_10  and  C10_12 
REMARK    8  A    between atoms: C10_12  and  C11_13 
REMARK    9  A    between atoms: C11_13  and  C12_14 
ROOT
HETATM    1  N1  UNL     1      -3.970   3.771  13.959  1.00  0.00    -0.270 N 
ENDROOT
BRANCH   1   2
HETATM    2  O1  UNL     1      -2.725   3.890  14.317  1.00  0.00    -0.283 OA
HETATM    3  C1  UNL     1      -2.025   5.006  13.960  1.00  0.00     0.237 C 
ENDBRANCH   1   2
BRANCH   1   4
HETATM    4  C2  UNL     1      -4.304   3.431  12.642  1.00  0.00     0.090 C 
BRANCH   4   5
HETATM    5  C3  UNL     1      -3.639   2.220  12.072  1.00  0.00     0.047 C 
BRANCH   5   6
HETATM    6  C4  UNL     1      -4.268   0.910  12.390  1.00  0.00     0.010 C 
BRANCH   6   7
HETATM    7  C5  UNL     1      -4.320  -0.001  11.171  1.00  0.00    -0.014 A 
HETATM    8  C6  UNL     1      -3.886  -1.403  11.454  1.00  0.00     0.005 A 
HETATM    9  C7  UNL     1      -3.076  -0.494  10.552  1.00  0.00     0.005 A 
ENDBRANCH   6   7
ENDBRANCH   5   6
ENDBRANCH   4   5
ENDBRANCH   1   4
BRANCH   1  10
HETATM   10  C8  UNL     1      -5.001   4.050  14.869  1.00  0.00     0.110 C 
HETATM   11  C9  UNL     1      -5.794   5.306  14.566  1.00  0.00     0.035 C 
BRANCH  10  12
HETATM   12  C10 UNL     1      -5.935   2.887  15.005  1.00  0.00     0.038 C 
BRANCH  12  13
HETATM   13  C11 UNL     1      -5.669   2.031  16.210  1.00  0.00     0.115 C 
BRANCH  13  14
HETATM   14  C12 UNL     1      -4.609   1.036  16.073  1.00  0.00     0.172 C 
HETATM   15  O2  UNL     1      -3.405   1.216  16.291  1.00  0.00    -0.648 OA
HETATM   16  O3  UNL     1      -5.011  -0.250  15.652  1.00  0.00    -0.648 OA
ENDBRANCH  13  14
ENDBRANCH  12  13
ENDBRANCH  10  12
ENDBRANCH   1  10
TORSDOF 9
ENDMDL
MODEL 2
REMARK VINA RESULT: -5.805208596      1.478      1.868
REMARK  9 active torsions:
REMARK  status: ('A' for Active; 'I' for Inactive)
REMARK    1  A    between atoms: O1_2  and  N1_3 
REMARK    2  A    between atoms: N1_3  and  C2_4 
REMARK    3  A    between atoms: N1_3  and  C8_10 
REMARK    4  A    between atoms: C2_4  and  C3_5 
REMARK    5  A    between atoms: C3_5  and  C4_6 
REMARK    6  A    between atoms: C4_6  and  C5_7 
REMARK    7  A    between atoms: C8_10  and  C10_12 
REMARK    8  A    between atoms: C10_12  and  C11_13 
REMARK    9  A    between atoms: C11_13  and  C12_14 
ROOT
HETATM    1  N1  UNL     1      -4.591   4.475  12.920  1.00  0.00    -0.270 N 
ENDROOT
BRANCH   1   2
HETATM    2  O1  UNL     1      -5.352   5.272  12.229  1.00  0.00    -0.283 OA
HETATM    3  C1  UNL     1      -4.882   6.499  11.860  1.00  0.00     0.237 C 
ENDBRANCH   1   2
BRANCH   1   4
HETATM    4  C2  UNL     1      -3.687   3.618  12.279  1.00  0.00     0.090 C 
BRANCH   4   5
HETATM    5  C3  UNL     1      -4.204   2.856  11.101  1.00  0.00     0.047 C 
BRANCH   5   6
HETATM    6  C4  UNL     1      -4.970   1.617  11.401  1.00  0.00     0.010 C 
BRANCH   6   7
HETATM    7  C5  UNL     1      -4.080   0.536  11.998  1.00  0.00    -0.014 A 
HETATM    8  C6  UNL     1      -2.932   0.155  11.120  1.00  0.00     0.005 A 
HETATM    9  C7  UNL     1      -4.054  -0.819  11.416  1.00  0.00     0.005 A 
ENDBRANCH   6   7
ENDBRANCH   5   6
ENDBRANCH   4   5
ENDBRANCH   1   4
BRANCH   1  10
HETATM   10  C8  UNL     1      -4.713   4.408  14.317  1.00  0.00     0.110 C 
HETATM   11  C9  UNL     1      -6.106   4.689  14.847  1.00  0.00     0.035 C 
BRANCH  10  12
HETATM   12  C10 UNL     1      -4.231   3.091  14.842  1.00  0.00     0.038 C 
BRANCH  12  13
HETATM   13  C11 UNL     1      -5.331   2.191  15.327  1.00  0.00     0.115 C 
BRANCH  13  14
HETATM   14  C12 UNL     1      -4.912   0.964  15.998  1.00  0.00     0.172 C 
HETATM   15  O2  UNL     1      -5.637   0.004  16.289  1.00  0.00    -0.648 OA
HETATM   16  O3  UNL     1      -3.545   0.875  16.340  1.00  0.00    -0.648 OA
ENDBRANCH  13  14
ENDBRANCH  12  13
ENDBRANCH  10  12
ENDBRANCH   1  10
TORSDOF 9
ENDMDL
MODEL 3
REMARK VINA RESULT: -5.789521220      0.943      1.191
REMARK  9 active torsions:
REMARK  status: ('A' for Active; 'I' for Inactive)
REMARK    1  A    between atoms: O1_2  and  N1_3 
REMARK    2  A    between atoms: N1_3  and  C2_4 
REMARK    3  A    between atoms: N1_3  and  C8_10 
REMARK    4  A    between atoms: C2_4  and  C3_5 
REMARK    5  A    between atoms: C3_5  and  C4_6 
REMARK    6  A    between atoms: C4_6  and  C5_7 
REMARK    7  A    between atoms: C8_10  and  C10_12 
REMARK    8  A    between atoms: C10_12  and  C11_13 
REMARK    9  A    between atoms: C11_13  and  C12_14 
ROOT
HETATM    1  N1  UNL     1      -4.087   3.748  13.948  1.00  0.00    -0.270 N 
ENDROOT
BRANCH   1   2
HETATM    2  O1  UNL     1      -2.856   3.865  14.352  1.00  0.00    -0.283 OA
HETATM    3  C1  UNL     1      -2.126   4.958  13.982  1.00  0.00     0.237 C 
ENDBRANCH   1   2
BRANCH   1   4
HETATM    4  C2  UNL     1      -4.373   3.338  12.639  1.00  0.00     0.090 C 
BRANCH   4   5
HETATM    5  C3  UNL     1      -3.647   2.130  12.141  1.00  0.00     0.047 C 
BRANCH   5   6
HETATM    6  C4  UNL     1      -4.260   0.813  12.462  1.00  0.00     0.010 C 
BRANCH   6   7
HETATM    7  C5  UNL     1      -4.357  -0.077  11.230  1.00  0.00    -0.014 A 
HETATM    8  C6  UNL     1      -3.728  -1.421  11.413  1.00  0.00     0.005 A 
HETATM    9  C7  UNL     1      -3.152  -0.406  10.447  1.00  0.00     0.005 A 
ENDBRANCH   6   7
ENDBRANCH   5   6
ENDBRANCH   4   5
ENDBRANCH   1   4
BRANCH   1  10
HETATM   10  C8  UNL     1      -5.150   4.099  14.795  1.00  0.00     0.110 C 
HETATM   11  C9  UNL     1      -6.082   5.158  14.240  1.00  0.00     0.035 C 
BRANCH  10  12
HETATM   12  C10 UNL     1      -5.942   2.894  15.199  1.00  0.00     0.038 C 
BRANCH  12  13
HETATM   13  C11 UNL     1      -5.209   1.967  16.126  1.00  0.00     0.115 C 
BRANCH  13  14
HETATM   14  C12 UNL     1      -6.009   0.925  16.762  1.00  0.00     0.172 C 
HETATM   15  O2  UNL     1      -7.165   0.603  16.460  1.00  0.00    -0.648 OA
HETATM   16  O3  UNL     1      -5.393   0.223  17.820  1.00  0.00    -0.648 OA
ENDBRANCH  13  14
ENDBRANCH  12  13
ENDBRANCH  10  12
ENDBRANCH   1  10
TORSDOF 9
ENDMDL
MODEL 4
REMARK VINA RESULT: -5.714878467      2.287      4.555
REMARK  9 active torsions:
REMARK  status: ('A' for Active; 'I' for Inactive)
REMARK    1  A    between atoms: O1_2  and  N1_3 
REMARK    2  A    between atoms: N1_3  and  C2_4 
REMARK    3  A    between atoms: N1_3  and  C8_10 
REMARK    4  A    between atoms: C2_4  and  C3_5 
REMARK    5  A    between atoms: C3_5  and  C4_6 
REMARK    6  A    between atoms: C4_6  and  C5_7 
REMARK    7  A    between atoms: C8_10  and  C10_12 
REMARK    8  A    between atoms: C10_12  and  C11_13 
REMARK    9  A    between atoms: C11_13  and  C12_14 
ROOT
HETATM    1  N1  UNL     1      -4.953   3.783  13.447  1.00  0.00    -0.270 N 
ENDROOT
BRANCH   1   2
HETATM    2  O1  UNL     1      -5.409   2.801  12.725  1.00  0.00    -0.283 OA
HETATM    3  C1  UNL     1      -4.550   1.840  12.275  1.00  0.00     0.237 C 
ENDBRANCH   1   2
BRANCH   1   4
HETATM    4  C2  UNL     1      -4.004   4.672  12.925  1.00  0.00     0.090 C 
BRANCH   4   5
HETATM    5  C3  UNL     1      -4.427   5.490  11.748  1.00  0.00     0.047 C 
BRANCH   5   6
HETATM    6  C4  UNL     1      -4.931   6.858  12.043  1.00  0.00     0.010 C 
BRANCH   6   7
HETATM    7  C5  UNL     1      -6.186   7.181  11.242  1.00  0.00    -0.014 A 
HETATM    8  C6  UNL     1      -6.461   8.645  11.125  1.00  0.00     0.005 A 
HETATM    9  C7  UNL     1      -7.380   7.731  11.910  1.00  0.00     0.005 A 
ENDBRANCH   6   7
ENDBRANCH   5   6
ENDBRANCH   4   5
ENDBRANCH   1   4
BRANCH   1  10
HETATM   10  C8  UNL     1      -5.351   3.926  14.785  1.00  0.00     0.110 C 
HETATM   11  C9  UNL     1      -6.018   5.248  15.111  1.00  0.00     0.035 C 
BRANCH  10  12
HETATM   12  C10 UNL     1      -6.238   2.797  15.211  1.00  0.00     0.038 C 
BRANCH  12  13
HETATM   13  C11 UNL     1      -5.693   1.996  16.359  1.00  0.00     0.115 C 
BRANCH  13  14
HETATM   14  C12 UNL     1      -4.617   1.062  16.040  1.00  0.00     0.172 C 
HETATM   15  O2  UNL     1      -3.406   1.264  16.185  1.00  0.00    -0.648 OA
HETATM   16  O3  UNL     1      -5.012  -0.189  15.520  1.00  0.00    -0.648 OA
ENDBRANCH  13  14
ENDBRANCH  12  13
ENDBRANCH  10  12
ENDBRANCH   1  10
TORSDOF 9
ENDMDL
MODEL 5
REMARK VINA RESULT: -5.673021942      2.268      4.710
REMARK  9 active torsions:
REMARK  status: ('A' for Active; 'I' for Inactive)
REMARK    1  A    between atoms: O1_2  and  N1_3 
REMARK    2  A    between atoms: N1_3  and  C2_4 
REMARK    3  A    between atoms: N1_3  and  C8_10 
REMARK    4  A    between atoms: C2_4  and  C3_5 
REMARK    5  A    between atoms: C3_5  and  C4_6 
REMARK    6  A    between atoms: C4_6  and  C5_7 
REMARK    7  A    between atoms: C8_10  and  C10_12 
REMARK    8  A    between atoms: C10_12  and  C11_13 
REMARK    9  A    between atoms: C11_13  and  C12_14 
ROOT
HETATM    1  N1  UNL     1      -4.986   5.193  13.037  1.00  0.00    -0.270 N 
ENDROOT
BRANCH   1   2
HETATM    2  O1  UNL     1      -5.846   5.885  12.350  1.00  0.00    -0.283 OA
HETATM    3  C1  UNL     1      -5.484   7.100  11.843  1.00  0.00     0.237 C 
ENDBRANCH   1   2
BRANCH   1   4
HETATM    4  C2  UNL     1      -5.268   4.809  14.354  1.00  0.00     0.090 C 
BRANCH   4   5
HETATM    5  C3  UNL     1      -6.138   3.606  14.531  1.00  0.00     0.047 C 
BRANCH   5   6
HETATM    6  C4  UNL     1      -5.686   2.607  15.536  1.00  0.00     0.010 C 
BRANCH   6   7
HETATM    7  C5  UNL     1      -6.704   2.435  16.656  1.00  0.00    -0.014 A 
HETATM    8  C6  UNL     1      -6.159   1.730  17.856  1.00  0.00     0.005 A 
HETATM    9  C7  UNL     1      -7.230   1.099  16.990  1.00  0.00     0.005 A 
ENDBRANCH   6   7
ENDBRANCH   5   6
ENDBRANCH   4   5
ENDBRANCH   1   4
BRANCH   1  10
HETATM   10  C8  UNL     1      -3.730   4.879  12.495  1.00  0.00     0.110 C 
HETATM   11  C9  UNL     1      -2.666   4.528  13.516  1.00  0.00     0.035 C 
BRANCH  10  12
HETATM   12  C10 UNL     1      -3.835   3.782  11.481  1.00  0.00     0.038 C 
BRANCH  12  13
HETATM   13  C11 UNL     1      -3.513   2.419  12.025  1.00  0.00     0.115 C 
BRANCH  13  14
HETATM   14  C12 UNL     1      -4.566   1.414  11.911  1.00  0.00     0.172 C 
HETATM   15  O2  UNL     1      -4.576   0.301  12.452  1.00  0.00    -0.648 OA
HETATM   16  O3  UNL     1      -5.672   1.758  11.106  1.00  0.00    -0.648 OA
ENDBRANCH  13  14
ENDBRANCH  12  13
ENDBRANCH  10  12
ENDBRANCH   1  10
TORSDOF 9
ENDMDL
