MODEL 1
REMARK VINA RESULT: -6.181609133      0.000      0.000
REMARK  10 active torsions:
REMARK  status: ('A' for Active; 'I' for Inactive)
REMARK    1  A    between atoms: C2_3  and  N2_4 
REMARK    2  A    between atoms: N2_4  and  C3_6 
REMARK    3  A    between atoms: C4_9  and  N4_10 
REMARK    4  A    between atoms: N4_10  and  C5_11 
REMARK    5  A    between atoms: N4_10  and  C7_15 
REMARK    6  A    between atoms: C5_11  and  C6_12 
REMARK    7  A    between atoms: C6_12  and  O1_13 
REMARK    8  A    between atoms: C7_15  and  C8_16 
REMARK    9  A    between atoms: C8_16  and  O2_17 
REMARK   10  A    between atoms: C10_20  and  N5_21 
ROOT
HETATM    1  N1  UNL     1      -8.283   2.904   0.455  1.00  0.00    -0.191 NA
HETATM    2  C1  UNL     1      -8.563   3.351  -0.564  1.00  0.00     0.105 C 
HETATM    3  C2  UNL     1      -8.915   3.943  -1.837  1.00  0.00     0.200 C 
ENDROOT
BRANCH   3   4
HETATM    4  N2  UNL     1      -8.759   3.103  -2.971  1.00  0.00    -0.192 N 
ATOM      5  H2  UNL     1      -8.583   3.569  -3.861  1.00  0.00     0.184 HD
BRANCH   4   6
HETATM    6  C3  UNL     1      -8.816   1.817  -3.000  1.00  0.00     0.695 A 
HETATM    7  N3  UNL     1      -9.824   0.986  -2.725  1.00  0.00    -0.173 N 
HETATM    8  C4  UNL     1      -9.464  -0.312  -2.857  1.00  0.00     0.151 A 
ATOM      9  H3  UNL     1     -10.756   1.294  -2.448  1.00  0.00     0.186 HD
HETATM   10  C9  UNL     1      -8.124  -0.254  -3.243  1.00  0.00     0.151 A 
HETATM   11  C10 UNL     1      -7.232  -1.262  -3.525  1.00  0.00     0.146 A 
HETATM   12  N8  UNL     1      -7.774   1.041  -3.319  1.00  0.00    -0.087 N 
HETATM   13  N6  UNL     1      -5.985  -0.911  -3.883  1.00  0.00    -0.280 N 
HETATM   14  N7  UNL     1      -5.617   0.374  -3.965  1.00  0.00    -0.249 N 
ATOM     15  H6  UNL     1      -5.304  -1.640  -4.097  1.00  0.00     0.188 HD
HETATM   16  C11 UNL     1      -6.493   1.337  -3.687  1.00  0.00     0.360 A 
ATOM     17  H7  UNL     1      -4.665   0.614  -4.241  1.00  0.00     0.192 HD
HETATM   18  O3  UNL     1      -6.150   2.534  -3.763  1.00  0.00    -0.244 OA
BRANCH   8  19
HETATM   19  N4  UNL     1     -10.257  -1.476  -2.682  1.00  0.00    -0.361 N 
BRANCH  19  20
HETATM   20  C5  UNL     1     -10.423  -2.033  -1.370  1.00  0.00     0.150 C 
BRANCH  20  21
HETATM   21  C6  UNL     1     -11.869  -2.380  -1.153  1.00  0.00     0.183 C 
BRANCH  21  22
HETATM   22  O1  UNL     1     -12.053  -3.754  -0.957  1.00  0.00    -0.399 OA
ATOM     23  H1  UNL     1     -11.494  -4.092  -0.268  1.00  0.00     0.209 HD
ENDBRANCH  21  22
ENDBRANCH  20  21
ENDBRANCH  19  20
BRANCH  19  24
HETATM   24  C7  UNL     1     -10.909  -2.153  -3.782  1.00  0.00     0.150 C 
BRANCH  24  25
HETATM   25  C8  UNL     1     -11.607  -1.233  -4.741  1.00  0.00     0.183 C 
BRANCH  25  26
HETATM   26  O2  UNL     1     -12.364  -1.943  -5.678  1.00  0.00    -0.399 OA
ATOM     27  H2  UNL     1     -12.300  -1.557  -6.543  1.00  0.00     0.209 HD
ENDBRANCH  25  26
ENDBRANCH  24  25
ENDBRANCH  19  24
ENDBRANCH   8  19
BRANCH  11  28
HETATM   28  N5  UNL     1      -7.524  -2.506  -3.468  1.00  0.00    -0.382 N 
ATOM     29  H52 UNL     1      -8.407  -2.779  -3.037  1.00  0.00     0.157 HD
ATOM     30  H51 UNL     1      -6.922  -3.246  -3.828  1.00  0.00     0.157 HD
ENDBRANCH  11  28
ENDBRANCH   4   6
ENDBRANCH   3   4
TORSDOF 10
ENDMDL
MODEL 2
REMARK VINA RESULT: -6.107414448      0.759      2.256
REMARK  10 active torsions:
REMARK  status: ('A' for Active; 'I' for Inactive)
REMARK    1  A    between atoms: C2_3  and  N2_4 
REMARK    2  A    between atoms: N2_4  and  C3_6 
REMARK    3  A    between atoms: C4_9  and  N4_10 
REMARK    4  A    between atoms: N4_10  and  C5_11 
REMARK    5  A    between atoms: N4_10  and  C7_15 
REMARK    6  A    between atoms: C5_11  and  C6_12 
REMARK    7  A    between atoms: C6_12  and  O1_13 
REMARK    8  A    between atoms: C7_15  and  C8_16 
REMARK    9  A    between atoms: C8_16  and  O2_17 
REMARK   10  A    between atoms: C10_20  and  N5_21 
ROOT
HETATM    1  N1  UNL     1      -8.233   2.885   0.424  1.00  0.00    -0.191 NA
HETATM    2  C1  UNL     1      -8.583   3.313  -0.581  1.00  0.00     0.105 C 
HETATM    3  C2  UNL     1      -9.023   3.881  -1.837  1.00  0.00     0.200 C 
ENDROOT
BRANCH   3   4
HETATM    4  N2  UNL     1      -8.843   3.060  -2.982  1.00  0.00    -0.192 N 
ATOM      5  H2  UNL     1      -8.654   3.541  -3.861  1.00  0.00     0.184 HD
BRANCH   4   6
HETATM    6  C3  UNL     1      -8.892   1.774  -3.032  1.00  0.00     0.695 A 
HETATM    7  N3  UNL     1      -9.901   0.934  -2.789  1.00  0.00    -0.173 N 
HETATM    8  C4  UNL     1      -9.531  -0.360  -2.934  1.00  0.00     0.151 A 
ATOM      9  H3  UNL     1     -10.839   1.232  -2.524  1.00  0.00     0.186 HD
HETATM   10  C9  UNL     1      -8.184  -0.288  -3.293  1.00  0.00     0.151 A 
HETATM   11  C10 UNL     1      -7.281  -1.287  -3.575  1.00  0.00     0.146 A 
HETATM   12  N8  UNL     1      -7.840   1.009  -3.342  1.00  0.00    -0.087 N 
HETATM   13  N6  UNL     1      -6.030  -0.924  -3.904  1.00  0.00    -0.280 N 
HETATM   14  N7  UNL     1      -5.667   0.364  -3.959  1.00  0.00    -0.249 N 
ATOM     15  H6  UNL     1      -5.340  -1.645  -4.116  1.00  0.00     0.188 HD
HETATM   16  C11 UNL     1      -6.554   1.318  -3.682  1.00  0.00     0.360 A 
ATOM     17  H7  UNL     1      -4.711   0.614  -4.212  1.00  0.00     0.192 HD
HETATM   18  O3  UNL     1      -6.216   2.517  -3.733  1.00  0.00    -0.244 OA
BRANCH   8  19
HETATM   19  N4  UNL     1     -10.320  -1.531  -2.792  1.00  0.00    -0.361 N 
BRANCH  19  20
HETATM   20  C5  UNL     1     -10.850  -2.177  -3.958  1.00  0.00     0.150 C 
BRANCH  20  21
HETATM   21  C6  UNL     1     -11.665  -1.193  -4.749  1.00  0.00     0.183 C 
BRANCH  21  22
HETATM   22  O1  UNL     1     -12.427  -1.823  -5.741  1.00  0.00    -0.399 OA
ATOM     23  H1  UNL     1     -12.642  -1.231  -6.452  1.00  0.00     0.209 HD
ENDBRANCH  21  22
ENDBRANCH  20  21
ENDBRANCH  19  20
BRANCH  19  24
HETATM   24  C7  UNL     1     -10.640  -2.110  -1.505  1.00  0.00     0.150 C 
BRANCH  24  25
HETATM   25  C8  UNL     1      -9.438  -2.462  -0.677  1.00  0.00     0.183 C 
BRANCH  25  26
HETATM   26  O2  UNL     1      -8.789  -3.598  -1.169  1.00  0.00    -0.399 OA
ATOM     27  H2  UNL     1      -8.083  -3.874  -0.596  1.00  0.00     0.209 HD
ENDBRANCH  25  26
ENDBRANCH  24  25
ENDBRANCH  19  24
ENDBRANCH   8  19
BRANCH  11  28
HETATM   28  N5  UNL     1      -7.567  -2.533  -3.543  1.00  0.00    -0.382 N 
ATOM     29  H52 UNL     1      -8.470  -2.816  -3.163  1.00  0.00     0.157 HD
ATOM     30  H51 UNL     1      -6.941  -3.266  -3.875  1.00  0.00     0.157 HD
ENDBRANCH  11  28
ENDBRANCH   4   6
ENDBRANCH   3   4
TORSDOF 10
ENDMDL
MODEL 3
REMARK VINA RESULT: -6.098041467      1.795      2.168
REMARK  10 active torsions:
REMARK  status: ('A' for Active; 'I' for Inactive)
REMARK    1  A    between atoms: C2_3  and  N2_4 
REMARK    2  A    between atoms: N2_4  and  C3_6 
REMARK    3  A    between atoms: C4_9  and  N4_10 
REMARK    4  A    between atoms: N4_10  and  C5_11 
REMARK    5  A    between atoms: N4_10  and  C7_15 
REMARK    6  A    between atoms: C5_11  and  C6_12 
REMARK    7  A    between atoms: C6_12  and  O1_13 
REMARK    8  A    between atoms: C7_15  and  C8_16 
REMARK    9  A    between atoms: C8_16  and  O2_17 
REMARK   10  A    between atoms: C10_20  and  N5_21 
ROOT
HETATM    1  N1  UNL     1      -8.936   4.365   1.041  1.00  0.00    -0.191 NA
HETATM    2  C1  UNL     1      -8.662   3.767   0.100  1.00  0.00     0.105 C 
HETATM    3  C2  UNL     1      -8.308   3.039  -1.098  1.00  0.00     0.200 C 
ENDROOT
BRANCH   3   4
HETATM    4  N2  UNL     1      -8.227   1.627  -0.960  1.00  0.00    -0.192 N 
ATOM      5  H2  UNL     1      -7.441   1.268  -0.418  1.00  0.00     0.184 HD
BRANCH   4   6
HETATM    6  C3  UNL     1      -9.036   0.751  -1.443  1.00  0.00     0.695 A 
HETATM    7  N3  UNL     1     -10.370   0.720  -1.464  1.00  0.00    -0.173 N 
HETATM    8  C4  UNL     1     -10.844  -0.403  -2.056  1.00  0.00     0.151 A 
ATOM      9  H3  UNL     1     -10.964   1.455  -1.080  1.00  0.00     0.186 HD
HETATM   10  C9  UNL     1      -9.693  -1.104  -2.418  1.00  0.00     0.151 A 
HETATM   11  C10 UNL     1      -9.550  -2.315  -3.056  1.00  0.00     0.146 A 
HETATM   12  N8  UNL     1      -8.630  -0.379  -2.035  1.00  0.00    -0.087 N 
HETATM   13  N6  UNL     1      -8.303  -2.756  -3.288  1.00  0.00    -0.280 N 
HETATM   14  N7  UNL     1      -7.230  -2.047  -2.914  1.00  0.00    -0.249 N 
ATOM     15  H6  UNL     1      -8.169  -3.651  -3.759  1.00  0.00     0.188 HD
HETATM   16  C11 UNL     1      -7.387  -0.877  -2.296  1.00  0.00     0.360 A 
ATOM     17  H7  UNL     1      -6.293  -2.403  -3.102  1.00  0.00     0.192 HD
HETATM   18  O3  UNL     1      -6.388  -0.217  -1.947  1.00  0.00    -0.244 OA
BRANCH   8  19
HETATM   19  N4  UNL     1     -12.191  -0.781  -2.293  1.00  0.00    -0.361 N 
BRANCH  19  20
HETATM   20  C5  UNL     1     -12.934  -1.450  -1.263  1.00  0.00     0.150 C 
BRANCH  20  21
HETATM   21  C6  UNL     1     -11.992  -2.250  -0.407  1.00  0.00     0.183 C 
BRANCH  21  22
HETATM   22  O1  UNL     1     -11.939  -3.592  -0.801  1.00  0.00    -0.399 OA
ATOM     23  H1  UNL     1     -12.242  -4.175  -0.116  1.00  0.00     0.209 HD
ENDBRANCH  21  22
ENDBRANCH  20  21
ENDBRANCH  19  20
BRANCH  19  24
HETATM   24  C7  UNL     1     -12.865  -0.536  -3.550  1.00  0.00     0.150 C 
BRANCH  24  25
HETATM   25  C8  UNL     1     -11.994   0.093  -4.599  1.00  0.00     0.183 C 
BRANCH  25  26
HETATM   26  O2  UNL     1     -11.572  -0.843  -5.547  1.00  0.00    -0.399 OA
ATOM     27  H2  UNL     1     -11.936  -0.661  -6.405  1.00  0.00     0.209 HD
ENDBRANCH  25  26
ENDBRANCH  24  25
ENDBRANCH  19  24
ENDBRANCH   8  19
BRANCH  11  28
HETATM   28  N5  UNL     1     -10.534  -3.036  -3.441  1.00  0.00    -0.382 N 
ATOM     29  H52 UNL     1     -10.759  -3.063  -4.435  1.00  0.00     0.157 HD
ATOM     30  H51 UNL     1     -11.114  -3.587  -2.808  1.00  0.00     0.157 HD
ENDBRANCH  11  28
ENDBRANCH   4   6
ENDBRANCH   3   4
TORSDOF 10
ENDMDL
MODEL 4
REMARK VINA RESULT: -6.052117021      1.646      3.014
REMARK  10 active torsions:
REMARK  status: ('A' for Active; 'I' for Inactive)
REMARK    1  A    between atoms: C2_3  and  N2_4 
REMARK    2  A    between atoms: N2_4  and  C3_6 
REMARK    3  A    between atoms: C4_9  and  N4_10 
REMARK    4  A    between atoms: N4_10  and  C5_11 
REMARK    5  A    between atoms: N4_10  and  C7_15 
REMARK    6  A    between atoms: C5_11  and  C6_12 
REMARK    7  A    between atoms: C6_12  and  O1_13 
REMARK    8  A    between atoms: C7_15  and  C8_16 
REMARK    9  A    between atoms: C8_16  and  O2_17 
REMARK   10  A    between atoms: C10_20  and  N5_21 
ROOT
HETATM    1  N1  UNL     1      -8.840   3.943   0.723  1.00  0.00    -0.191 NA
HETATM    2  C1  UNL     1      -8.647   3.598  -0.354  1.00  0.00     0.105 C 
HETATM    3  C2  UNL     1      -8.399   3.190  -1.720  1.00  0.00     0.200 C 
ENDROOT
BRANCH   3   4
HETATM    4  N2  UNL     1      -8.146   1.806  -1.914  1.00  0.00    -0.192 N 
ATOM      5  H2  UNL     1      -7.174   1.508  -1.843  1.00  0.00     0.184 HD
BRANCH   4   6
HETATM    6  C3  UNL     1      -9.010   0.886  -2.169  1.00  0.00     0.695 A 
HETATM    7  N3  UNL     1     -10.344   0.924  -2.167  1.00  0.00    -0.173 N 
HETATM    8  C4  UNL     1     -10.888  -0.277  -2.473  1.00  0.00     0.151 A 
ATOM      9  H3  UNL     1     -10.890   1.760  -1.958  1.00  0.00     0.186 HD
HETATM   10  C9  UNL     1      -9.783  -1.106  -2.674  1.00  0.00     0.151 A 
HETATM   11  C10 UNL     1      -9.717  -2.438  -3.012  1.00  0.00     0.146 A 
HETATM   12  N8  UNL     1      -8.676  -0.370  -2.484  1.00  0.00    -0.087 N 
HETATM   13  N6  UNL     1      -8.499  -2.989  -3.148  1.00  0.00    -0.280 N 
HETATM   14  N7  UNL     1      -7.383  -2.272  -2.963  1.00  0.00    -0.249 N 
ATOM     15  H6  UNL     1      -8.422  -3.975  -3.397  1.00  0.00     0.188 HD
HETATM   16  C11 UNL     1      -7.466  -0.984  -2.635  1.00  0.00     0.360 A 
ATOM     17  H7  UNL     1      -6.470  -2.712  -3.073  1.00  0.00     0.192 HD
HETATM   18  O3  UNL     1      -6.427  -0.316  -2.462  1.00  0.00    -0.244 OA
BRANCH   8  19
HETATM   19  N4  UNL     1     -12.258  -0.626  -2.599  1.00  0.00    -0.361 N 
BRANCH  19  20
HETATM   20  C5  UNL     1     -12.987  -0.235  -3.772  1.00  0.00     0.150 C 
BRANCH  20  21
HETATM   21  C6  UNL     1     -12.149  -0.495  -4.992  1.00  0.00     0.183 C 
BRANCH  21  22
HETATM   22  O1  UNL     1     -12.289  -1.809  -5.452  1.00  0.00    -0.399 OA
ATOM     23  H1  UNL     1     -12.859  -1.861  -6.211  1.00  0.00     0.209 HD
ENDBRANCH  21  22
ENDBRANCH  20  21
ENDBRANCH  19  20
BRANCH  19  24
HETATM   24  C7  UNL     1     -12.978  -1.357  -1.578  1.00  0.00     0.150 C 
BRANCH  24  25
HETATM   25  C8  UNL     1     -12.217  -1.526  -0.295  1.00  0.00     0.183 C 
BRANCH  25  26
HETATM   26  O2  UNL     1     -11.705  -2.821  -0.167  1.00  0.00    -0.399 OA
ATOM     27  H2  UNL     1     -11.199  -2.919   0.630  1.00  0.00     0.209 HD
ENDBRANCH  25  26
ENDBRANCH  24  25
ENDBRANCH  19  24
ENDBRANCH   8  19
BRANCH  11  28
HETATM   28  N5  UNL     1     -10.745  -3.174  -3.206  1.00  0.00    -0.382 N 
ATOM     29  H52 UNL     1     -11.200  -3.144  -4.118  1.00  0.00     0.157 HD
ATOM     30  H51 UNL     1     -11.141  -3.791  -2.497  1.00  0.00     0.157 HD
ENDBRANCH  11  28
ENDBRANCH   4   6
ENDBRANCH   3   4
TORSDOF 10
ENDMDL
MODEL 5
REMARK VINA RESULT: -5.897763082      1.771      3.405
REMARK  10 active torsions:
REMARK  status: ('A' for Active; 'I' for Inactive)
REMARK    1  A    between atoms: C2_3  and  N2_4 
REMARK    2  A    between atoms: N2_4  and  C3_6 
REMARK    3  A    between atoms: C4_9  and  N4_10 
REMARK    4  A    between atoms: N4_10  and  C5_11 
REMARK    5  A    between atoms: N4_10  and  C7_15 
REMARK    6  A    between atoms: C5_11  and  C6_12 
REMARK    7  A    between atoms: C6_12  and  O1_13 
REMARK    8  A    between atoms: C7_15  and  C8_16 
REMARK    9  A    between atoms: C8_16  and  O2_17 
REMARK   10  A    between atoms: C10_20  and  N5_21 
ROOT
HETATM    1  N1  UNL     1      -6.241   2.894  -5.237  1.00  0.00    -0.191 NA
HETATM    2  C1  UNL     1      -7.039   2.932  -4.413  1.00  0.00     0.105 C 
HETATM    3  C2  UNL     1      -8.058   3.003  -3.389  1.00  0.00     0.200 C 
ENDROOT
BRANCH   3   4
HETATM    4  N2  UNL     1      -8.165   1.865  -2.545  1.00  0.00    -0.192 N 
ATOM      5  H2  UNL     1      -7.477   1.790  -1.795  1.00  0.00     0.184 HD
BRANCH   4   6
HETATM    6  C3  UNL     1      -9.033   0.917  -2.623  1.00  0.00     0.695 A 
HETATM    7  N3  UNL     1     -10.364   0.951  -2.541  1.00  0.00    -0.173 N 
HETATM    8  C4  UNL     1     -10.912  -0.282  -2.653  1.00  0.00     0.151 A 
ATOM      9  H3  UNL     1     -10.905   1.806  -2.408  1.00  0.00     0.186 HD
HETATM   10  C9  UNL     1      -9.814  -1.127  -2.815  1.00  0.00     0.151 A 
HETATM   11  C10 UNL     1      -9.754  -2.491  -2.980  1.00  0.00     0.146 A 
HETATM   12  N8  UNL     1      -8.705  -0.369  -2.793  1.00  0.00    -0.087 N 
HETATM   13  N6  UNL     1      -8.541  -3.051  -3.121  1.00  0.00    -0.280 N 
HETATM   14  N7  UNL     1      -7.424  -2.313  -3.103  1.00  0.00    -0.249 N 
ATOM     15  H6  UNL     1      -8.469  -4.061  -3.245  1.00  0.00     0.188 HD
HETATM   16  C11 UNL     1      -7.500  -0.993  -2.940  1.00  0.00     0.360 A 
ATOM     17  H7  UNL     1      -6.514  -2.761  -3.213  1.00  0.00     0.192 HD
HETATM   18  O3  UNL     1      -6.459  -0.306  -2.922  1.00  0.00    -0.244 OA
BRANCH   8  19
HETATM   19  N4  UNL     1     -12.284  -0.648  -2.645  1.00  0.00    -0.361 N 
BRANCH  19  20
HETATM   20  C5  UNL     1     -13.078  -0.460  -3.825  1.00  0.00     0.150 C 
BRANCH  20  21
HETATM   21  C6  UNL     1     -12.208  -0.608  -5.042  1.00  0.00     0.183 C 
BRANCH  21  22
HETATM   22  O1  UNL     1     -12.207  -1.921  -5.528  1.00  0.00    -0.399 OA
ATOM     23  H1  UNL     1     -11.494  -2.073  -6.137  1.00  0.00     0.209 HD
ENDBRANCH  21  22
ENDBRANCH  20  21
ENDBRANCH  19  20
BRANCH  19  24
HETATM   24  C7  UNL     1     -12.941  -1.197  -1.478  1.00  0.00     0.150 C 
BRANCH  24  25
HETATM   25  C8  UNL     1     -12.056  -1.306  -0.271  1.00  0.00     0.183 C 
BRANCH  25  26
HETATM   26  O2  UNL     1     -11.672  -2.628  -0.031  1.00  0.00    -0.399 OA
ATOM     27  H2  UNL     1     -10.891  -2.860  -0.519  1.00  0.00     0.209 HD
ENDBRANCH  25  26
ENDBRANCH  24  25
ENDBRANCH  19  24
ENDBRANCH   8  19
BRANCH  11  28
HETATM   28  N5  UNL     1     -10.784  -3.249  -3.011  1.00  0.00    -0.382 N 
ATOM     29  H52 UNL     1     -11.261  -3.387  -3.901  1.00  0.00     0.157 HD
ATOM     30  H51 UNL     1     -11.161  -3.725  -2.192  1.00  0.00     0.157 HD
ENDBRANCH  11  28
ENDBRANCH   4   6
ENDBRANCH   3   4
TORSDOF 10
ENDMDL
