MODEL 1
REMARK VINA RESULT: -5.028028175      0.000      0.000
REMARK  2 active torsions:
REMARK  status: ('A' for Active; 'I' for Inactive)
REMARK    1  A    between atoms: O1_1  and  C1_3 
REMARK    2  A    between atoms: C1_3  and  C2_5 
ROOT
HETATM    1  C2  UNL     1      13.980  10.096  -3.102  1.00  0.00     0.054 C 
HETATM    2  C3  UNL     1      12.811  10.186  -2.111  1.00  0.00     0.012 C 
HETATM    3  C4  UNL     1      13.335  11.057  -0.977  1.00  0.00     0.001 C 
HETATM    4  C5  UNL     1      14.780  10.775  -0.716  1.00  0.00     0.000 C 
HETATM    5  C6  UNL     1      15.201   9.379  -1.097  1.00  0.00     0.001 C 
HETATM    6  C7  UNL     1      14.910   9.038  -2.527  1.00  0.00     0.012 C 
ENDROOT
BRANCH   1   7
HETATM    7  C1  UNL     1      13.459   9.686  -4.425  1.00  0.00     0.114 C 
HETATM    8  S1  UNL     1      11.916   9.243  -4.617  1.00  0.00    -0.058 SA
BRANCH   7   9
HETATM    9  O1  UNL     1      14.326   9.691  -5.497  1.00  0.00    -0.354 OA
ATOM     10  H1  UNL     1      15.151  10.159  -5.449  1.00  0.00     0.218 HD
ENDBRANCH   7   9
ENDBRANCH   1   7
TORSDOF 2
ENDMDL
MODEL 2
REMARK VINA RESULT: -5.021366138      2.868      3.759
REMARK  2 active torsions:
REMARK  status: ('A' for Active; 'I' for Inactive)
REMARK    1  A    between atoms: O1_1  and  C1_3 
REMARK    2  A    between atoms: C1_3  and  C2_5 
ROOT
HETATM    1  C2  UNL     1      14.549   9.213  -2.304  1.00  0.00     0.054 C 
HETATM    2  C3  UNL     1      13.265  10.050  -2.387  1.00  0.00     0.012 C 
HETATM    3  C4  UNL     1      12.622   9.637  -3.705  1.00  0.00     0.001 C 
HETATM    4  C5  UNL     1      13.663   9.391  -4.749  1.00  0.00     0.000 C 
HETATM    5  C6  UNL     1      14.933  10.172  -4.530  1.00  0.00     0.001 C 
HETATM    6  C7  UNL     1      15.555   9.936  -3.187  1.00  0.00     0.012 C 
ENDROOT
BRANCH   1   7
HETATM    7  C1  UNL     1      15.006   9.173  -0.898  1.00  0.00     0.114 C 
HETATM    8  S1  UNL     1      15.687  10.463  -0.200  1.00  0.00    -0.058 SA
BRANCH   7   9
HETATM    9  O1  UNL     1      14.837   8.001  -0.190  1.00  0.00    -0.354 OA
ATOM     10  H1  UNL     1      14.280   7.309  -0.527  1.00  0.00     0.218 HD
ENDBRANCH   7   9
ENDBRANCH   1   7
TORSDOF 2
ENDMDL
MODEL 3
REMARK VINA RESULT: -4.936482622      1.268      2.020
REMARK  2 active torsions:
REMARK  status: ('A' for Active; 'I' for Inactive)
REMARK    1  A    between atoms: O1_1  and  C1_3 
REMARK    2  A    between atoms: C1_3  and  C2_5 
ROOT
HETATM    1  C2  UNL     1      13.764   9.175  -3.037  1.00  0.00     0.054 C 
HETATM    2  C3  UNL     1      14.901  10.012  -3.642  1.00  0.00     0.012 C 
HETATM    3  C4  UNL     1      15.908  10.167  -2.509  1.00  0.00     0.001 C 
HETATM    4  C5  UNL     1      15.211  10.323  -1.197  1.00  0.00     0.000 C 
HETATM    5  C6  UNL     1      13.833  10.922  -1.313  1.00  0.00     0.001 C 
HETATM    6  C7  UNL     1      12.928  10.160  -2.234  1.00  0.00     0.012 C 
ENDROOT
BRANCH   1   7
HETATM    7  C1  UNL     1      12.974   8.574  -4.133  1.00  0.00     0.114 C 
HETATM    8  S1  UNL     1      11.730   9.362  -4.799  1.00  0.00    -0.058 SA
BRANCH   7   9
HETATM    9  O1  UNL     1      13.327   7.317  -4.577  1.00  0.00    -0.354 OA
ATOM     10  H1  UNL     1      13.291   6.570  -3.991  1.00  0.00     0.218 HD
ENDBRANCH   7   9
ENDBRANCH   1   7
TORSDOF 2
ENDMDL
MODEL 4
REMARK VINA RESULT: -4.892893048      2.722      3.638
REMARK  2 active torsions:
REMARK  status: ('A' for Active; 'I' for Inactive)
REMARK    1  A    between atoms: O1_1  and  C1_3 
REMARK    2  A    between atoms: C1_3  and  C2_5 
ROOT
HETATM    1  C2  UNL     1      14.519   9.374  -2.090  1.00  0.00     0.054 C 
HETATM    2  C3  UNL     1      13.238  10.169  -2.379  1.00  0.00     0.012 C 
HETATM    3  C4  UNL     1      12.716   9.592  -3.689  1.00  0.00     0.001 C 
HETATM    4  C5  UNL     1      13.845   9.247  -4.605  1.00  0.00     0.000 C 
HETATM    5  C6  UNL     1      15.084  10.074  -4.374  1.00  0.00     0.001 C 
HETATM    6  C7  UNL     1      15.590  10.008  -2.965  1.00  0.00     0.012 C 
ENDROOT
BRANCH   1   7
HETATM    7  C1  UNL     1      14.854   9.507  -0.655  1.00  0.00     0.114 C 
HETATM    8  S1  UNL     1      13.699   9.692   0.461  1.00  0.00    -0.058 SA
BRANCH   7   9
HETATM    9  O1  UNL     1      16.183   9.471  -0.289  1.00  0.00    -0.354 OA
ATOM     10  H1  UNL     1      16.444   9.099   0.545  1.00  0.00     0.218 HD
ENDBRANCH   7   9
ENDBRANCH   1   7
TORSDOF 2
ENDMDL
MODEL 5
REMARK VINA RESULT: -4.857352380      0.742      1.741
REMARK  2 active torsions:
REMARK  status: ('A' for Active; 'I' for Inactive)
REMARK    1  A    between atoms: O1_1  and  C1_3 
REMARK    2  A    between atoms: C1_3  and  C2_5 
ROOT
HETATM    1  C2  UNL     1      13.640   9.413  -2.962  1.00  0.00     0.054 C 
HETATM    2  C3  UNL     1      15.052  10.009  -2.875  1.00  0.00     0.012 C 
HETATM    3  C4  UNL     1      15.627   9.448  -1.580  1.00  0.00     0.001 C 
HETATM    4  C5  UNL     1      14.570   9.356  -0.527  1.00  0.00     0.000 C 
HETATM    5  C6  UNL     1      13.455  10.354  -0.702  1.00  0.00     0.001 C 
HETATM    6  C7  UNL     1      12.786  10.273  -2.041  1.00  0.00     0.012 C 
ENDROOT
BRANCH   1   7
HETATM    7  C1  UNL     1      13.167   9.498  -4.361  1.00  0.00     0.114 C 
HETATM    8  S1  UNL     1      11.600   9.343  -4.727  1.00  0.00    -0.058 SA
BRANCH   7   9
HETATM    9  O1  UNL     1      14.101   9.713  -5.352  1.00  0.00    -0.354 OA
ATOM     10  H1  UNL     1      15.028   9.607  -5.174  1.00  0.00     0.218 HD
ENDBRANCH   7   9
ENDBRANCH   1   7
TORSDOF 2
ENDMDL
