MODEL 1
REMARK VINA RESULT: -7.983293604      0.000      0.000
REMARK  3 active torsions:
REMARK  status: ('A' for Active; 'I' for Inactive)
REMARK    1  A    between atoms: N1_2  and  C2_4 
REMARK    2  A    between atoms: C3_7  and  C4_8 
REMARK    3  A    between atoms: C8_20  and  N8_21 
ROOT
HETATM    1  C2  UNL     1      16.707   9.896   1.364  1.00  0.00     0.139 A 
HETATM    2  N2  UNL     1      15.955   9.671   0.285  1.00  0.00    -0.325 N 
ATOM      3  H2  UNL     1      15.267   8.920   0.329  1.00  0.00     0.169 HD
HETATM    4  C3  UNL     1      16.050  10.388  -0.878  1.00  0.00     0.138 A 
HETATM    5  N6  UNL     1      16.944  11.358  -0.918  1.00  0.00    -0.327 N 
ATOM      6  H6  UNL     1      17.039  11.912  -1.769  1.00  0.00     0.168 HD
HETATM    7  C7  UNL     1      17.750  11.641   0.163  1.00  0.00     0.155 A 
HETATM    8  N7  UNL     1      18.691  12.683   0.067  1.00  0.00    -0.080 NA
HETATM    9  C8  UNL     1      17.640  10.913   1.314  1.00  0.00     0.187 A 
ENDROOT
BRANCH   4  10
HETATM   10  C4  UNL     1      15.172  10.083  -2.025  1.00  0.00     0.110 A 
HETATM   11  N3  UNL     1      15.656  10.206  -3.243  1.00  0.00    -0.334 N 
HETATM   12  C5  UNL     1      14.935   9.952  -4.287  1.00  0.00     0.160 A 
ATOM     13  H3  UNL     1      16.621  10.509  -3.367  1.00  0.00     0.168 HD
HETATM   14  N4  UNL     1      15.346  10.044  -5.652  1.00  0.00    -0.074 NA
HETATM   15  S1  UNL     1      13.449   9.496  -3.610  1.00  0.00    -0.040 SA
HETATM   16  C6  UNL     1      13.879   9.674  -1.929  1.00  0.00     0.120 A 
HETATM   17  N5  UNL     1      13.012   9.417  -0.815  1.00  0.00    -0.092 NA
ENDBRANCH   4  10
BRANCH   1  18
HETATM   18  N1  UNL     1      16.639   9.242   2.449  1.00  0.00    -0.379 N 
HETATM   19  C1  UNL     1      15.556   9.195   3.368  1.00  0.00     0.147 C 
ATOM     20  H1  UNL     1      17.458   8.683   2.689  1.00  0.00     0.160 HD
ENDBRANCH   1  18
BRANCH   9  21
HETATM   21  N8  UNL     1      18.470  11.194   2.463  1.00  0.00    -0.108 N 
HETATM   22  O1  UNL     1      19.644  10.835   2.530  1.00  0.00    -0.532 OA
HETATM   23  O2  UNL     1      17.916  11.890   3.507  1.00  0.00    -0.532 OA
ENDBRANCH   9  21
TORSDOF 3
ENDMDL
MODEL 2
REMARK VINA RESULT: -7.824467473      3.666      4.299
REMARK  3 active torsions:
REMARK  status: ('A' for Active; 'I' for Inactive)
REMARK    1  A    between atoms: N1_2  and  C2_4 
REMARK    2  A    between atoms: C3_7  and  C4_8 
REMARK    3  A    between atoms: C8_20  and  N8_21 
ROOT
HETATM    1  C2  UNL     1      19.271   9.569   2.168  1.00  0.00     0.139 A 
HETATM    2  N2  UNL     1      17.980   9.285   2.355  1.00  0.00    -0.325 N 
ATOM      3  H2  UNL     1      17.747   8.430   2.860  1.00  0.00     0.169 HD
HETATM    4  C3  UNL     1      16.950  10.071   1.910  1.00  0.00     0.138 A 
HETATM    5  N6  UNL     1      17.269  11.174   1.260  1.00  0.00    -0.327 N 
ATOM      6  H6  UNL     1      16.526  11.781   0.917  1.00  0.00     0.168 HD
HETATM    7  C7  UNL     1      18.583  11.524   1.035  1.00  0.00     0.155 A 
HETATM    8  N7  UNL     1      18.869  12.709   0.331  1.00  0.00    -0.080 NA
HETATM    9  C8  UNL     1      19.596  10.726   1.486  1.00  0.00     0.187 A 
ENDROOT
BRANCH   4  10
HETATM   10  C4  UNL     1      15.548   9.690   2.169  1.00  0.00     0.110 A 
HETATM   11  N3  UNL     1      15.138   8.494   1.800  1.00  0.00    -0.334 N 
HETATM   12  C5  UNL     1      13.921   8.103   2.001  1.00  0.00     0.160 A 
ATOM     13  H3  UNL     1      15.795   7.861   1.346  1.00  0.00     0.168 HD
HETATM   14  N4  UNL     1      13.363   6.836   1.653  1.00  0.00    -0.074 NA
HETATM   15  S1  UNL     1      13.220   9.447   2.761  1.00  0.00    -0.040 SA
HETATM   16  C6  UNL     1      14.623  10.484   2.770  1.00  0.00     0.120 A 
HETATM   17  N5  UNL     1      14.674  11.813   3.309  1.00  0.00    -0.092 NA
ENDBRANCH   4  10
BRANCH   1  18
HETATM   18  N1  UNL     1      20.240   8.855   2.566  1.00  0.00    -0.379 N 
HETATM   19  C1  UNL     1      20.252   7.933   3.648  1.00  0.00     0.147 C 
ATOM     20  H1  UNL     1      21.113   8.953   2.049  1.00  0.00     0.160 HD
ENDBRANCH   1  18
BRANCH   9  21
HETATM   21  N8  UNL     1      20.981  11.075   1.267  1.00  0.00    -0.108 N 
HETATM   22  O1  UNL     1      21.619  10.663   0.301  1.00  0.00    -0.532 OA
HETATM   23  O2  UNL     1      21.592  11.898   2.178  1.00  0.00    -0.532 OA
ENDBRANCH   9  21
TORSDOF 3
ENDMDL
MODEL 3
REMARK VINA RESULT: -7.443657290      4.839      7.989
REMARK  3 active torsions:
REMARK  status: ('A' for Active; 'I' for Inactive)
REMARK    1  A    between atoms: N1_2  and  C2_4 
REMARK    2  A    between atoms: C3_7  and  C4_8 
REMARK    3  A    between atoms: C8_20  and  N8_21 
ROOT
HETATM    1  C2  UNL     1      15.520   9.142   2.799  1.00  0.00     0.139 A 
HETATM    2  N2  UNL     1      15.563   9.325   4.120  1.00  0.00    -0.325 N 
ATOM      3  H2  UNL     1      16.475   9.473   4.554  1.00  0.00     0.169 HD
HETATM    4  C3  UNL     1      14.459   9.326   4.930  1.00  0.00     0.138 A 
HETATM    5  N6  UNL     1      13.287   9.136   4.355  1.00  0.00    -0.327 N 
ATOM      6  H6  UNL     1      12.445   9.132   4.929  1.00  0.00     0.168 HD
HETATM    7  C7  UNL     1      13.175   8.941   2.995  1.00  0.00     0.155 A 
HETATM    8  N7  UNL     1      11.901   8.738   2.431  1.00  0.00    -0.080 NA
HETATM    9  C8  UNL     1      14.289   8.943   2.204  1.00  0.00     0.187 A 
ENDROOT
BRANCH   4  10
HETATM   10  C4  UNL     1      14.592   9.547   6.384  1.00  0.00     0.110 A 
HETATM   11  N3  UNL     1      13.658  10.236   7.008  1.00  0.00    -0.334 N 
HETATM   12  C5  UNL     1      13.719  10.461   8.280  1.00  0.00     0.160 A 
ATOM     13  H3  UNL     1      12.869  10.601   6.475  1.00  0.00     0.168 HD
HETATM   14  N4  UNL     1      12.772  11.186   9.065  1.00  0.00    -0.074 NA
HETATM   15  S1  UNL     1      15.160   9.685   8.726  1.00  0.00    -0.040 SA
HETATM   16  C6  UNL     1      15.615   9.088   7.152  1.00  0.00     0.120 A 
HETATM   17  N5  UNL     1      16.788   8.313   6.861  1.00  0.00    -0.092 NA
ENDBRANCH   4  10
BRANCH   1  18
HETATM   18  N1  UNL     1      16.529   9.132   2.031  1.00  0.00    -0.379 N 
HETATM   19  C1  UNL     1      17.390  10.217   1.715  1.00  0.00     0.147 C 
ATOM     20  H1  UNL     1      16.748   8.240   1.589  1.00  0.00     0.160 HD
ENDBRANCH   1  18
BRANCH   9  21
HETATM   21  N8  UNL     1      14.196   8.748   0.775  1.00  0.00    -0.108 N 
HETATM   22  O1  UNL     1      14.221   7.632   0.260  1.00  0.00    -0.532 OA
HETATM   23  O2  UNL     1      14.074   9.856  -0.022  1.00  0.00    -0.532 OA
ENDBRANCH   9  21
TORSDOF 3
ENDMDL
MODEL 4
REMARK VINA RESULT: -7.387930342      4.607      6.997
REMARK  3 active torsions:
REMARK  status: ('A' for Active; 'I' for Inactive)
REMARK    1  A    between atoms: N1_2  and  C2_4 
REMARK    2  A    between atoms: C3_7  and  C4_8 
REMARK    3  A    between atoms: C8_20  and  N8_21 
ROOT
HETATM    1  C2  UNL     1      18.378  10.644   2.317  1.00  0.00     0.139 A 
HETATM    2  N2  UNL     1      18.950   9.610   2.937  1.00  0.00    -0.325 N 
ATOM      3  H2  UNL     1      18.372   9.046   3.560  1.00  0.00     0.169 HD
HETATM    4  C3  UNL     1      20.266   9.260   2.789  1.00  0.00     0.138 A 
HETATM    5  N6  UNL     1      21.000   9.999   1.978  1.00  0.00    -0.327 N 
ATOM      6  H6  UNL     1      21.983   9.764   1.845  1.00  0.00     0.168 HD
HETATM    7  C7  UNL     1      20.469  11.079   1.308  1.00  0.00     0.155 A 
HETATM    8  N7  UNL     1      21.296  11.838   0.459  1.00  0.00    -0.080 NA
HETATM    9  C8  UNL     1      19.154  11.413   1.470  1.00  0.00     0.187 A 
ENDROOT
BRANCH   4  10
HETATM   10  C4  UNL     1      20.819   8.093   3.503  1.00  0.00     0.110 A 
HETATM   11  N3  UNL     1      20.071   7.017   3.635  1.00  0.00    -0.334 N 
HETATM   12  C5  UNL     1      20.501   5.963   4.249  1.00  0.00     0.160 A 
ATOM     13  H3  UNL     1      19.130   7.015   3.243  1.00  0.00     0.168 HD
HETATM   14  N4  UNL     1      19.790   4.742   4.451  1.00  0.00    -0.074 NA
HETATM   15  S1  UNL     1      22.067   6.419   4.714  1.00  0.00    -0.040 SA
HETATM   16  C6  UNL     1      22.063   8.030   4.047  1.00  0.00     0.120 A 
HETATM   17  N5  UNL     1      23.154   8.960   4.108  1.00  0.00    -0.092 NA
ENDBRANCH   4  10
BRANCH   1  18
HETATM   18  N1  UNL     1      17.164  10.989   2.443  1.00  0.00    -0.379 N 
HETATM   19  C1  UNL     1      16.019  10.352   1.894  1.00  0.00     0.147 C 
ATOM     20  H1  UNL     1      16.990  11.822   3.006  1.00  0.00     0.160 HD
ENDBRANCH   1  18
BRANCH   9  21
HETATM   21  N8  UNL     1      18.572  12.537   0.774  1.00  0.00    -0.108 N 
HETATM   22  O1  UNL     1      18.283  12.493  -0.420  1.00  0.00    -0.532 OA
HETATM   23  O2  UNL     1      18.339  13.687   1.483  1.00  0.00    -0.532 OA
ENDBRANCH   9  21
TORSDOF 3
ENDMDL
MODEL 5
REMARK VINA RESULT: -7.329388912      3.063      4.528
REMARK  3 active torsions:
REMARK  status: ('A' for Active; 'I' for Inactive)
REMARK    1  A    between atoms: N1_2  and  C2_4 
REMARK    2  A    between atoms: C3_7  and  C4_8 
REMARK    3  A    between atoms: C8_20  and  N8_21 
ROOT
HETATM    1  C2  UNL     1      19.252   9.742   2.193  1.00  0.00     0.139 A 
HETATM    2  N2  UNL     1      17.955   9.495   2.387  1.00  0.00    -0.325 N 
ATOM      3  H2  UNL     1      17.702   8.700   2.975  1.00  0.00     0.169 HD
HETATM    4  C3  UNL     1      16.943  10.241   1.844  1.00  0.00     0.138 A 
HETATM    5  N6  UNL     1      17.288  11.266   1.088  1.00  0.00    -0.327 N 
ATOM      6  H6  UNL     1      16.558  11.843   0.669  1.00  0.00     0.168 HD
HETATM    7  C7  UNL     1      18.609  11.575   0.850  1.00  0.00     0.155 A 
HETATM    8  N7  UNL     1      18.923  12.676   0.031  1.00  0.00    -0.080 NA
HETATM    9  C8  UNL     1      19.604  10.817   1.400  1.00  0.00     0.187 A 
ENDROOT
BRANCH   4  10
HETATM   10  C4  UNL     1      15.532   9.906   2.116  1.00  0.00     0.110 A 
HETATM   11  N3  UNL     1      15.212   9.425   3.300  1.00  0.00    -0.334 N 
HETATM   12  C5  UNL     1      13.992   9.115   3.597  1.00  0.00     0.160 A 
ATOM     13  H3  UNL     1      15.943   9.294   3.998  1.00  0.00     0.168 HD
HETATM   14  N4  UNL     1      13.523   8.592   4.841  1.00  0.00    -0.074 NA
HETATM   15  S1  UNL     1      13.154   9.492   2.172  1.00  0.00    -0.040 SA
HETATM   16  C6  UNL     1      14.510  10.057   1.232  1.00  0.00     0.120 A 
HETATM   17  N5  UNL     1      14.445  10.544  -0.116  1.00  0.00    -0.092 NA
ENDBRANCH   4  10
BRANCH   1  18
HETATM   18  N1  UNL     1      20.205   9.062   2.682  1.00  0.00    -0.379 N 
HETATM   19  C1  UNL     1      20.120   7.994   3.616  1.00  0.00     0.147 C 
ATOM     20  H1  UNL     1      21.142   9.311   2.366  1.00  0.00     0.160 HD
ENDBRANCH   1  18
BRANCH   9  21
HETATM   21  N8  UNL     1      20.997  11.125   1.170  1.00  0.00    -0.108 N 
HETATM   22  O1  UNL     1      21.633  10.640   0.237  1.00  0.00    -0.532 OA
HETATM   23  O2  UNL     1      21.618  11.993   2.032  1.00  0.00    -0.532 OA
ENDBRANCH   9  21
TORSDOF 3
ENDMDL
