MODEL 1
REMARK VINA RESULT: -8.824459910      0.000      0.000
REMARK  11 active torsions:
REMARK  status: ('A' for Active; 'I' for Inactive)
REMARK    1  A    between atoms: O1_2  and  C2_3 
REMARK    2  A    between atoms: C2_3  and  C3_5 
REMARK    3  A    between atoms: C3_5  and  C4_7 
REMARK    4  A    between atoms: C4_7  and  O4_8 
REMARK    5  A    between atoms: C4_7  and  C13_31 
REMARK    6  A    between atoms: O4_8  and  C5_9 
REMARK    7  A    between atoms: C5_9  and  C6_11 
REMARK    8  A    between atoms: C6_11  and  N1_13 
REMARK    9  A    between atoms: N1_13  and  C8_15 
REMARK   10  A    between atoms: C11_22  and  N4_23 
REMARK   11  A    between atoms: N7_33  and  O6_35 
ROOT
HETATM    1  C6  UNL     1      14.059   9.259   1.870  1.00  0.00     0.195 C 
HETATM    2  C7  UNL     1      14.232   7.941   1.176  1.00  0.00     0.043 C 
ENDROOT
BRANCH   1   3
HETATM    3  C5  UNL     1      15.240   9.472   2.763  1.00  0.00     0.283 C 
HETATM    4  O5  UNL     1      15.484   8.724   3.750  1.00  0.00    -0.263 OA
BRANCH   3   5
HETATM    5  O4  UNL     1      16.125  10.517   2.536  1.00  0.00    -0.300 OA
BRANCH   5   6
HETATM    6  C4  UNL     1      17.353  10.373   1.895  1.00  0.00     0.259 C 
BRANCH   6   7
HETATM    7  C3  UNL     1      17.876  11.658   1.356  1.00  0.00     0.258 C 
HETATM    8  O3  UNL     1      17.740  12.735   1.984  1.00  0.00    -0.283 OA
BRANCH   7   9
HETATM    9  C2  UNL     1      18.563  11.699   0.078  1.00  0.00     0.332 C 
HETATM   10  O2  UNL     1      17.956  11.468  -0.995  1.00  0.00    -0.256 OA
BRANCH   9  11
HETATM   11  O1  UNL     1      19.912  11.995   0.009  1.00  0.00    -0.320 OA
HETATM   12  C1  UNL     1      20.828  11.163   0.662  1.00  0.00     0.213 C 
ENDBRANCH   9  11
ENDBRANCH   7   9
ENDBRANCH   6   7
BRANCH   6  13
HETATM   13  C13 UNL     1      18.376   9.719   2.753  1.00  0.00     0.043 C 
HETATM   14  C14 UNL     1      18.731  10.176   4.098  1.00  0.00     0.068 C 
HETATM   15  N7  UNL     1      18.971   8.684   2.253  1.00  0.00    -0.275 N 
ATOM     16  H7  UNL     1      18.725   8.364   1.316  1.00  0.00     0.193 HD
BRANCH  15  17
HETATM   17  O6  UNL     1      19.931   8.013   2.968  1.00  0.00    -0.290 OA
ATOM     18  H6  UNL     1      20.072   7.083   2.837  1.00  0.00     0.244 HD
ENDBRANCH  15  17
ENDBRANCH   6  13
ENDBRANCH   5   6
ENDBRANCH   3   5
ENDBRANCH   1   3
BRANCH   1  19
HETATM   19  N1  UNL     1      13.905  10.354   0.948  1.00  0.00    -0.212 N 
ATOM     20  H1  UNL     1      13.694  11.283   1.314  1.00  0.00     0.178 HD
BRANCH  19  21
HETATM   21  C8  UNL     1      14.037  10.182  -0.461  1.00  0.00     0.681 A 
HETATM   22  N2  UNL     1      13.103   9.805  -1.347  1.00  0.00    -0.187 N 
HETATM   23  C9  UNL     1      13.618   9.757  -2.577  1.00  0.00     0.110 A 
ATOM     24  H2  UNL     1      12.135   9.584  -1.113  1.00  0.00     0.184 HD
HETATM   25  C10 UNL     1      13.124   9.439  -3.837  1.00  0.00     0.140 A 
HETATM   26  C12 UNL     1      14.937  10.123  -2.452  1.00  0.00     0.165 A 
HETATM   27  N3  UNL     1      13.955   9.504  -4.868  1.00  0.00    -0.200 N 
HETATM   28  C11 UNL     1      15.247   9.857  -4.777  1.00  0.00     0.677 A 
ATOM     29  H3  UNL     1      13.588   9.270  -5.791  1.00  0.00     0.183 HD
HETATM   30  N5  UNL     1      15.735  10.166  -3.564  1.00  0.00    -0.174 N 
ATOM     31  H5  UNL     1      16.713  10.437  -3.470  1.00  0.00     0.186 HD
HETATM   32  N6  UNL     1      15.164  10.376  -1.156  1.00  0.00    -0.174 N 
ATOM     33  H6  UNL     1      16.058  10.670  -0.761  1.00  0.00     0.186 HD
BRANCH  28  34
HETATM   34  N4  UNL     1      16.026   9.905  -5.828  1.00  0.00    -0.234 N 
ATOM     35  H42 UNL     1      15.715   9.506  -6.714  1.00  0.00     0.174 HD
ATOM     36  H41 UNL     1      16.951  10.335  -5.794  1.00  0.00     0.174 HD
ENDBRANCH  28  34
ENDBRANCH  19  21
ENDBRANCH   1  19
TORSDOF 11
ENDMDL
MODEL 2
REMARK VINA RESULT: -8.652026519      1.397      1.947
REMARK  11 active torsions:
REMARK  status: ('A' for Active; 'I' for Inactive)
REMARK    1  A    between atoms: O1_2  and  C2_3 
REMARK    2  A    between atoms: C2_3  and  C3_5 
REMARK    3  A    between atoms: C3_5  and  C4_7 
REMARK    4  A    between atoms: C4_7  and  O4_8 
REMARK    5  A    between atoms: C4_7  and  C13_31 
REMARK    6  A    between atoms: O4_8  and  C5_9 
REMARK    7  A    between atoms: C5_9  and  C6_11 
REMARK    8  A    between atoms: C6_11  and  N1_13 
REMARK    9  A    between atoms: N1_13  and  C8_15 
REMARK   10  A    between atoms: C11_22  and  N4_23 
REMARK   11  A    between atoms: N7_33  and  O6_35 
ROOT
HETATM    1  C6  UNL     1      13.620   8.988   1.806  1.00  0.00     0.195 C 
HETATM    2  C7  UNL     1      14.009   7.654   1.242  1.00  0.00     0.043 C 
ENDROOT
BRANCH   1   3
HETATM    3  C5  UNL     1      14.180   9.089   3.189  1.00  0.00     0.283 C 
HETATM    4  O5  UNL     1      13.604   8.577   4.190  1.00  0.00    -0.263 OA
BRANCH   3   5
HETATM    5  O4  UNL     1      15.371   9.759   3.428  1.00  0.00    -0.300 OA
BRANCH   5   6
HETATM    6  C4  UNL     1      16.626   9.158   3.382  1.00  0.00     0.259 C 
BRANCH   6   7
HETATM    7  C3  UNL     1      17.642   9.998   2.692  1.00  0.00     0.258 C 
HETATM    8  O3  UNL     1      18.821   9.601   2.533  1.00  0.00    -0.283 OA
BRANCH   7   9
HETATM    9  C2  UNL     1      17.292  11.309   2.177  1.00  0.00     0.332 C 
HETATM   10  O2  UNL     1      17.189  12.300   2.939  1.00  0.00    -0.256 OA
BRANCH   9  11
HETATM   11  O1  UNL     1      17.061  11.502   0.828  1.00  0.00    -0.320 OA
HETATM   12  C1  UNL     1      18.116  11.913   0.006  1.00  0.00     0.213 C 
ENDBRANCH   9  11
ENDBRANCH   7   9
ENDBRANCH   6   7
BRANCH   6  13
HETATM   13  C13 UNL     1      17.119   8.753   4.725  1.00  0.00     0.043 C 
HETATM   14  C14 UNL     1      16.671   9.358   5.980  1.00  0.00     0.068 C 
HETATM   15  N7  UNL     1      17.997   7.802   4.753  1.00  0.00    -0.275 N 
ATOM     16  H7  UNL     1      18.310   7.378   3.880  1.00  0.00     0.193 HD
BRANCH  15  17
HETATM   17  O6  UNL     1      18.512   7.358   5.945  1.00  0.00    -0.290 OA
ATOM     18  H6  UNL     1      17.944   7.200   6.690  1.00  0.00     0.244 HD
ENDBRANCH  15  17
ENDBRANCH   6  13
ENDBRANCH   5   6
ENDBRANCH   3   5
ENDBRANCH   1   3
BRANCH   1  19
HETATM   19  N1  UNL     1      14.065  10.086   0.988  1.00  0.00    -0.212 N 
ATOM     20  H1  UNL     1      14.329  10.962   1.438  1.00  0.00     0.178 HD
BRANCH  19  21
HETATM   21  C8  UNL     1      14.147   9.987  -0.432  1.00  0.00     0.681 A 
HETATM   22  N2  UNL     1      13.175   9.687  -1.306  1.00  0.00    -0.187 N 
HETATM   23  C9  UNL     1      13.649   9.691  -2.553  1.00  0.00     0.110 A 
ATOM     24  H2  UNL     1      12.208   9.484  -1.052  1.00  0.00     0.184 HD
HETATM   25  C10 UNL     1      13.106   9.457  -3.811  1.00  0.00     0.140 A 
HETATM   26  C12 UNL     1      14.982  10.009  -2.452  1.00  0.00     0.165 A 
HETATM   27  N3  UNL     1      13.907   9.553  -4.864  1.00  0.00    -0.200 N 
HETATM   28  C11 UNL     1      15.212   9.861  -4.797  1.00  0.00     0.677 A 
ATOM     29  H3  UNL     1      13.504   9.381  -5.786  1.00  0.00     0.183 HD
HETATM   30  N5  UNL     1      15.747  10.088  -3.586  1.00  0.00    -0.174 N 
ATOM     31  H5  UNL     1      16.736  10.323  -3.509  1.00  0.00     0.186 HD
HETATM   32  N6  UNL     1      15.258  10.184  -1.152  1.00  0.00    -0.174 N 
ATOM     33  H6  UNL     1      16.172  10.428  -0.771  1.00  0.00     0.186 HD
BRANCH  28  34
HETATM   34  N4  UNL     1      15.959   9.942  -5.869  1.00  0.00    -0.234 N 
ATOM     35  H42 UNL     1      15.645  10.489  -6.670  1.00  0.00     0.174 HD
ATOM     36  H41 UNL     1      16.861   9.470  -5.934  1.00  0.00     0.174 HD
ENDBRANCH  28  34
ENDBRANCH  19  21
ENDBRANCH   1  19
TORSDOF 11
ENDMDL
MODEL 3
REMARK VINA RESULT: -8.640897819      1.554      1.755
REMARK  11 active torsions:
REMARK  status: ('A' for Active; 'I' for Inactive)
REMARK    1  A    between atoms: O1_2  and  C2_3 
REMARK    2  A    between atoms: C2_3  and  C3_5 
REMARK    3  A    between atoms: C3_5  and  C4_7 
REMARK    4  A    between atoms: C4_7  and  O4_8 
REMARK    5  A    between atoms: C4_7  and  C13_31 
REMARK    6  A    between atoms: O4_8  and  C5_9 
REMARK    7  A    between atoms: C5_9  and  C6_11 
REMARK    8  A    between atoms: C6_11  and  N1_13 
REMARK    9  A    between atoms: N1_13  and  C8_15 
REMARK   10  A    between atoms: C11_22  and  N4_23 
REMARK   11  A    between atoms: N7_33  and  O6_35 
ROOT
HETATM    1  C6  UNL     1      13.602   9.026   1.836  1.00  0.00     0.195 C 
HETATM    2  C7  UNL     1      14.066   7.700   1.313  1.00  0.00     0.043 C 
ENDROOT
BRANCH   1   3
HETATM    3  C5  UNL     1      14.109   9.176   3.236  1.00  0.00     0.283 C 
HETATM    4  O5  UNL     1      13.619   8.532   4.205  1.00  0.00    -0.263 OA
BRANCH   3   5
HETATM    5  O4  UNL     1      15.152  10.044   3.526  1.00  0.00    -0.300 OA
BRANCH   5   6
HETATM    6  C4  UNL     1      16.493   9.758   3.284  1.00  0.00     0.259 C 
BRANCH   6   7
HETATM    7  C3  UNL     1      17.339  10.981   3.212  1.00  0.00     0.258 C 
HETATM    8  O3  UNL     1      17.731  11.568   4.248  1.00  0.00    -0.283 OA
BRANCH   7   9
HETATM    9  C2  UNL     1      17.736  11.532   1.928  1.00  0.00     0.332 C 
HETATM   10  O2  UNL     1      16.936  11.573   0.963  1.00  0.00    -0.256 OA
BRANCH   9  11
HETATM   11  O1  UNL     1      19.013  12.026   1.735  1.00  0.00    -0.320 OA
HETATM   12  C1  UNL     1      20.075  11.129   1.576  1.00  0.00     0.213 C 
ENDBRANCH   9  11
ENDBRANCH   7   9
ENDBRANCH   6   7
BRANCH   6  13
HETATM   13  C13 UNL     1      17.062   8.795   4.263  1.00  0.00     0.043 C 
HETATM   14  C14 UNL     1      18.085   7.801   3.936  1.00  0.00     0.068 C 
HETATM   15  N7  UNL     1      16.605   8.867   5.473  1.00  0.00    -0.275 N 
ATOM     16  H7  UNL     1      15.893   9.560   5.703  1.00  0.00     0.193 HD
BRANCH  15  17
HETATM   17  O6  UNL     1      17.069   8.020   6.448  1.00  0.00    -0.290 OA
ATOM     18  H6  UNL     1      17.287   8.349   7.312  1.00  0.00     0.244 HD
ENDBRANCH  15  17
ENDBRANCH   6  13
ENDBRANCH   5   6
ENDBRANCH   3   5
ENDBRANCH   1   3
BRANCH   1  19
HETATM   19  N1  UNL     1      14.028  10.127   1.012  1.00  0.00    -0.212 N 
ATOM     20  H1  UNL     1      14.270  11.012   1.456  1.00  0.00     0.178 HD
BRANCH  19  21
HETATM   21  C8  UNL     1      14.122  10.018  -0.406  1.00  0.00     0.681 A 
HETATM   22  N2  UNL     1      13.160   9.700  -1.285  1.00  0.00    -0.187 N 
HETATM   23  C9  UNL     1      13.643   9.699  -2.528  1.00  0.00     0.110 A 
ATOM     24  H2  UNL     1      12.193   9.487  -1.037  1.00  0.00     0.184 HD
HETATM   25  C10 UNL     1      13.112   9.449  -3.789  1.00  0.00     0.140 A 
HETATM   26  C12 UNL     1      14.972  10.033  -2.420  1.00  0.00     0.165 A 
HETATM   27  N3  UNL     1      13.920   9.546  -4.836  1.00  0.00    -0.200 N 
HETATM   28  C11 UNL     1      15.221   9.870  -4.762  1.00  0.00     0.677 A 
ATOM     29  H3  UNL     1      13.526   9.362  -5.760  1.00  0.00     0.183 HD
HETATM   30  N5  UNL     1      15.744  10.113  -3.549  1.00  0.00    -0.174 N 
ATOM     31  H5  UNL     1      16.730  10.361  -3.467  1.00  0.00     0.186 HD
HETATM   32  N6  UNL     1      15.236  10.222  -1.120  1.00  0.00    -0.174 N 
ATOM     33  H6  UNL     1      16.145  10.480  -0.734  1.00  0.00     0.186 HD
BRANCH  28  34
HETATM   34  N4  UNL     1      15.975   9.952  -5.829  1.00  0.00    -0.234 N 
ATOM     35  H42 UNL     1      16.071  10.841  -6.320  1.00  0.00     0.174 HD
ATOM     36  H41 UNL     1      16.480   9.145  -6.195  1.00  0.00     0.174 HD
ENDBRANCH  28  34
ENDBRANCH  19  21
ENDBRANCH   1  19
TORSDOF 11
ENDMDL
MODEL 4
REMARK VINA RESULT: -8.605540239      1.430      1.961
REMARK  11 active torsions:
REMARK  status: ('A' for Active; 'I' for Inactive)
REMARK    1  A    between atoms: O1_2  and  C2_3 
REMARK    2  A    between atoms: C2_3  and  C3_5 
REMARK    3  A    between atoms: C3_5  and  C4_7 
REMARK    4  A    between atoms: C4_7  and  O4_8 
REMARK    5  A    between atoms: C4_7  and  C13_31 
REMARK    6  A    between atoms: O4_8  and  C5_9 
REMARK    7  A    between atoms: C5_9  and  C6_11 
REMARK    8  A    between atoms: C6_11  and  N1_13 
REMARK    9  A    between atoms: N1_13  and  C8_15 
REMARK   10  A    between atoms: C11_22  and  N4_23 
REMARK   11  A    between atoms: N7_33  and  O6_35 
ROOT
HETATM    1  C6  UNL     1      14.249   9.483   2.101  1.00  0.00     0.195 C 
HETATM    2  C7  UNL     1      13.585   8.174   1.799  1.00  0.00     0.043 C 
ENDROOT
BRANCH   1   3
HETATM    3  C5  UNL     1      15.723   9.246   2.196  1.00  0.00     0.283 C 
HETATM    4  O5  UNL     1      16.219   8.377   2.967  1.00  0.00    -0.263 OA
BRANCH   3   5
HETATM    5  O4  UNL     1      16.614   9.982   1.429  1.00  0.00    -0.300 OA
BRANCH   5   6
HETATM    6  C4  UNL     1      17.683  10.704   1.954  1.00  0.00     0.259 C 
BRANCH   6   7
HETATM    7  C3  UNL     1      18.422  11.475   0.917  1.00  0.00     0.258 C 
HETATM    8  O3  UNL     1      17.827  12.019  -0.043  1.00  0.00    -0.283 OA
BRANCH   7   9
HETATM    9  C2  UNL     1      19.865  11.619   0.991  1.00  0.00     0.332 C 
HETATM   10  O2  UNL     1      20.564  11.701  -0.048  1.00  0.00    -0.256 OA
BRANCH   9  11
HETATM   11  O1  UNL     1      20.510  11.670   2.212  1.00  0.00    -0.320 OA
HETATM   12  C1  UNL     1      21.661  10.900   2.409  1.00  0.00     0.213 C 
ENDBRANCH   9  11
ENDBRANCH   7   9
ENDBRANCH   6   7
BRANCH   6  13
HETATM   13  C13 UNL     1      17.281  11.597   3.072  1.00  0.00     0.043 C 
HETATM   14  C14 UNL     1      17.208  11.177   4.471  1.00  0.00     0.068 C 
HETATM   15  N7  UNL     1      16.985  12.817   2.756  1.00  0.00    -0.275 N 
ATOM     16  H7  UNL     1      17.036  13.113   1.781  1.00  0.00     0.193 HD
BRANCH  15  17
HETATM   17  O6  UNL     1      16.602  13.717   3.718  1.00  0.00    -0.290 OA
ATOM     18  H6  UNL     1      15.897  14.332   3.554  1.00  0.00     0.244 HD
ENDBRANCH  15  17
ENDBRANCH   6  13
ENDBRANCH   5   6
ENDBRANCH   3   5
ENDBRANCH   1   3
BRANCH   1  19
HETATM   19  N1  UNL     1      13.952  10.495   1.121  1.00  0.00    -0.212 N 
ATOM     20  H1  UNL     1      13.643  11.414   1.438  1.00  0.00     0.178 HD
BRANCH  19  21
HETATM   21  C8  UNL     1      14.075  10.252  -0.278  1.00  0.00     0.681 A 
HETATM   22  N2  UNL     1      13.186   9.688  -1.109  1.00  0.00    -0.187 N 
HETATM   23  C9  UNL     1      13.674   9.635  -2.350  1.00  0.00     0.110 A 
ATOM     24  H2  UNL     1      12.265   9.347  -0.831  1.00  0.00     0.184 HD
HETATM   25  C10 UNL     1      13.203   9.168  -3.572  1.00  0.00     0.140 A 
HETATM   26  C12 UNL     1      14.928  10.193  -2.290  1.00  0.00     0.165 A 
HETATM   27  N3  UNL     1      13.992   9.284  -4.631  1.00  0.00    -0.200 N 
HETATM   28  C11 UNL     1      15.221   9.825  -4.603  1.00  0.00     0.677 A 
ATOM     29  H3  UNL     1      13.642   8.941  -5.526  1.00  0.00     0.183 HD
HETATM   30  N5  UNL     1      15.686  10.278  -3.428  1.00  0.00    -0.174 N 
ATOM     31  H5  UNL     1      16.617  10.692  -3.382  1.00  0.00     0.186 HD
HETATM   32  N6  UNL     1      15.146  10.560  -1.019  1.00  0.00    -0.174 N 
ATOM     33  H6  UNL     1      15.996  11.004  -0.672  1.00  0.00     0.186 HD
BRANCH  28  34
HETATM   34  N4  UNL     1      15.961   9.915  -5.680  1.00  0.00    -0.234 N 
ATOM     35  H42 UNL     1      15.784   9.300  -6.474  1.00  0.00     0.174 HD
ATOM     36  H41 UNL     1      16.721  10.591  -5.755  1.00  0.00     0.174 HD
ENDBRANCH  28  34
ENDBRANCH  19  21
ENDBRANCH   1  19
TORSDOF 11
ENDMDL
MODEL 5
REMARK VINA RESULT: -8.510846638      2.763      4.666
REMARK  11 active torsions:
REMARK  status: ('A' for Active; 'I' for Inactive)
REMARK    1  A    between atoms: O1_2  and  C2_3 
REMARK    2  A    between atoms: C2_3  and  C3_5 
REMARK    3  A    between atoms: C3_5  and  C4_7 
REMARK    4  A    between atoms: C4_7  and  O4_8 
REMARK    5  A    between atoms: C4_7  and  C13_31 
REMARK    6  A    between atoms: O4_8  and  C5_9 
REMARK    7  A    between atoms: C5_9  and  C6_11 
REMARK    8  A    between atoms: C6_11  and  N1_13 
REMARK    9  A    between atoms: N1_13  and  C8_15 
REMARK   10  A    between atoms: C11_22  and  N4_23 
REMARK   11  A    between atoms: N7_33  and  O6_35 
ROOT
HETATM    1  C6  UNL     1      13.807  10.098   2.272  1.00  0.00     0.195 C 
HETATM    2  C7  UNL     1      13.096   8.880   2.780  1.00  0.00     0.043 C 
ENDROOT
BRANCH   1   3
HETATM    3  C5  UNL     1      14.274  10.890   3.453  1.00  0.00     0.283 C 
HETATM    4  O5  UNL     1      14.649  12.092   3.354  1.00  0.00    -0.263 OA
BRANCH   3   5
HETATM    5  O4  UNL     1      14.313  10.325   4.719  1.00  0.00    -0.300 OA
BRANCH   5   6
HETATM    6  C4  UNL     1      15.452  10.283   5.519  1.00  0.00     0.259 C 
BRANCH   6   7
HETATM    7  C3  UNL     1      15.201   9.655   6.845  1.00  0.00     0.258 C 
HETATM    8  O3  UNL     1      16.110   9.056   7.468  1.00  0.00    -0.283 OA
BRANCH   7   9
HETATM    9  C2  UNL     1      13.887   9.720   7.459  1.00  0.00     0.332 C 
HETATM   10  O2  UNL     1      13.094   8.751   7.401  1.00  0.00    -0.256 OA
BRANCH   9  11
HETATM   11  O1  UNL     1      13.473  10.858   8.126  1.00  0.00    -0.320 OA
HETATM   12  C1  UNL     1      13.597  10.917   9.519  1.00  0.00     0.213 C 
ENDBRANCH   9  11
ENDBRANCH   7   9
ENDBRANCH   6   7
BRANCH   6  13
HETATM   13  C13 UNL     1      16.603   9.626   4.847  1.00  0.00     0.043 C 
HETATM   14  C14 UNL     1      17.795  10.336   4.382  1.00  0.00     0.068 C 
HETATM   15  N7  UNL     1      16.517   8.345   4.678  1.00  0.00    -0.275 N 
ATOM     16  H7  UNL     1      15.688   7.848   5.003  1.00  0.00     0.193 HD
BRANCH  15  17
HETATM   17  O6  UNL     1      17.530   7.649   4.068  1.00  0.00    -0.290 OA
ATOM     18  H6  UNL     1      17.497   7.461   3.137  1.00  0.00     0.244 HD
ENDBRANCH  15  17
ENDBRANCH   6  13
ENDBRANCH   5   6
ENDBRANCH   3   5
ENDBRANCH   1   3
BRANCH   1  19
HETATM   19  N1  UNL     1      14.906   9.775   1.401  1.00  0.00    -0.212 N 
ATOM     20  H1  UNL     1      15.811   9.544   1.811  1.00  0.00     0.178 HD
BRANCH  19  21
HETATM   21  C8  UNL     1      14.770   9.769  -0.018  1.00  0.00     0.681 A 
HETATM   22  N2  UNL     1      13.685   9.476  -0.751  1.00  0.00    -0.187 N 
HETATM   23  C9  UNL     1      13.959   9.580  -2.053  1.00  0.00     0.110 A 
ATOM     24  H2  UNL     1      12.778   9.211  -0.367  1.00  0.00     0.184 HD
HETATM   25  C10 UNL     1      13.235   9.398  -3.226  1.00  0.00     0.140 A 
HETATM   26  C12 UNL     1      15.278   9.956  -2.137  1.00  0.00     0.165 A 
HETATM   27  N3  UNL     1      13.857   9.598  -4.380  1.00  0.00    -0.200 N 
HETATM   28  C11 UNL     1      15.144   9.965  -4.493  1.00  0.00     0.677 A 
ATOM     29  H3  UNL     1      13.323   9.464  -5.239  1.00  0.00     0.183 HD
HETATM   30  N5  UNL     1      15.852  10.142  -3.366  1.00  0.00    -0.174 N 
ATOM     31  H5  UNL     1      16.831  10.420  -3.426  1.00  0.00     0.186 HD
HETATM   32  N6  UNL     1      15.746  10.063  -0.885  1.00  0.00    -0.174 N 
ATOM     33  H6  UNL     1      16.699  10.328  -0.633  1.00  0.00     0.186 HD
BRANCH  28  34
HETATM   34  N4  UNL     1      15.711  10.148  -5.659  1.00  0.00    -0.234 N 
ATOM     35  H42 UNL     1      16.047   9.349  -6.195  1.00  0.00     0.174 HD
ATOM     36  H41 UNL     1      15.831  11.079  -6.059  1.00  0.00     0.174 HD
ENDBRANCH  28  34
ENDBRANCH  19  21
ENDBRANCH   1  19
TORSDOF 11
ENDMDL
