MODEL 1
REMARK VINA RESULT: -8.777964485      0.000      0.000
REMARK  13 active torsions:
REMARK  status: ('A' for Active; 'I' for Inactive)
REMARK    1  A    between atoms: C2_2  and  O1_3 
REMARK    2  A    between atoms: O1_3  and  C3_4 
REMARK    3  A    between atoms: C3_4  and  C4_5 
REMARK    4  A    between atoms: C3_4  and  C8_9 
REMARK    5  A    between atoms: C4_5  and  C5_6 
REMARK    6  A    between atoms: C8_9  and  O2_10 
REMARK    7  A    between atoms: C8_9  and  N1_12 
REMARK    8  A    between atoms: N1_12  and  C9_14 
REMARK    9  A    between atoms: C10_17  and  N3_18 
REMARK   10  A    between atoms: N3_18  and  C11_20 
REMARK   11  A    between atoms: C11_20  and  C12_21 
REMARK   12  A    between atoms: C12_21  and  C13_22 
REMARK   13  A    between atoms: C20_29  and  C21_30 
ROOT
HETATM    1  C9  UNL     1      22.465 -15.843  18.909  1.00  0.00     0.148 A 
HETATM    2  N2  UNL     1      22.385 -17.164  19.038  1.00  0.00    -0.322 N 
ATOM      3  H2  UNL     1      23.275 -17.653  19.131  1.00  0.00     0.169 HD
HETATM    4  C10 UNL     1      21.307 -17.929  19.060  1.00  0.00     0.114 A 
HETATM    5  C18 UNL     1      19.991 -17.492  18.951  1.00  0.00     0.026 A 
HETATM    6  C19 UNL     1      18.925 -18.398  18.991  1.00  0.00     0.029 A 
HETATM    7  C20 UNL     1      17.609 -17.997  18.886  1.00  0.00     0.007 A 
HETATM    8  C22 UNL     1      17.288 -16.666  18.737  1.00  0.00     0.014 A 
HETATM    9  C23 UNL     1      18.315 -15.748  18.694  1.00  0.00     0.021 A 
HETATM   10  C24 UNL     1      19.637 -16.175  18.801  1.00  0.00     0.022 A 
HETATM   11  S1  UNL     1      20.937 -15.062  18.754  1.00  0.00    -0.053 SA
ENDROOT
BRANCH   1  12
HETATM   12  N1  UNL     1      23.540 -15.159  18.901  1.00  0.00    -0.342 N 
ATOM     13  H1  UNL     1      23.506 -14.251  18.436  1.00  0.00     0.164 HD
BRANCH  12  14
HETATM   14  C8  UNL     1      24.780 -15.540  19.477  1.00  0.00     0.248 C 
BRANCH  14  15
HETATM   15  C3  UNL     1      25.582 -14.272  19.950  1.00  0.00     0.170 C 
BRANCH  15  16
HETATM   16  O1  UNL     1      25.567 -13.469  18.844  1.00  0.00    -0.382 OA
BRANCH  16  17
HETATM   17  C2  UNL     1      26.232 -12.298  18.853  1.00  0.00     0.164 C 
HETATM   18  C1  UNL     1      26.616 -11.645  17.582  1.00  0.00     0.033 C 
ENDBRANCH  16  17
ENDBRANCH  15  16
BRANCH  15  19
HETATM   19  C4  UNL     1      26.930 -14.697  20.367  1.00  0.00     0.040 C 
BRANCH  19  20
HETATM   20  C5  UNL     1      27.791 -15.344  19.338  1.00  0.00    -0.020 C 
HETATM   21  C6  UNL     1      29.031 -14.511  19.102  1.00  0.00     0.009 C 
HETATM   22  C7  UNL     1      28.262 -16.702  19.868  1.00  0.00     0.009 C 
ENDBRANCH  19  20
ENDBRANCH  15  19
ENDBRANCH  14  15
BRANCH  14  23
HETATM   23  O2  UNL     1      24.628 -16.316  20.599  1.00  0.00    -0.374 OA
ATOM     24  H2  UNL     1      25.454 -16.255  21.063  1.00  0.00     0.212 HD
ENDBRANCH  14  23
ENDBRANCH  12  14
ENDBRANCH   1  12
BRANCH   4  25
HETATM   25  N3  UNL     1      21.418 -19.219  19.187  1.00  0.00    -0.376 N 
ATOM     26  H3  UNL     1      20.591 -19.814  19.140  1.00  0.00     0.161 HD
BRANCH  25  27
HETATM   27  C11 UNL     1      22.717 -19.797  19.395  1.00  0.00     0.121 C 
BRANCH  27  28
HETATM   28  C12 UNL     1      23.130 -20.654  18.201  1.00  0.00     0.024 C 
BRANCH  28  29
HETATM   29  C13 UNL     1      24.253 -19.918  17.505  1.00  0.00    -0.013 C 
HETATM   30  C14 UNL     1      25.119 -19.162  18.502  1.00  0.00     0.005 C 
HETATM   31  C15 UNL     1      25.946 -18.289  17.559  1.00  0.00     0.000 C 
HETATM   32  C16 UNL     1      24.970 -17.899  16.486  1.00  0.00     0.000 C 
HETATM   33  C17 UNL     1      23.779 -18.824  16.604  1.00  0.00     0.005 C 
ENDBRANCH  28  29
ENDBRANCH  27  28
ENDBRANCH  25  27
ENDBRANCH   4  25
BRANCH   7  34
HETATM   34  C21 UNL     1      16.501 -19.014  18.936  1.00  0.00     0.386 C 
HETATM   35  F1  UNL     1      16.469 -19.747  17.763  1.00  0.00    -0.209 F 
HETATM   36  F2  UNL     1      15.284 -18.402  19.156  1.00  0.00    -0.209 F 
ENDBRANCH   7  34
TORSDOF 13
ENDMDL
MODEL 2
REMARK VINA RESULT: -8.636620919      4.340      7.949
REMARK  13 active torsions:
REMARK  status: ('A' for Active; 'I' for Inactive)
REMARK    1  A    between atoms: C2_2  and  O1_3 
REMARK    2  A    between atoms: O1_3  and  C3_4 
REMARK    3  A    between atoms: C3_4  and  C4_5 
REMARK    4  A    between atoms: C3_4  and  C8_9 
REMARK    5  A    between atoms: C4_5  and  C5_6 
REMARK    6  A    between atoms: C8_9  and  O2_10 
REMARK    7  A    between atoms: C8_9  and  N1_12 
REMARK    8  A    between atoms: N1_12  and  C9_14 
REMARK    9  A    between atoms: C10_17  and  N3_18 
REMARK   10  A    between atoms: N3_18  and  C11_20 
REMARK   11  A    between atoms: C11_20  and  C12_21 
REMARK   12  A    between atoms: C12_21  and  C13_22 
REMARK   13  A    between atoms: C20_29  and  C21_30 
ROOT
HETATM    1  C9  UNL     1      23.563 -14.887  19.101  1.00  0.00     0.148 A 
HETATM    2  N2  UNL     1      23.980 -16.060  19.566  1.00  0.00    -0.322 N 
ATOM      3  H2  UNL     1      23.296 -16.816  19.533  1.00  0.00     0.169 HD
HETATM    4  C10 UNL     1      25.161 -16.379  20.066  1.00  0.00     0.114 A 
HETATM    5  C18 UNL     1      26.247 -15.522  20.211  1.00  0.00     0.026 A 
HETATM    6  C19 UNL     1      27.454 -15.975  20.754  1.00  0.00     0.029 A 
HETATM    7  C20 UNL     1      28.550 -15.151  20.911  1.00  0.00     0.007 A 
HETATM    8  C22 UNL     1      28.496 -13.828  20.532  1.00  0.00     0.014 A 
HETATM    9  C23 UNL     1      27.321 -13.351  19.994  1.00  0.00     0.021 A 
HETATM   10  C24 UNL     1      26.227 -14.201  19.845  1.00  0.00     0.022 A 
HETATM   11  S1  UNL     1      24.752 -13.642  19.177  1.00  0.00    -0.053 SA
ENDROOT
BRANCH   1  12
HETATM   12  N1  UNL     1      22.407 -14.642  18.624  1.00  0.00    -0.342 N 
ATOM     13  H1  UNL     1      22.112 -13.665  18.606  1.00  0.00     0.164 HD
BRANCH  12  14
HETATM   14  C8  UNL     1      21.491 -15.600  18.114  1.00  0.00     0.248 C 
BRANCH  14  15
HETATM   15  C3  UNL     1      20.353 -15.887  19.162  1.00  0.00     0.170 C 
BRANCH  15  16
HETATM   16  O1  UNL     1      20.803 -17.008  19.803  1.00  0.00    -0.382 OA
BRANCH  16  17
HETATM   17  C2  UNL     1      20.929 -18.165  19.126  1.00  0.00     0.164 C 
HETATM   18  C1  UNL     1      22.030 -19.102  19.441  1.00  0.00     0.033 C 
ENDBRANCH  16  17
ENDBRANCH  15  16
BRANCH  15  19
HETATM   19  C4  UNL     1      19.085 -16.077  18.437  1.00  0.00     0.040 C 
BRANCH  19  20
HETATM   20  C5  UNL     1      17.833 -16.098  19.244  1.00  0.00    -0.020 C 
HETATM   21  C6  UNL     1      16.739 -15.345  18.522  1.00  0.00     0.009 C 
HETATM   22  C7  UNL     1      17.358 -17.547  19.385  1.00  0.00     0.009 C 
ENDBRANCH  19  20
ENDBRANCH  15  19
ENDBRANCH  14  15
BRANCH  14  23
HETATM   23  O2  UNL     1      20.846 -15.168  16.982  1.00  0.00    -0.374 OA
ATOM     24  H2  UNL     1      21.471 -15.281  16.276  1.00  0.00     0.212 HD
ENDBRANCH  14  23
ENDBRANCH  12  14
ENDBRANCH   1  12
BRANCH   4  25
HETATM   25  N3  UNL     1      25.394 -17.589  20.485  1.00  0.00    -0.376 N 
ATOM     26  H3  UNL     1      25.375 -17.801  21.482  1.00  0.00     0.161 HD
BRANCH  25  27
HETATM   27  C11 UNL     1      25.677 -18.623  19.528  1.00  0.00     0.121 C 
BRANCH  27  28
HETATM   28  C12 UNL     1      26.051 -18.026  18.174  1.00  0.00     0.024 C 
BRANCH  28  29
HETATM   29  C13 UNL     1      25.277 -18.799  17.129  1.00  0.00    -0.013 C 
HETATM   30  C14 UNL     1      23.987 -18.083  16.757  1.00  0.00     0.005 C 
HETATM   31  C15 UNL     1      23.273 -19.176  15.961  1.00  0.00     0.000 C 
HETATM   32  C16 UNL     1      23.616 -20.437  16.700  1.00  0.00     0.000 C 
HETATM   33  C17 UNL     1      24.778 -20.121  17.615  1.00  0.00     0.005 C 
ENDBRANCH  28  29
ENDBRANCH  27  28
ENDBRANCH  25  27
ENDBRANCH   4  25
BRANCH   7  34
HETATM   34  C21 UNL     1      29.826 -15.690  21.500  1.00  0.00     0.386 C 
HETATM   35  F1  UNL     1      30.138 -15.018  22.668  1.00  0.00    -0.209 F 
HETATM   36  F2  UNL     1      30.862 -15.593  20.595  1.00  0.00    -0.209 F 
ENDBRANCH   7  34
TORSDOF 13
ENDMDL
MODEL 3
REMARK VINA RESULT: -8.630436757      3.784      8.322
REMARK  13 active torsions:
REMARK  status: ('A' for Active; 'I' for Inactive)
REMARK    1  A    between atoms: C2_2  and  O1_3 
REMARK    2  A    between atoms: O1_3  and  C3_4 
REMARK    3  A    between atoms: C3_4  and  C4_5 
REMARK    4  A    between atoms: C3_4  and  C8_9 
REMARK    5  A    between atoms: C4_5  and  C5_6 
REMARK    6  A    between atoms: C8_9  and  O2_10 
REMARK    7  A    between atoms: C8_9  and  N1_12 
REMARK    8  A    between atoms: N1_12  and  C9_14 
REMARK    9  A    between atoms: C10_17  and  N3_18 
REMARK   10  A    between atoms: N3_18  and  C11_20 
REMARK   11  A    between atoms: C11_20  and  C12_21 
REMARK   12  A    between atoms: C12_21  and  C13_22 
REMARK   13  A    between atoms: C20_29  and  C21_30 
ROOT
HETATM    1  C9  UNL     1      20.351 -16.180  18.336  1.00  0.00     0.148 A 
HETATM    2  N2  UNL     1      21.274 -15.268  18.626  1.00  0.00    -0.322 N 
ATOM      3  H2  UNL     1      20.954 -14.300  18.625  1.00  0.00     0.169 HD
HETATM    4  C10 UNL     1      22.552 -15.447  18.914  1.00  0.00     0.114 A 
HETATM    5  C18 UNL     1      23.213 -16.669  18.977  1.00  0.00     0.026 A 
HETATM    6  C19 UNL     1      24.574 -16.737  19.296  1.00  0.00     0.029 A 
HETATM    7  C20 UNL     1      25.259 -17.932  19.367  1.00  0.00     0.007 A 
HETATM    8  C22 UNL     1      24.619 -19.127  19.122  1.00  0.00     0.014 A 
HETATM    9  C23 UNL     1      23.278 -19.095  18.805  1.00  0.00     0.021 A 
HETATM   10  C24 UNL     1      22.606 -17.876  18.738  1.00  0.00     0.022 A 
HETATM   11  S1  UNL     1      20.940 -17.800  18.350  1.00  0.00    -0.053 SA
ENDROOT
BRANCH   1  12
HETATM   12  N1  UNL     1      19.128 -15.944  18.071  1.00  0.00    -0.342 N 
ATOM     13  H1  UNL     1      18.861 -15.939  17.086  1.00  0.00     0.164 HD
BRANCH  12  14
HETATM   14  C8  UNL     1      18.100 -15.688  19.017  1.00  0.00     0.248 C 
BRANCH  14  15
HETATM   15  C3  UNL     1      16.797 -16.488  18.646  1.00  0.00     0.170 C 
BRANCH  15  16
HETATM   16  O1  UNL     1      15.964 -15.513  18.172  1.00  0.00    -0.382 OA
BRANCH  16  17
HETATM   17  C2  UNL     1      14.639 -15.589  18.405  1.00  0.00     0.164 C 
HETATM   18  C1  UNL     1      13.751 -16.296  17.456  1.00  0.00     0.033 C 
ENDBRANCH  16  17
ENDBRANCH  15  16
BRANCH  15  19
HETATM   19  C4  UNL     1      16.302 -17.166  19.856  1.00  0.00     0.040 C 
BRANCH  19  20
HETATM   20  C5  UNL     1      16.127 -18.644  19.788  1.00  0.00    -0.020 C 
HETATM   21  C6  UNL     1      14.707 -19.015  20.152  1.00  0.00     0.009 C 
HETATM   22  C7  UNL     1      16.352 -19.103  18.344  1.00  0.00     0.009 C 
ENDBRANCH  19  20
ENDBRANCH  15  19
ENDBRANCH  14  15
BRANCH  14  23
HETATM   23  O2  UNL     1      18.432 -16.096  20.284  1.00  0.00    -0.374 OA
ATOM     24  H2  UNL     1      18.537 -17.038  20.228  1.00  0.00     0.212 HD
ENDBRANCH  14  23
ENDBRANCH  12  14
ENDBRANCH   1  12
BRANCH   4  25
HETATM   25  N3  UNL     1      23.319 -14.427  19.167  1.00  0.00    -0.376 N 
ATOM     26  H3  UNL     1      23.051 -13.744  19.876  1.00  0.00     0.161 HD
BRANCH  25  27
HETATM   27  C11 UNL     1      24.548 -14.273  18.439  1.00  0.00     0.121 C 
BRANCH  27  28
HETATM   28  C12 UNL     1      25.439 -13.217  19.088  1.00  0.00     0.024 C 
BRANCH  28  29
HETATM   29  C13 UNL     1      26.762 -13.888  19.386  1.00  0.00    -0.013 C 
HETATM   30  C14 UNL     1      26.906 -14.188  20.871  1.00  0.00     0.005 C 
HETATM   31  C15 UNL     1      28.389 -14.554  20.946  1.00  0.00     0.000 C 
HETATM   32  C16 UNL     1      29.040 -13.603  19.984  1.00  0.00     0.000 C 
HETATM   33  C17 UNL     1      27.945 -13.013  19.123  1.00  0.00     0.005 C 
ENDBRANCH  28  29
ENDBRANCH  27  28
ENDBRANCH  25  27
ENDBRANCH   4  25
BRANCH   7  34
HETATM   34  C21 UNL     1      26.724 -17.947  19.715  1.00  0.00     0.386 C 
HETATM   35  F1  UNL     1      26.909 -17.560  21.031  1.00  0.00    -0.209 F 
HETATM   36  F2  UNL     1      27.436 -17.125  18.866  1.00  0.00    -0.209 F 
ENDBRANCH   7  34
TORSDOF 13
ENDMDL
MODEL 4
REMARK VINA RESULT: -8.570774975      0.962      1.876
REMARK  13 active torsions:
REMARK  status: ('A' for Active; 'I' for Inactive)
REMARK    1  A    between atoms: C2_2  and  O1_3 
REMARK    2  A    between atoms: O1_3  and  C3_4 
REMARK    3  A    between atoms: C3_4  and  C4_5 
REMARK    4  A    between atoms: C3_4  and  C8_9 
REMARK    5  A    between atoms: C4_5  and  C5_6 
REMARK    6  A    between atoms: C8_9  and  O2_10 
REMARK    7  A    between atoms: C8_9  and  N1_12 
REMARK    8  A    between atoms: N1_12  and  C9_14 
REMARK    9  A    between atoms: C10_17  and  N3_18 
REMARK   10  A    between atoms: N3_18  and  C11_20 
REMARK   11  A    between atoms: C11_20  and  C12_21 
REMARK   12  A    between atoms: C12_21  and  C13_22 
REMARK   13  A    between atoms: C20_29  and  C21_30 
ROOT
HETATM    1  C9  UNL     1      22.830 -15.993  18.745  1.00  0.00     0.148 A 
HETATM    2  N2  UNL     1      22.693 -17.291  19.002  1.00  0.00    -0.322 N 
ATOM      3  H2  UNL     1      23.562 -17.812  19.112  1.00  0.00     0.169 HD
HETATM    4  C10 UNL     1      21.583 -17.995  19.133  1.00  0.00     0.114 A 
HETATM    5  C18 UNL     1      20.285 -17.505  19.026  1.00  0.00     0.026 A 
HETATM    6  C19 UNL     1      19.181 -18.349  19.188  1.00  0.00     0.029 A 
HETATM    7  C20 UNL     1      17.881 -17.895  19.089  1.00  0.00     0.007 A 
HETATM    8  C22 UNL     1      17.617 -16.570  18.824  1.00  0.00     0.014 A 
HETATM    9  C23 UNL     1      18.683 -15.712  18.659  1.00  0.00     0.021 A 
HETATM   10  C24 UNL     1      19.987 -16.193  18.763  1.00  0.00     0.022 A 
HETATM   11  S1  UNL     1      21.335 -15.155  18.567  1.00  0.00    -0.053 SA
ENDROOT
BRANCH   1  12
HETATM   12  N1  UNL     1      23.934 -15.367  18.636  1.00  0.00    -0.342 N 
ATOM     13  H1  UNL     1      24.473 -15.526  17.783  1.00  0.00     0.164 HD
BRANCH  12  14
HETATM   14  C8  UNL     1      24.485 -14.469  19.587  1.00  0.00     0.248 C 
BRANCH  14  15
HETATM   15  C3  UNL     1      25.911 -14.955  20.043  1.00  0.00     0.170 C 
BRANCH  15  16
HETATM   16  O1  UNL     1      25.654 -16.177  20.601  1.00  0.00    -0.382 OA
BRANCH  16  17
HETATM   17  C2  UNL     1      26.532 -17.185  20.444  1.00  0.00     0.164 C 
HETATM   18  C1  UNL     1      27.624 -17.081  19.451  1.00  0.00     0.033 C 
ENDBRANCH  16  17
ENDBRANCH  15  16
BRANCH  15  19
HETATM   19  C4  UNL     1      26.464 -13.968  20.986  1.00  0.00     0.040 C 
BRANCH  19  20
HETATM   20  C5  UNL     1      27.863 -13.512  20.755  1.00  0.00    -0.020 C 
HETATM   21  C6  UNL     1      28.837 -14.506  21.345  1.00  0.00     0.009 C 
HETATM   22  C7  UNL     1      28.128 -13.471  19.246  1.00  0.00     0.009 C 
ENDBRANCH  19  20
ENDBRANCH  15  19
ENDBRANCH  14  15
BRANCH  14  23
HETATM   23  O2  UNL     1      24.674 -13.208  19.079  1.00  0.00    -0.374 OA
ATOM     24  H2  UNL     1      24.832 -13.330  18.151  1.00  0.00     0.212 HD
ENDBRANCH  14  23
ENDBRANCH  12  14
ENDBRANCH   1  12
BRANCH   4  25
HETATM   25  N3  UNL     1      21.638 -19.271  19.379  1.00  0.00    -0.376 N 
ATOM     26  H3  UNL     1      20.789 -19.790  19.605  1.00  0.00     0.161 HD
BRANCH  25  27
HETATM   27  C11 UNL     1      22.907 -19.944  19.330  1.00  0.00     0.121 C 
BRANCH  27  28
HETATM   28  C12 UNL     1      23.037 -20.773  18.055  1.00  0.00     0.024 C 
BRANCH  28  29
HETATM   29  C13 UNL     1      23.985 -20.024  17.144  1.00  0.00    -0.013 C 
HETATM   30  C14 UNL     1      25.039 -19.272  17.943  1.00  0.00     0.005 C 
HETATM   31  C15 UNL     1      25.645 -18.386  16.855  1.00  0.00     0.000 C 
HETATM   32  C16 UNL     1      24.463 -17.993  16.016  1.00  0.00     0.000 C 
HETATM   33  C17 UNL     1      23.327 -18.926  16.374  1.00  0.00     0.005 C 
ENDBRANCH  28  29
ENDBRANCH  27  28
ENDBRANCH  25  27
ENDBRANCH   4  25
BRANCH   7  34
HETATM   34  C21 UNL     1      16.730 -18.847  19.272  1.00  0.00     0.386 C 
HETATM   35  F1  UNL     1      16.179 -19.176  18.047  1.00  0.00    -0.209 F 
HETATM   36  F2  UNL     1      15.772 -18.302  20.102  1.00  0.00    -0.209 F 
ENDBRANCH   7  34
TORSDOF 13
ENDMDL
MODEL 5
REMARK VINA RESULT: -8.531741006      4.104      7.978
REMARK  13 active torsions:
REMARK  status: ('A' for Active; 'I' for Inactive)
REMARK    1  A    between atoms: C2_2  and  O1_3 
REMARK    2  A    between atoms: O1_3  and  C3_4 
REMARK    3  A    between atoms: C3_4  and  C4_5 
REMARK    4  A    between atoms: C3_4  and  C8_9 
REMARK    5  A    between atoms: C4_5  and  C5_6 
REMARK    6  A    between atoms: C8_9  and  O2_10 
REMARK    7  A    between atoms: C8_9  and  N1_12 
REMARK    8  A    between atoms: N1_12  and  C9_14 
REMARK    9  A    between atoms: C10_17  and  N3_18 
REMARK   10  A    between atoms: N3_18  and  C11_20 
REMARK   11  A    between atoms: C11_20  and  C12_21 
REMARK   12  A    between atoms: C12_21  and  C13_22 
REMARK   13  A    between atoms: C20_29  and  C21_30 
ROOT
HETATM    1  C9  UNL     1      22.378 -16.221  19.215  1.00  0.00     0.148 A 
HETATM    2  N2  UNL     1      23.314 -16.959  19.802  1.00  0.00    -0.322 N 
ATOM      3  H2  UNL     1      23.013 -17.878  20.125  1.00  0.00     0.169 HD
HETATM    4  C10 UNL     1      24.583 -16.662  20.023  1.00  0.00     0.114 A 
HETATM    5  C18 UNL     1      25.219 -15.475  19.674  1.00  0.00     0.026 A 
HETATM    6  C19 UNL     1      26.574 -15.273  19.958  1.00  0.00     0.029 A 
HETATM    7  C20 UNL     1      27.235 -14.109  19.624  1.00  0.00     0.007 A 
HETATM    8  C22 UNL     1      26.574 -13.082  18.987  1.00  0.00     0.014 A 
HETATM    9  C23 UNL     1      25.238 -13.250  18.693  1.00  0.00     0.021 A 
HETATM   10  C24 UNL     1      24.591 -14.434  19.039  1.00  0.00     0.022 A 
HETATM   11  S1  UNL     1      22.933 -14.677  18.686  1.00  0.00    -0.053 SA
ENDROOT
BRANCH   1  12
HETATM   12  N1  UNL     1      21.166 -16.566  19.025  1.00  0.00    -0.342 N 
ATOM     13  H1  UNL     1      20.619 -15.996  18.379  1.00  0.00     0.164 HD
BRANCH  12  14
HETATM   14  C8  UNL     1      20.506 -17.670  19.626  1.00  0.00     0.248 C 
BRANCH  14  15
HETATM   15  C3  UNL     1      18.957 -17.598  19.361  1.00  0.00     0.170 C 
BRANCH  15  16
HETATM   16  O1  UNL     1      18.726 -18.703  18.591  1.00  0.00    -0.382 OA
BRANCH  16  17
HETATM   17  C2  UNL     1      17.661 -19.488  18.843  1.00  0.00     0.164 C 
HETATM   18  C1  UNL     1      16.392 -19.289  18.109  1.00  0.00     0.033 C 
ENDBRANCH  16  17
ENDBRANCH  15  16
BRANCH  15  19
HETATM   19  C4  UNL     1      18.653 -16.322  18.690  1.00  0.00     0.040 C 
BRANCH  19  20
HETATM   20  C5  UNL     1      17.473 -15.556  19.179  1.00  0.00    -0.020 C 
HETATM   21  C6  UNL     1      16.520 -15.289  18.036  1.00  0.00     0.009 C 
HETATM   22  C7  UNL     1      16.716 -16.411  20.200  1.00  0.00     0.009 C 
ENDBRANCH  19  20
ENDBRANCH  15  19
ENDBRANCH  14  15
BRANCH  14  23
HETATM   23  O2  UNL     1      20.909 -18.876  19.110  1.00  0.00    -0.374 OA
ATOM     24  H2  UNL     1      21.594 -19.184  19.692  1.00  0.00     0.212 HD
ENDBRANCH  14  23
ENDBRANCH  12  14
ENDBRANCH   1  12
BRANCH   4  25
HETATM   25  N3  UNL     1      25.363 -17.512  20.625  1.00  0.00    -0.376 N 
ATOM     26  H3  UNL     1      25.614 -17.378  21.604  1.00  0.00     0.161 HD
BRANCH  25  27
HETATM   27  C11 UNL     1      25.867 -18.643  19.895  1.00  0.00     0.121 C 
BRANCH  27  28
HETATM   28  C12 UNL     1      26.152 -18.273  18.442  1.00  0.00     0.024 C 
BRANCH  28  29
HETATM   29  C13 UNL     1      25.331 -19.211  17.585  1.00  0.00    -0.013 C 
HETATM   30  C14 UNL     1      24.332 -18.445  16.729  1.00  0.00     0.005 C 
HETATM   31  C15 UNL     1      23.454 -19.589  16.222  1.00  0.00     0.000 C 
HETATM   32  C16 UNL     1      23.358 -20.514  17.400  1.00  0.00     0.000 C 
HETATM   33  C17 UNL     1      24.443 -20.116  18.376  1.00  0.00     0.005 C 
ENDBRANCH  28  29
ENDBRANCH  27  28
ENDBRANCH  25  27
ENDBRANCH   4  25
BRANCH   7  34
HETATM   34  C21 UNL     1      28.695 -13.945  19.954  1.00  0.00     0.386 C 
HETATM   35  F1  UNL     1      28.992 -12.610  20.164  1.00  0.00    -0.209 F 
HETATM   36  F2  UNL     1      29.484 -14.463  18.948  1.00  0.00    -0.209 F 
ENDBRANCH   7  34
TORSDOF 13
ENDMDL
