MODEL 1
REMARK VINA RESULT: -5.375615977      0.000      0.000
REMARK  4 active torsions:
REMARK  status: ('A' for Active; 'I' for Inactive)
REMARK    1  A    between atoms: N1_6  and  C5_7 
REMARK    2  A    between atoms: C5_7  and  C6_8 
REMARK    3  A    between atoms: C6_8  and  O3_10 
REMARK    4  A    between atoms: O3_10  and  C7_11 
ROOT
HETATM    1  C5  UNL     1     -56.341 -65.319  17.345  1.00  0.00     0.231 C 
ENDROOT
BRANCH   1   2
HETATM    2  N1  UNL     1     -56.009 -63.934  17.471  1.00  0.00    -0.183 NA
HETATM    3  C4  UNL     1     -57.131 -63.162  16.958  1.00  0.00     0.147 C 
HETATM    4  C3  UNL     1     -56.735 -62.536  15.643  1.00  0.00     0.187 C 
HETATM    5  O1  UNL     1     -55.759 -61.563  15.938  1.00  0.00    -0.359 OA
HETATM    6  C2  UNL     1     -54.756 -62.231  16.637  1.00  0.00     0.277 C 
HETATM    7  C1  UNL     1     -53.435 -61.948  15.966  1.00  0.00     0.072 C 
HETATM    8  O4  UNL     1     -54.939 -63.600  16.677  1.00  0.00    -0.271 OA
ENDBRANCH   1   2
BRANCH   1   9
HETATM    9  C6  UNL     1     -56.690 -65.949  18.645  1.00  0.00     0.274 C 
HETATM   10  O2  UNL     1     -55.885 -65.794  19.596  1.00  0.00    -0.264 OA
BRANCH   9  11
HETATM   11  O3  UNL     1     -57.828 -66.679  18.857  1.00  0.00    -0.315 OA
BRANCH  11  12
HETATM   12  C7  UNL     1     -57.926 -67.681  19.822  1.00  0.00     0.132 C 
HETATM   13  C8  UNL     1     -59.291 -67.710  20.506  1.00  0.00     0.032 C 
HETATM   14  C9  UNL     1     -59.523 -69.164  20.863  1.00  0.00     0.002 C 
HETATM   15  C10 UNL     1     -58.330 -69.932  20.330  1.00  0.00     0.002 C 
HETATM   16  C11 UNL     1     -57.916 -69.058  19.165  1.00  0.00     0.032 C 
ENDBRANCH  11  12
ENDBRANCH   9  11
ENDBRANCH   1   9
TORSDOF 4
ENDMDL
MODEL 2
REMARK VINA RESULT: -5.228492233      2.525      7.628
REMARK  4 active torsions:
REMARK  status: ('A' for Active; 'I' for Inactive)
REMARK    1  A    between atoms: N1_6  and  C5_7 
REMARK    2  A    between atoms: C5_7  and  C6_8 
REMARK    3  A    between atoms: C6_8  and  O3_10 
REMARK    4  A    between atoms: O3_10  and  C7_11 
ROOT
HETATM    1  C5  UNL     1     -55.537 -62.034  16.917  1.00  0.00     0.231 C 
ENDROOT
BRANCH   1   2
HETATM    2  N1  UNL     1     -55.358 -63.446  16.790  1.00  0.00    -0.183 NA
HETATM    3  C4  UNL     1     -56.028 -63.868  15.568  1.00  0.00     0.147 C 
HETATM    4  C3  UNL     1     -57.268 -64.647  15.932  1.00  0.00     0.187 C 
HETATM    5  O1  UNL     1     -56.830 -65.854  16.514  1.00  0.00    -0.359 OA
HETATM    6  C2  UNL     1     -55.994 -65.486  17.567  1.00  0.00     0.277 C 
HETATM    7  C1  UNL     1     -56.464 -66.186  18.817  1.00  0.00     0.072 C 
HETATM    8  O4  UNL     1     -55.987 -64.125  17.806  1.00  0.00    -0.271 OA
ENDBRANCH   1   2
BRANCH   1   9
HETATM    9  C6  UNL     1     -54.280 -61.271  16.697  1.00  0.00     0.274 C 
HETATM   10  O2  UNL     1     -53.995 -60.376  17.531  1.00  0.00    -0.264 OA
BRANCH   9  11
HETATM   11  O3  UNL     1     -53.429 -61.490  15.648  1.00  0.00    -0.315 OA
BRANCH  11  12
HETATM   12  C7  UNL     1     -53.765 -61.225  14.321  1.00  0.00     0.132 C 
HETATM   13  C8  UNL     1     -53.832 -59.732  14.015  1.00  0.00     0.032 C 
HETATM   14  C9  UNL     1     -53.421 -59.605  12.563  1.00  0.00     0.002 C 
HETATM   15  C10 UNL     1     -53.075 -61.004  12.093  1.00  0.00     0.002 C 
HETATM   16  C11 UNL     1     -52.631 -61.648  13.390  1.00  0.00     0.032 C 
ENDBRANCH  11  12
ENDBRANCH   9  11
ENDBRANCH   1   9
TORSDOF 4
ENDMDL
MODEL 3
REMARK VINA RESULT: -5.186018743      2.528      7.166
REMARK  4 active torsions:
REMARK  status: ('A' for Active; 'I' for Inactive)
REMARK    1  A    between atoms: N1_6  and  C5_7 
REMARK    2  A    between atoms: C5_7  and  C6_8 
REMARK    3  A    between atoms: C6_8  and  O3_10 
REMARK    4  A    between atoms: O3_10  and  C7_11 
ROOT
HETATM    1  C5  UNL     1     -55.822 -61.857  17.016  1.00  0.00     0.231 C 
ENDROOT
BRANCH   1   2
HETATM    2  N1  UNL     1     -56.044 -63.235  16.707  1.00  0.00    -0.183 NA
HETATM    3  C4  UNL     1     -57.376 -63.350  16.132  1.00  0.00     0.147 C 
HETATM    4  C3  UNL     1     -58.284 -64.030  17.127  1.00  0.00     0.187 C 
HETATM    5  O1  UNL     1     -57.842 -65.364  17.229  1.00  0.00    -0.359 OA
HETATM    6  C2  UNL     1     -56.492 -65.292  17.566  1.00  0.00     0.277 C 
HETATM    7  C1  UNL     1     -56.257 -66.145  18.787  1.00  0.00     0.072 C 
HETATM    8  O4  UNL     1     -56.068 -64.007  17.844  1.00  0.00    -0.271 OA
ENDBRANCH   1   2
BRANCH   1   9
HETATM    9  C6  UNL     1     -54.402 -61.451  16.853  1.00  0.00     0.274 C 
HETATM   10  O2  UNL     1     -54.030 -60.404  17.439  1.00  0.00    -0.264 OA
BRANCH   9  11
HETATM   11  O3  UNL     1     -53.490 -62.149  16.109  1.00  0.00    -0.315 OA
BRANCH  11  12
HETATM   12  C7  UNL     1     -53.507 -62.186  14.715  1.00  0.00     0.132 C 
HETATM   13  C8  UNL     1     -53.153 -60.842  14.083  1.00  0.00     0.032 C 
HETATM   14  C9  UNL     1     -52.470 -61.186  12.776  1.00  0.00     0.002 C 
HETATM   15  C10 UNL     1     -52.395 -62.699  12.717  1.00  0.00     0.002 C 
HETATM   16  C11 UNL     1     -52.362 -63.049  14.191  1.00  0.00     0.032 C 
ENDBRANCH  11  12
ENDBRANCH   9  11
ENDBRANCH   1   9
TORSDOF 4
ENDMDL
MODEL 4
REMARK VINA RESULT: -5.142314705      6.006      8.681
REMARK  4 active torsions:
REMARK  status: ('A' for Active; 'I' for Inactive)
REMARK    1  A    between atoms: N1_6  and  C5_7 
REMARK    2  A    between atoms: C5_7  and  C6_8 
REMARK    3  A    between atoms: C6_8  and  O3_10 
REMARK    4  A    between atoms: O3_10  and  C7_11 
ROOT
HETATM    1  C5  UNL     1     -50.242 -65.690  13.644  1.00  0.00     0.231 C 
ENDROOT
BRANCH   1   2
HETATM    2  N1  UNL     1     -50.489 -66.166  14.969  1.00  0.00    -0.183 NA
HETATM    3  C4  UNL     1     -49.202 -66.478  15.574  1.00  0.00     0.147 C 
HETATM    4  C3  UNL     1     -49.065 -67.976  15.689  1.00  0.00     0.187 C 
HETATM    5  O1  UNL     1     -50.003 -68.394  16.654  1.00  0.00    -0.359 OA
HETATM    6  C2  UNL     1     -51.236 -67.913  16.217  1.00  0.00     0.277 C 
HETATM    7  C1  UNL     1     -52.214 -69.061  16.185  1.00  0.00     0.072 C 
HETATM    8  O4  UNL     1     -51.185 -67.351  14.956  1.00  0.00    -0.271 OA
ENDBRANCH   1   2
BRANCH   1   9
HETATM    9  C6  UNL     1     -51.389 -64.933  13.079  1.00  0.00     0.274 C 
HETATM   10  O2  UNL     1     -52.235 -65.580  12.411  1.00  0.00    -0.264 OA
BRANCH   9  11
HETATM   11  O3  UNL     1     -51.572 -63.588  13.246  1.00  0.00    -0.315 OA
BRANCH  11  12
HETATM   12  C7  UNL     1     -52.704 -63.036  13.845  1.00  0.00     0.132 C 
HETATM   13  C8  UNL     1     -52.670 -63.126  15.368  1.00  0.00     0.032 C 
HETATM   14  C9  UNL     1     -53.432 -61.909  15.853  1.00  0.00     0.002 C 
HETATM   15  C10 UNL     1     -53.828 -61.130  14.615  1.00  0.00     0.002 C 
HETATM   16  C11 UNL     1     -52.723 -61.522  13.656  1.00  0.00     0.032 C 
ENDBRANCH  11  12
ENDBRANCH   9  11
ENDBRANCH   1   9
TORSDOF 4
ENDMDL
MODEL 5
REMARK VINA RESULT: -5.079912960      5.175      7.537
REMARK  4 active torsions:
REMARK  status: ('A' for Active; 'I' for Inactive)
REMARK    1  A    between atoms: N1_6  and  C5_7 
REMARK    2  A    between atoms: C5_7  and  C6_8 
REMARK    3  A    between atoms: C6_8  and  O3_10 
REMARK    4  A    between atoms: O3_10  and  C7_11 
ROOT
HETATM    1  C5  UNL     1     -52.072 -63.578  13.444  1.00  0.00     0.231 C 
ENDROOT
BRANCH   1   2
HETATM    2  N1  UNL     1     -52.389 -63.411  14.827  1.00  0.00    -0.183 NA
HETATM    3  C4  UNL     1     -53.313 -64.471  15.201  1.00  0.00     0.147 C 
HETATM    4  C3  UNL     1     -54.683 -63.876  15.415  1.00  0.00     0.187 C 
HETATM    5  O1  UNL     1     -54.597 -63.077  16.573  1.00  0.00    -0.359 OA
HETATM    6  C2  UNL     1     -53.558 -62.179  16.339  1.00  0.00     0.277 C 
HETATM    7  C1  UNL     1     -54.066 -60.782  16.592  1.00  0.00     0.072 C 
HETATM    8  O4  UNL     1     -53.069 -62.237  15.048  1.00  0.00    -0.271 OA
ENDBRANCH   1   2
BRANCH   1   9
HETATM    9  C6  UNL     1     -51.451 -64.896  13.149  1.00  0.00     0.274 C 
HETATM   10  O2  UNL     1     -52.034 -65.636  12.318  1.00  0.00    -0.264 OA
BRANCH   9  11
HETATM   11  O3  UNL     1     -50.294 -65.341  13.729  1.00  0.00    -0.315 OA
BRANCH  11  12
HETATM   12  C7  UNL     1     -50.177 -66.584  14.350  1.00  0.00     0.132 C 
HETATM   13  C8  UNL     1     -49.388 -67.589  13.516  1.00  0.00     0.032 C 
HETATM   14  C9  UNL     1     -48.701 -68.488  14.523  1.00  0.00     0.002 C 
HETATM   15  C10 UNL     1     -49.059 -67.947  15.893  1.00  0.00     0.002 C 
HETATM   16  C11 UNL     1     -49.281 -66.481  15.581  1.00  0.00     0.032 C 
ENDBRANCH  11  12
ENDBRANCH   9  11
ENDBRANCH   1   9
TORSDOF 4
ENDMDL
