MODEL 1
REMARK VINA RESULT: -8.659892915      0.000      0.000
REMARK  7 active torsions:
REMARK  status: ('A' for Active; 'I' for Inactive)
REMARK    1  A    between atoms: O1_2  and  C2_3 
REMARK    2  A    between atoms: C2_3  and  C3_4 
REMARK    3  A    between atoms: C4_7  and  N2_8 
REMARK    4  A    between atoms: C7_11  and  N3_12 
REMARK    5  A    between atoms: C14_21  and  N5_22 
REMARK    6  A    between atoms: C17_25  and  C18_26 
REMARK    7  A    between atoms: C18_26  and  O2_27 
ROOT
HETATM    1  C3  UNL     1      15.130   9.325   3.742  1.00  0.00     0.059 A 
HETATM    2  N1  UNL     1      16.407   9.158   4.099  1.00  0.00    -0.193 N 
ATOM      3  H1  UNL     1      16.609   8.892   5.062  1.00  0.00     0.184 HD
HETATM    4  C4  UNL     1      17.465   9.328   3.236  1.00  0.00     0.682 A 
HETATM    5  N4  UNL     1      17.091   9.660   1.995  1.00  0.00    -0.176 N 
ATOM      6  H4  UNL     1      17.839   9.794   1.315  1.00  0.00     0.186 HD
HETATM    7  C14 UNL     1      15.837   9.836   1.550  1.00  0.00     0.127 A 
HETATM    8  C21 UNL     1      14.779   9.690   2.422  1.00  0.00     0.008 A 
HETATM    9  C22 UNL     1      13.391   9.997   2.090  1.00  0.00     0.054 C 
ENDROOT
BRANCH   4  10
HETATM   10  N2  UNL     1      18.808   9.283   3.616  1.00  0.00    -0.217 N 
HETATM   11  C5  UNL     1      19.133   9.286   5.075  1.00  0.00     0.143 C 
HETATM   12  C6  UNL     1      19.305   7.737   5.278  1.00  0.00     0.056 C 
HETATM   13  C7  UNL     1      20.069   7.143   4.130  1.00  0.00     0.226 C 
HETATM   14  C12 UNL     1      20.917   8.111   3.426  1.00  0.00     0.056 C 
HETATM   15  C13 UNL     1      19.959   9.175   2.796  1.00  0.00     0.143 C 
BRANCH  13  16
HETATM   16  N3  UNL     1      20.566   5.863   4.502  1.00  0.00     0.093 N 
HETATM   17  C8  UNL     1      21.796   5.440   3.868  1.00  0.00     0.273 C 
HETATM   18  C9  UNL     1      21.815   3.956   4.284  1.00  0.00     0.032 C 
HETATM   19  C10 UNL     1      20.391   3.531   3.947  1.00  0.00     0.032 C 
HETATM   20  C11 UNL     1      19.634   4.765   4.387  1.00  0.00     0.273 C 
ENDBRANCH  13  16
ENDBRANCH   4  10
BRANCH   1  21
HETATM   21  C2  UNL     1      13.998   9.267   4.678  1.00  0.00     0.225 C 
BRANCH  21  22
HETATM   22  O1  UNL     1      14.241   8.391   5.813  1.00  0.00    -0.390 OA
HETATM   23  C1  UNL     1      14.078   9.251   6.948  1.00  0.00     0.201 C 
ENDBRANCH  21  22
ENDBRANCH   1  21
BRANCH   7  24
HETATM   24  N5  UNL     1      15.623   9.905   0.147  1.00  0.00    -0.366 N 
HETATM   25  C15 UNL     1      15.255   8.599  -0.473  1.00  0.00     0.125 C 
HETATM   26  C16 UNL     1      14.705   8.783  -1.857  1.00  0.00     0.026 C 
HETATM   27  C17 UNL     1      13.655   9.828  -1.939  1.00  0.00     0.012 C 
HETATM   28  C19 UNL     1      14.108  11.121  -1.296  1.00  0.00     0.026 C 
HETATM   29  C20 UNL     1      15.574  10.977  -0.789  1.00  0.00     0.125 C 
BRANCH  27  30
HETATM   30  C18 UNL     1      13.381  10.156  -3.410  1.00  0.00     0.168 C 
BRANCH  30  31
HETATM   31  O2  UNL     1      12.025  10.093  -3.714  1.00  0.00    -0.400 OA
ATOM     32  H2  UNL     1      11.869   9.710  -4.570  1.00  0.00     0.209 HD
ENDBRANCH  30  31
ENDBRANCH  27  30
ENDBRANCH   7  24
TORSDOF 7
ENDMDL
MODEL 2
REMARK VINA RESULT: -8.531789657      2.140      2.715
REMARK  7 active torsions:
REMARK  status: ('A' for Active; 'I' for Inactive)
REMARK    1  A    between atoms: O1_2  and  C2_3 
REMARK    2  A    between atoms: C2_3  and  C3_4 
REMARK    3  A    between atoms: C4_7  and  N2_8 
REMARK    4  A    between atoms: C7_11  and  N3_12 
REMARK    5  A    between atoms: C14_21  and  N5_22 
REMARK    6  A    between atoms: C17_25  and  C18_26 
REMARK    7  A    between atoms: C18_26  and  O2_27 
ROOT
HETATM    1  C3  UNL     1      15.663   9.363   2.246  1.00  0.00     0.059 A 
HETATM    2  N1  UNL     1      16.968   9.553   2.464  1.00  0.00    -0.193 N 
ATOM      3  H1  UNL     1      17.370   9.197   3.330  1.00  0.00     0.184 HD
HETATM    4  C4  UNL     1      17.798  10.205   1.581  1.00  0.00     0.682 A 
HETATM    5  N4  UNL     1      17.176  10.617   0.471  1.00  0.00    -0.176 N 
ATOM      6  H4  UNL     1      17.749  11.103  -0.218  1.00  0.00     0.186 HD
HETATM    7  C14 UNL     1      15.878  10.459   0.167  1.00  0.00     0.127 A 
HETATM    8  C21 UNL     1      15.042   9.827   1.063  1.00  0.00     0.008 A 
HETATM    9  C22 UNL     1      13.594   9.727   0.909  1.00  0.00     0.054 C 
ENDROOT
BRANCH   4  10
HETATM   10  N2  UNL     1      19.132  10.525   1.843  1.00  0.00    -0.217 N 
HETATM   11  C5  UNL     1      19.681  10.226   3.202  1.00  0.00     0.143 C 
HETATM   12  C6  UNL     1      20.358   8.845   2.879  1.00  0.00     0.056 C 
HETATM   13  C7  UNL     1      21.065   8.908   1.556  1.00  0.00     0.226 C 
HETATM   14  C12 UNL     1      21.438  10.268   1.154  1.00  0.00     0.056 C 
HETATM   15  C13 UNL     1      20.104  11.064   0.963  1.00  0.00     0.143 C 
BRANCH  13  16
HETATM   16  N3  UNL     1      21.992   7.832   1.461  1.00  0.00     0.093 N 
HETATM   17  C8  UNL     1      22.355   7.183   2.701  1.00  0.00     0.273 C 
HETATM   18  C9  UNL     1      23.549   6.336   2.221  1.00  0.00     0.032 C 
HETATM   19  C10 UNL     1      24.349   7.364   1.431  1.00  0.00     0.032 C 
HETATM   20  C11 UNL     1      23.222   8.120   0.760  1.00  0.00     0.273 C 
ENDBRANCH  13  16
ENDBRANCH   4  10
BRANCH   1  21
HETATM   21  C2  UNL     1      14.740   8.779   3.229  1.00  0.00     0.225 C 
BRANCH  21  22
HETATM   22  O1  UNL     1      15.295   8.726   4.572  1.00  0.00    -0.390 OA
HETATM   23  C1  UNL     1      14.683   9.839   5.237  1.00  0.00     0.201 C 
ENDBRANCH  21  22
ENDBRANCH   1  21
BRANCH   7  24
HETATM   24  N5  UNL     1      15.463  10.706  -1.169  1.00  0.00    -0.366 N 
HETATM   25  C15 UNL     1      16.307  10.032  -2.199  1.00  0.00     0.125 C 
HETATM   26  C16 UNL     1      15.639  10.030  -3.541  1.00  0.00     0.026 C 
HETATM   27  C17 UNL     1      14.228   9.572  -3.497  1.00  0.00     0.012 C 
HETATM   28  C19 UNL     1      13.440  10.307  -2.434  1.00  0.00     0.026 C 
HETATM   29  C20 UNL     1      14.344  11.371  -1.744  1.00  0.00     0.125 C 
BRANCH  27  30
HETATM   30  C18 UNL     1      13.549   9.893  -4.831  1.00  0.00     0.168 C 
BRANCH  30  31
HETATM   31  O2  UNL     1      14.465  10.291  -5.800  1.00  0.00    -0.400 OA
ATOM     32  H2  UNL     1      14.102  10.234  -6.677  1.00  0.00     0.209 HD
ENDBRANCH  30  31
ENDBRANCH  27  30
ENDBRANCH   7  24
TORSDOF 7
ENDMDL
MODEL 3
REMARK VINA RESULT: -8.451232371      2.203      2.927
REMARK  7 active torsions:
REMARK  status: ('A' for Active; 'I' for Inactive)
REMARK    1  A    between atoms: O1_2  and  C2_3 
REMARK    2  A    between atoms: C2_3  and  C3_4 
REMARK    3  A    between atoms: C4_7  and  N2_8 
REMARK    4  A    between atoms: C7_11  and  N3_12 
REMARK    5  A    between atoms: C14_21  and  N5_22 
REMARK    6  A    between atoms: C17_25  and  C18_26 
REMARK    7  A    between atoms: C18_26  and  O2_27 
ROOT
HETATM    1  C3  UNL     1      14.833   9.530   2.883  1.00  0.00     0.059 A 
HETATM    2  N1  UNL     1      16.096   9.965   2.893  1.00  0.00    -0.193 N 
ATOM      3  H1  UNL     1      16.588  10.000   3.786  1.00  0.00     0.184 HD
HETATM    4  C4  UNL     1      16.770  10.368   1.764  1.00  0.00     0.682 A 
HETATM    5  N4  UNL     1      16.043  10.267   0.646  1.00  0.00    -0.176 N 
ATOM      6  H4  UNL     1      16.499  10.551  -0.221  1.00  0.00     0.186 HD
HETATM    7  C14 UNL     1      14.777   9.832   0.544  1.00  0.00     0.127 A 
HETATM    8  C21 UNL     1      14.094   9.451   1.679  1.00  0.00     0.008 A 
HETATM    9  C22 UNL     1      12.677   9.102   1.710  1.00  0.00     0.054 C 
ENDROOT
BRANCH   4  10
HETATM   10  N2  UNL     1      18.043  10.944   1.769  1.00  0.00    -0.217 N 
HETATM   11  C5  UNL     1      18.759  11.072   3.074  1.00  0.00     0.143 C 
HETATM   12  C6  UNL     1      19.642   9.775   2.984  1.00  0.00     0.056 C 
HETATM   13  C7  UNL     1      20.201   9.621   1.598  1.00  0.00     0.226 C 
HETATM   14  C12 UNL     1      20.284  10.883   0.855  1.00  0.00     0.056 C 
HETATM   15  C13 UNL     1      18.817  11.394   0.669  1.00  0.00     0.143 C 
BRANCH  13  16
HETATM   16  N3  UNL     1      21.293   8.711   1.625  1.00  0.00     0.093 N 
HETATM   17  C8  UNL     1      21.538   8.034   2.880  1.00  0.00     0.273 C 
HETATM   18  C9  UNL     1      22.920   7.417   2.587  1.00  0.00     0.032 C 
HETATM   19  C10 UNL     1      23.665   8.612   2.005  1.00  0.00     0.032 C 
HETATM   20  C11 UNL     1      22.563   9.234   1.174  1.00  0.00     0.273 C 
ENDBRANCH  13  16
ENDBRANCH   4  10
BRANCH   1  21
HETATM   21  C2  UNL     1      14.060   9.211   4.092  1.00  0.00     0.225 C 
BRANCH  21  22
HETATM   22  O1  UNL     1      14.896   8.830   5.219  1.00  0.00    -0.390 OA
HETATM   23  C1  UNL     1      14.578   9.803   6.223  1.00  0.00     0.201 C 
ENDBRANCH  21  22
ENDBRANCH   1  21
BRANCH   7  24
HETATM   24  N5  UNL     1      14.272   9.527  -0.749  1.00  0.00    -0.366 N 
HETATM   25  C15 UNL     1      13.236  10.484  -1.234  1.00  0.00     0.125 C 
HETATM   26  C16 UNL     1      12.995  10.333  -2.707  1.00  0.00     0.026 C 
HETATM   27  C17 UNL     1      14.244  10.309  -3.509  1.00  0.00     0.012 C 
HETATM   28  C19 UNL     1      15.237   9.309  -2.957  1.00  0.00     0.026 C 
HETATM   29  C20 UNL     1      14.618   8.563  -1.738  1.00  0.00     0.125 C 
BRANCH  27  30
HETATM   30  C18 UNL     1      13.922   9.848  -4.934  1.00  0.00     0.168 C 
BRANCH  30  31
HETATM   31  O2  UNL     1      14.684  10.522  -5.884  1.00  0.00    -0.400 OA
ATOM     32  H2  UNL     1      15.345   9.961  -6.273  1.00  0.00     0.209 HD
ENDBRANCH  30  31
ENDBRANCH  27  30
ENDBRANCH   7  24
TORSDOF 7
ENDMDL
MODEL 4
REMARK VINA RESULT: -8.396046518      2.148      2.703
REMARK  7 active torsions:
REMARK  status: ('A' for Active; 'I' for Inactive)
REMARK    1  A    between atoms: O1_2  and  C2_3 
REMARK    2  A    between atoms: C2_3  and  C3_4 
REMARK    3  A    between atoms: C4_7  and  N2_8 
REMARK    4  A    between atoms: C7_11  and  N3_12 
REMARK    5  A    between atoms: C14_21  and  N5_22 
REMARK    6  A    between atoms: C17_25  and  C18_26 
REMARK    7  A    between atoms: C18_26  and  O2_27 
ROOT
HETATM    1  C3  UNL     1      16.483   9.883   3.157  1.00  0.00     0.059 A 
HETATM    2  N1  UNL     1      17.818   9.946   3.210  1.00  0.00    -0.193 N 
ATOM      3  H1  UNL     1      18.276   9.730   4.095  1.00  0.00     0.184 HD
HETATM    4  C4  UNL     1      18.605  10.288   2.136  1.00  0.00     0.682 A 
HETATM    5  N4  UNL     1      17.907  10.537   1.022  1.00  0.00    -0.176 N 
ATOM      6  H4  UNL     1      18.445  10.792   0.194  1.00  0.00     0.186 HD
HETATM    7  C14 UNL     1      16.573  10.486   0.878  1.00  0.00     0.127 A 
HETATM    8  C21 UNL     1      15.783  10.167   1.962  1.00  0.00     0.008 A 
HETATM    9  C22 UNL     1      14.324  10.223   1.962  1.00  0.00     0.054 C 
ENDROOT
BRANCH   4  10
HETATM   10  N2  UNL     1      19.987  10.483   2.200  1.00  0.00    -0.217 N 
HETATM   11  C5  UNL     1      20.689  10.162   3.481  1.00  0.00     0.143 C 
HETATM   12  C6  UNL     1      21.183   8.715   3.118  1.00  0.00     0.056 C 
HETATM   13  C7  UNL     1      21.701   8.679   1.709  1.00  0.00     0.226 C 
HETATM   14  C12 UNL     1      22.139   9.988   1.211  1.00  0.00     0.056 C 
HETATM   15  C13 UNL     1      20.872  10.905   1.177  1.00  0.00     0.143 C 
BRANCH  13  16
HETATM   16  N3  UNL     1      22.501   7.517   1.526  1.00  0.00     0.093 N 
HETATM   17  C8  UNL     1      23.062   6.926   2.721  1.00  0.00     0.273 C 
HETATM   18  C9  UNL     1      24.060   5.937   2.087  1.00  0.00     0.032 C 
HETATM   19  C10 UNL     1      24.756   6.827   1.065  1.00  0.00     0.032 C 
HETATM   20  C11 UNL     1      23.577   7.636   0.569  1.00  0.00     0.273 C 
ENDBRANCH  13  16
ENDBRANCH   4  10
BRANCH   1  21
HETATM   21  C2  UNL     1      15.623   9.640   4.323  1.00  0.00     0.225 C 
BRANCH  21  22
HETATM   22  O1  UNL     1      16.113   8.572   5.181  1.00  0.00    -0.390 OA
HETATM   23  C1  UNL     1      15.637   8.937   6.483  1.00  0.00     0.201 C 
ENDBRANCH  21  22
ENDBRANCH   1  21
BRANCH   7  24
HETATM   24  N5  UNL     1      16.036  10.500  -0.438  1.00  0.00    -0.366 N 
HETATM   25  C15 UNL     1      16.957   9.946  -1.473  1.00  0.00     0.125 C 
HETATM   26  C16 UNL     1      16.233   9.659  -2.755  1.00  0.00     0.026 C 
HETATM   27  C17 UNL     1      14.977   8.893  -2.565  1.00  0.00     0.012 C 
HETATM   28  C19 UNL     1      14.098   9.523  -1.506  1.00  0.00     0.026 C 
HETATM   29  C20 UNL     1      14.759  10.829  -0.975  1.00  0.00     0.125 C 
BRANCH  27  30
HETATM   30  C18 UNL     1      14.166   8.917  -3.863  1.00  0.00     0.168 C 
BRANCH  30  31
HETATM   31  O2  UNL     1      13.866   7.636  -4.315  1.00  0.00    -0.400 OA
ATOM     32  H2  UNL     1      13.248   7.648  -5.037  1.00  0.00     0.209 HD
ENDBRANCH  30  31
ENDBRANCH  27  30
ENDBRANCH   7  24
TORSDOF 7
ENDMDL
MODEL 5
REMARK VINA RESULT: -8.243885637      3.729      5.270
REMARK  7 active torsions:
REMARK  status: ('A' for Active; 'I' for Inactive)
REMARK    1  A    between atoms: O1_2  and  C2_3 
REMARK    2  A    between atoms: C2_3  and  C3_4 
REMARK    3  A    between atoms: C4_7  and  N2_8 
REMARK    4  A    between atoms: C7_11  and  N3_12 
REMARK    5  A    between atoms: C14_21  and  N5_22 
REMARK    6  A    between atoms: C17_25  and  C18_26 
REMARK    7  A    between atoms: C18_26  and  O2_27 
ROOT
HETATM    1  C3  UNL     1      17.819  10.838   0.045  1.00  0.00     0.059 A 
HETATM    2  N1  UNL     1      17.440  11.274   1.250  1.00  0.00    -0.193 N 
ATOM      3  H1  UNL     1      18.124  11.766   1.824  1.00  0.00     0.184 HD
HETATM    4  C4  UNL     1      16.175  11.093   1.759  1.00  0.00     0.682 A 
HETATM    5  N4  UNL     1      15.351  10.452   0.923  1.00  0.00    -0.176 N 
ATOM      6  H4  UNL     1      14.399  10.296   1.252  1.00  0.00     0.186 HD
HETATM    7  C14 UNL     1      15.645   9.992  -0.304  1.00  0.00     0.127 A 
HETATM    8  C21 UNL     1      16.920  10.152  -0.803  1.00  0.00     0.008 A 
HETATM    9  C22 UNL     1      17.393   9.569  -2.055  1.00  0.00     0.054 C 
ENDROOT
BRANCH   4  10
HETATM   10  N2  UNL     1      15.793  11.427   3.061  1.00  0.00    -0.217 N 
HETATM   11  C5  UNL     1      14.343  11.350   3.417  1.00  0.00     0.143 C 
HETATM   12  C6  UNL     1      14.341   9.922   4.072  1.00  0.00     0.056 C 
HETATM   13  C7  UNL     1      15.550   9.747   4.946  1.00  0.00     0.226 C 
HETATM   14  C12 UNL     1      16.117  11.013   5.424  1.00  0.00     0.056 C 
HETATM   15  C13 UNL     1      16.612  11.791   4.160  1.00  0.00     0.143 C 
BRANCH  13  16
HETATM   16  N3  UNL     1      15.342   8.653   5.831  1.00  0.00     0.093 N 
HETATM   17  C8  UNL     1      14.067   8.608   6.513  1.00  0.00     0.273 C 
HETATM   18  C9  UNL     1      14.358   7.510   7.554  1.00  0.00     0.032 C 
HETATM   19  C10 UNL     1      15.701   7.967   8.107  1.00  0.00     0.032 C 
HETATM   20  C11 UNL     1      16.363   8.450   6.834  1.00  0.00     0.273 C 
ENDBRANCH  13  16
ENDBRANCH   4  10
BRANCH   1  21
HETATM   21  C2  UNL     1      19.196  10.915  -0.463  1.00  0.00     0.225 C 
BRANCH  21  22
HETATM   22  O1  UNL     1      20.029  11.845   0.283  1.00  0.00    -0.390 OA
HETATM   23  C1  UNL     1      21.014  11.004   0.897  1.00  0.00     0.201 C 
ENDBRANCH  21  22
ENDBRANCH   1  21
BRANCH   7  24
HETATM   24  N5  UNL     1      14.574   9.596  -1.149  1.00  0.00    -0.366 N 
HETATM   25  C15 UNL     1      13.490  10.614  -1.269  1.00  0.00     0.125 C 
HETATM   26  C16 UNL     1      12.577  10.310  -2.420  1.00  0.00     0.026 C 
HETATM   27  C17 UNL     1      13.297  10.018  -3.684  1.00  0.00     0.012 C 
HETATM   28  C19 UNL     1      14.373   8.973  -3.478  1.00  0.00     0.026 C 
HETATM   29  C20 UNL     1      14.357   8.477  -2.002  1.00  0.00     0.125 C 
BRANCH  27  30
HETATM   30  C18 UNL     1      12.317   9.428  -4.702  1.00  0.00     0.168 C 
BRANCH  30  31
HETATM   31  O2  UNL     1      11.146  10.173  -4.790  1.00  0.00    -0.400 OA
ATOM     32  H2  UNL     1      10.644   9.956  -5.567  1.00  0.00     0.209 HD
ENDBRANCH  30  31
ENDBRANCH  27  30
ENDBRANCH   7  24
TORSDOF 7
ENDMDL
