MODEL 1
REMARK VINA RESULT: -8.771772440      0.000      0.000
REMARK  7 active torsions:
REMARK  status: ('A' for Active; 'I' for Inactive)
REMARK    1  A    between atoms: C2_2  and  C3_3 
REMARK    2  A    between atoms: C2_2  and  N3_16 
REMARK    3  A    between atoms: C3_3  and  C4_4 
REMARK    4  A    between atoms: C3_3  and  C7_11 
REMARK    5  A    between atoms: C7_11  and  O1_14 
REMARK    6  A    between atoms: C13_20  and  C14_21 
REMARK    7  A    between atoms: C13_20  and  N5_24 
ROOT
HETATM    1  C14 UNL     1      16.352   9.562   0.811  1.00  0.00     0.157 C 
HETATM    2  C15 UNL     1      15.739  10.612   0.003  1.00  0.00     0.061 C 
HETATM    3  N4  UNL     1      15.241  11.433  -0.623  1.00  0.00    -0.197 NA
ENDROOT
BRANCH   1   4
HETATM    4  C13 UNL     1      17.456  10.224   1.642  1.00  0.00     0.083 C 
HETATM    5  C11 UNL     1      17.130  11.683   1.885  1.00  0.00     0.041 C 
HETATM    6  C10 UNL     1      16.716  11.751   3.355  1.00  0.00     0.279 C 
HETATM    7  C12 UNL     1      18.337  12.569   1.721  1.00  0.00     0.014 C 
HETATM    8  N3  UNL     1      16.255  10.420   3.583  1.00  0.00     0.096 N 
HETATM    9  C23 UNL     1      17.412   9.678   3.035  1.00  0.00     0.305 C 
BRANCH   8  10
HETATM   10  C2  UNL     1      16.025  10.062   4.963  1.00  0.00     0.231 C 
HETATM   11  C1  UNL     1      17.249   9.572   5.659  1.00  0.00     0.043 C 
BRANCH  10  12
HETATM   12  C3  UNL     1      14.879   9.097   5.021  1.00  0.00     0.103 C 
BRANCH  12  13
HETATM   13  C4  UNL     1      13.951   9.331   3.842  1.00  0.00     0.034 A 
HETATM   14  C5  UNL     1      13.519   8.459   2.884  1.00  0.00     0.114 A 
HETATM   15  N1  UNL     1      12.715   9.071   2.015  1.00  0.00    -0.360 N 
HETATM   16  C6  UNL     1      12.638  10.342   2.425  1.00  0.00     0.180 A 
ATOM     17  H1  UNL     1      12.254   8.657   1.204  1.00  0.00     0.166 HD
HETATM   18  N2  UNL     1      13.390  10.505   3.538  1.00  0.00    -0.354 N 
ATOM     19  H2  UNL     1      13.507  11.375   4.057  1.00  0.00     0.166 HD
ENDBRANCH  12  13
BRANCH  12  20
HETATM   20  C7  UNL     1      13.996   9.167   6.213  1.00  0.00     0.062 C 
HETATM   21  C8  UNL     1      14.115  10.331   7.123  1.00  0.00     0.046 C 
HETATM   22  C9  UNL     1      14.295   7.923   7.061  1.00  0.00     0.046 C 
BRANCH  20  23
HETATM   23  O1  UNL     1      12.643   9.056   5.843  1.00  0.00    -0.390 OA
ATOM     24  H1  UNL     1      12.303   9.892   5.546  1.00  0.00     0.210 HD
ENDBRANCH  20  23
ENDBRANCH  12  20
ENDBRANCH  10  12
ENDBRANCH   8  10
BRANCH   4  25
HETATM   25  N5  UNL     1      18.672  10.017   0.926  1.00  0.00    -0.314 N 
HETATM   26  C16 UNL     1      18.811  10.507  -0.344  1.00  0.00     0.186 A 
HETATM   27  N6  UNL     1      20.027  10.182  -0.790  1.00  0.00    -0.349 N 
HETATM   28  C17 UNL     1      20.660   9.484   0.200  1.00  0.00     0.079 A 
ATOM     29  H6  UNL     1      20.413  10.412  -1.705  1.00  0.00     0.166 HD
HETATM   30  C18 UNL     1      21.909   8.938   0.235  1.00  0.00     0.057 A 
HETATM   31  C22 UNL     1      19.802   9.387   1.271  1.00  0.00     0.136 A 
HETATM   32  C19 UNL     1      22.323   8.270   1.371  1.00  0.00     0.062 A 
HETATM   33  C20 UNL     1      23.628   7.669   1.473  1.00  0.00     0.101 C 
HETATM   34  C21 UNL     1      21.418   8.207   2.408  1.00  0.00     0.112 A 
HETATM   35  N7  UNL     1      24.686   7.169   1.570  1.00  0.00    -0.191 NA
HETATM   36  N8  UNL     1      20.190   8.744   2.377  1.00  0.00    -0.349 N 
ATOM     37  H8  UNL     1      19.566   8.663   3.179  1.00  0.00     0.167 HD
ENDBRANCH   4  25
ENDBRANCH   1   4
TORSDOF 7
ENDMDL
MODEL 2
REMARK VINA RESULT: -8.049825677      2.647      5.077
REMARK  7 active torsions:
REMARK  status: ('A' for Active; 'I' for Inactive)
REMARK    1  A    between atoms: C2_2  and  C3_3 
REMARK    2  A    between atoms: C2_2  and  N3_16 
REMARK    3  A    between atoms: C3_3  and  C4_4 
REMARK    4  A    between atoms: C3_3  and  C7_11 
REMARK    5  A    between atoms: C7_11  and  O1_14 
REMARK    6  A    between atoms: C13_20  and  C14_21 
REMARK    7  A    between atoms: C13_20  and  N5_24 
ROOT
HETATM    1  C14 UNL     1      19.339   8.903   3.106  1.00  0.00     0.157 C 
HETATM    2  C15 UNL     1      18.858   9.879   4.079  1.00  0.00     0.061 C 
HETATM    3  N4  UNL     1      18.488  10.636   4.857  1.00  0.00    -0.197 NA
ENDROOT
BRANCH   1   4
HETATM    4  C13 UNL     1      20.296   9.643   2.165  1.00  0.00     0.083 C 
HETATM    5  C11 UNL     1      20.404   8.912   0.842  1.00  0.00     0.041 C 
HETATM    6  C10 UNL     1      19.614   9.773  -0.145  1.00  0.00     0.279 C 
HETATM    7  C12 UNL     1      21.823   8.851   0.343  1.00  0.00     0.014 C 
HETATM    8  N3  UNL     1      18.701  10.438   0.726  1.00  0.00     0.096 N 
HETATM    9  C23 UNL     1      19.662  10.929   1.738  1.00  0.00     0.305 C 
BRANCH   8  10
HETATM   10  C2  UNL     1      17.966  11.537   0.144  1.00  0.00     0.231 C 
HETATM   11  C1  UNL     1      18.239  12.846   0.803  1.00  0.00     0.043 C 
BRANCH  10  12
HETATM   12  C3  UNL     1      16.511  11.175   0.116  1.00  0.00     0.103 C 
BRANCH  12  13
HETATM   13  C4  UNL     1      16.127  10.490   1.415  1.00  0.00     0.034 A 
HETATM   14  C5  UNL     1      15.695  11.031   2.593  1.00  0.00     0.114 A 
HETATM   15  N1  UNL     1      15.473  10.077   3.499  1.00  0.00    -0.360 N 
HETATM   16  C6  UNL     1      15.768   8.924   2.889  1.00  0.00     0.180 A 
ATOM     17  H1  UNL     1      15.147  10.201   4.457  1.00  0.00     0.166 HD
HETATM   18  N2  UNL     1      16.166   9.170   1.620  1.00  0.00    -0.354 N 
ATOM     19  H2  UNL     1      16.448   8.469   0.936  1.00  0.00     0.166 HD
ENDBRANCH  12  13
BRANCH  12  20
HETATM   20  C7  UNL     1      16.068  10.236  -0.947  1.00  0.00     0.062 C 
HETATM   21  C8  UNL     1      16.781  10.242  -2.247  1.00  0.00     0.046 C 
HETATM   22  C9  UNL     1      14.603  10.574  -1.256  1.00  0.00     0.046 C 
BRANCH  20  23
HETATM   23  O1  UNL     1      16.060   8.911  -0.475  1.00  0.00    -0.390 OA
ATOM     24  H1  UNL     1      16.547   8.341  -1.058  1.00  0.00     0.210 HD
ENDBRANCH  20  23
ENDBRANCH  12  20
ENDBRANCH  10  12
ENDBRANCH   8  10
BRANCH   4  25
HETATM   25  N5  UNL     1      21.534   9.755   2.863  1.00  0.00    -0.314 N 
HETATM   26  C16 UNL     1      22.182  10.959   2.919  1.00  0.00     0.186 A 
HETATM   27  N6  UNL     1      23.306  10.800   3.622  1.00  0.00    -0.349 N 
HETATM   28  C17 UNL     1      23.371   9.493   4.014  1.00  0.00     0.079 A 
ATOM     29  H6  UNL     1      23.993  11.525   3.830  1.00  0.00     0.166 HD
HETATM   30  C18 UNL     1      24.314   8.836   4.747  1.00  0.00     0.057 A 
HETATM   31  C22 UNL     1      22.255   8.847   3.533  1.00  0.00     0.136 A 
HETATM   32  C19 UNL     1      24.147   7.490   5.013  1.00  0.00     0.062 A 
HETATM   33  C20 UNL     1      25.106   6.737   5.780  1.00  0.00     0.101 C 
HETATM   34  C21 UNL     1      23.011   6.902   4.503  1.00  0.00     0.112 A 
HETATM   35  N7  UNL     1      25.880   6.108   6.398  1.00  0.00    -0.191 NA
HETATM   36  N8  UNL     1      22.081   7.545   3.783  1.00  0.00    -0.349 N 
ATOM     37  H8  UNL     1      21.259   7.052   3.434  1.00  0.00     0.167 HD
ENDBRANCH   4  25
ENDBRANCH   1   4
TORSDOF 7
ENDMDL
MODEL 3
REMARK VINA RESULT: -8.028634619      3.227      7.202
REMARK  7 active torsions:
REMARK  status: ('A' for Active; 'I' for Inactive)
REMARK    1  A    between atoms: C2_2  and  C3_3 
REMARK    2  A    between atoms: C2_2  and  N3_16 
REMARK    3  A    between atoms: C3_3  and  C4_4 
REMARK    4  A    between atoms: C3_3  and  C7_11 
REMARK    5  A    between atoms: C7_11  and  O1_14 
REMARK    6  A    between atoms: C13_20  and  C14_21 
REMARK    7  A    between atoms: C13_20  and  N5_24 
ROOT
HETATM    1  C14 UNL     1      17.815  10.237   3.654  1.00  0.00     0.157 C 
HETATM    2  C15 UNL     1      17.800   8.783   3.783  1.00  0.00     0.061 C 
HETATM    3  N4  UNL     1      17.769   7.642   3.890  1.00  0.00    -0.197 NA
ENDROOT
BRANCH   1   4
HETATM    4  C13 UNL     1      18.087  10.553   2.179  1.00  0.00     0.083 C 
HETATM    5  C11 UNL     1      18.740  11.913   2.043  1.00  0.00     0.041 C 
HETATM    6  C10 UNL     1      20.199  11.613   1.699  1.00  0.00     0.279 C 
HETATM    7  C12 UNL     1      18.166  12.705   0.899  1.00  0.00     0.014 C 
HETATM    8  N3  UNL     1      20.364  10.314   2.266  1.00  0.00     0.096 N 
HETATM    9  C23 UNL     1      19.175   9.654   1.681  1.00  0.00     0.305 C 
BRANCH   8  10
HETATM   10  C2  UNL     1      21.571   9.614   1.893  1.00  0.00     0.231 C 
HETATM   11  C1  UNL     1      21.670   9.343   0.431  1.00  0.00     0.043 C 
BRANCH  10  12
HETATM   12  C3  UNL     1      21.688   8.382   2.738  1.00  0.00     0.103 C 
BRANCH  12  13
HETATM   13  C4  UNL     1      21.764   8.769   4.204  1.00  0.00     0.034 A 
HETATM   14  C5  UNL     1      21.021   8.333   5.263  1.00  0.00     0.114 A 
HETATM   15  N1  UNL     1      21.402   8.936   6.390  1.00  0.00    -0.360 N 
HETATM   16  C6  UNL     1      22.396   9.761   6.040  1.00  0.00     0.180 A 
ATOM     17  H1  UNL     1      21.017   8.797   7.324  1.00  0.00     0.166 HD
HETATM   18  N2  UNL     1      22.620   9.663   4.710  1.00  0.00    -0.354 N 
ATOM     19  H2  UNL     1      23.322  10.182   4.184  1.00  0.00     0.166 HD
ENDBRANCH  12  13
BRANCH  12  20
HETATM   20  C7  UNL     1      22.877   7.519   2.516  1.00  0.00     0.062 C 
HETATM   21  C8  UNL     1      23.040   6.854   1.202  1.00  0.00     0.046 C 
HETATM   22  C9  UNL     1      22.814   6.397   3.563  1.00  0.00     0.046 C 
BRANCH  20  23
HETATM   23  O1  UNL     1      24.065   8.222   2.785  1.00  0.00    -0.390 OA
ATOM     24  H1  UNL     1      24.814   7.638   2.778  1.00  0.00     0.210 HD
ENDBRANCH  20  23
ENDBRANCH  12  20
ENDBRANCH  10  12
ENDBRANCH   8  10
BRANCH   4  25
HETATM   25  N5  UNL     1      16.832  10.447   1.511  1.00  0.00    -0.314 N 
HETATM   26  C16 UNL     1      15.668  10.646   2.204  1.00  0.00     0.186 A 
HETATM   27  N6  UNL     1      14.644  10.491   1.361  1.00  0.00    -0.349 N 
HETATM   28  C17 UNL     1      15.160  10.193   0.131  1.00  0.00     0.079 A 
ATOM     29  H6  UNL     1      13.655  10.579   1.594  1.00  0.00     0.166 HD
HETATM   30  C18 UNL     1      14.532   9.947  -1.053  1.00  0.00     0.057 A 
HETATM   31  C22 UNL     1      16.531  10.168   0.237  1.00  0.00     0.136 A 
HETATM   32  C19 UNL     1      15.288   9.665  -2.174  1.00  0.00     0.062 A 
HETATM   33  C20 UNL     1      14.688   9.395  -3.456  1.00  0.00     0.101 C 
HETATM   34  C21 UNL     1      16.655   9.655  -2.003  1.00  0.00     0.112 A 
HETATM   35  N7  UNL     1      14.214   9.167  -4.505  1.00  0.00    -0.191 NA
HETATM   36  N8  UNL     1      17.276   9.897  -0.840  1.00  0.00    -0.349 N 
ATOM     37  H8  UNL     1      18.294   9.876  -0.778  1.00  0.00     0.167 HD
ENDBRANCH   4  25
ENDBRANCH   1   4
TORSDOF 7
ENDMDL
MODEL 4
REMARK VINA RESULT: -8.016061541      3.019      6.859
REMARK  7 active torsions:
REMARK  status: ('A' for Active; 'I' for Inactive)
REMARK    1  A    between atoms: C2_2  and  C3_3 
REMARK    2  A    between atoms: C2_2  and  N3_16 
REMARK    3  A    between atoms: C3_3  and  C4_4 
REMARK    4  A    between atoms: C3_3  and  C7_11 
REMARK    5  A    between atoms: C7_11  and  O1_14 
REMARK    6  A    between atoms: C13_20  and  C14_21 
REMARK    7  A    between atoms: C13_20  and  N5_24 
ROOT
HETATM    1  C14 UNL     1      17.302   9.703   3.108  1.00  0.00     0.157 C 
HETATM    2  C15 UNL     1      16.911  10.820   3.963  1.00  0.00     0.061 C 
HETATM    3  N4  UNL     1      16.618  11.692   4.647  1.00  0.00    -0.197 NA
ENDROOT
BRANCH   1   4
HETATM    4  C13 UNL     1      17.738  10.299   1.765  1.00  0.00     0.083 C 
HETATM    5  C11 UNL     1      18.361  11.664   1.972  1.00  0.00     0.041 C 
HETATM    6  C10 UNL     1      19.859  11.446   1.760  1.00  0.00     0.279 C 
HETATM    7  C12 UNL     1      17.905  12.658   0.937  1.00  0.00     0.014 C 
HETATM    8  N3  UNL     1      19.994  10.063   2.084  1.00  0.00     0.096 N 
HETATM    9  C23 UNL     1      18.905   9.521   1.243  1.00  0.00     0.305 C 
BRANCH   8  10
HETATM   10  C2  UNL     1      21.258   9.457   1.737  1.00  0.00     0.231 C 
HETATM   11  C1  UNL     1      21.536   9.465   0.272  1.00  0.00     0.043 C 
BRANCH  10  12
HETATM   12  C3  UNL     1      21.314   8.089   2.348  1.00  0.00     0.103 C 
BRANCH  12  13
HETATM   13  C4  UNL     1      20.617   8.099   3.696  1.00  0.00     0.034 A 
HETATM   14  C5  UNL     1      20.729   8.984   4.731  1.00  0.00     0.114 A 
HETATM   15  N1  UNL     1      19.946   8.623   5.749  1.00  0.00    -0.360 N 
HETATM   16  C6  UNL     1      19.334   7.501   5.355  1.00  0.00     0.180 A 
ATOM     17  H1  UNL     1      19.837   9.103   6.642  1.00  0.00     0.166 HD
HETATM   18  N2  UNL     1      19.739   7.178   4.105  1.00  0.00    -0.354 N 
ATOM     19  H2  UNL     1      19.428   6.370   3.567  1.00  0.00     0.166 HD
ENDBRANCH  12  13
BRANCH  12  20
HETATM   20  C7  UNL     1      22.661   7.526   2.627  1.00  0.00     0.062 C 
HETATM   21  C8  UNL     1      23.764   8.454   2.972  1.00  0.00     0.046 C 
HETATM   22  C9  UNL     1      23.103   6.782   1.359  1.00  0.00     0.046 C 
BRANCH  20  23
HETATM   23  O1  UNL     1      22.598   6.550   3.637  1.00  0.00    -0.390 OA
ATOM     24  H1  UNL     1      23.413   6.067   3.694  1.00  0.00     0.210 HD
ENDBRANCH  20  23
ENDBRANCH  12  20
ENDBRANCH  10  12
ENDBRANCH   8  10
BRANCH   4  25
HETATM   25  N5  UNL     1      16.575  10.316   0.939  1.00  0.00    -0.314 N 
HETATM   26  C16 UNL     1      15.335  10.430   1.506  1.00  0.00     0.186 A 
HETATM   27  N6  UNL     1      14.424  10.420   0.530  1.00  0.00    -0.349 N 
HETATM   28  C17 UNL     1      15.088  10.298  -0.658  1.00  0.00     0.079 A 
ATOM     29  H6  UNL     1      13.413  10.489   0.649  1.00  0.00     0.166 HD
HETATM   30  C18 UNL     1      14.612  10.241  -1.934  1.00  0.00     0.057 A 
HETATM   31  C22 UNL     1      16.436  10.234  -0.390  1.00  0.00     0.136 A 
HETATM   32  C19 UNL     1      15.503  10.115  -2.983  1.00  0.00     0.062 A 
HETATM   33  C20 UNL     1      15.066  10.048  -4.354  1.00  0.00     0.101 C 
HETATM   34  C21 UNL     1      16.838  10.055  -2.649  1.00  0.00     0.112 A 
HETATM   35  N7  UNL     1      14.727   9.987  -5.476  1.00  0.00    -0.191 NA
HETATM   36  N8  UNL     1      17.309  10.112  -1.395  1.00  0.00    -0.349 N 
ATOM     37  H8  UNL     1      18.311  10.064  -1.212  1.00  0.00     0.167 HD
ENDBRANCH   4  25
ENDBRANCH   1   4
TORSDOF 7
ENDMDL
MODEL 5
REMARK VINA RESULT: -8.008458414      3.017      7.283
REMARK  7 active torsions:
REMARK  status: ('A' for Active; 'I' for Inactive)
REMARK    1  A    between atoms: C2_2  and  C3_3 
REMARK    2  A    between atoms: C2_2  and  N3_16 
REMARK    3  A    between atoms: C3_3  and  C4_4 
REMARK    4  A    between atoms: C3_3  and  C7_11 
REMARK    5  A    between atoms: C7_11  and  O1_14 
REMARK    6  A    between atoms: C13_20  and  C14_21 
REMARK    7  A    between atoms: C13_20  and  N5_24 
ROOT
HETATM    1  C14 UNL     1      18.184   9.098   2.864  1.00  0.00     0.157 C 
HETATM    2  C15 UNL     1      19.023  10.272   2.637  1.00  0.00     0.061 C 
HETATM    3  N4  UNL     1      19.682  11.189   2.439  1.00  0.00    -0.197 NA
ENDROOT
BRANCH   1   4
HETATM    4  C13 UNL     1      16.827   9.607   3.363  1.00  0.00     0.083 C 
HETATM    5  C11 UNL     1      16.698  11.095   3.112  1.00  0.00     0.041 C 
HETATM    6  C10 UNL     1      15.717  11.211   1.945  1.00  0.00     0.279 C 
HETATM    7  C12 UNL     1      16.085  11.816   4.283  1.00  0.00     0.014 C 
HETATM    8  N3  UNL     1      15.892   9.950   1.300  1.00  0.00     0.096 N 
HETATM    9  C23 UNL     1      15.749   9.065   2.477  1.00  0.00     0.305 C 
BRANCH   8  10
HETATM   10  C2  UNL     1      14.914   9.620   0.291  1.00  0.00     0.231 C 
HETATM   11  C1  UNL     1      13.960   8.556   0.716  1.00  0.00     0.043 C 
BRANCH  10  12
HETATM   12  C3  UNL     1      15.634   9.300  -0.985  1.00  0.00     0.103 C 
BRANCH  12  13
HETATM   13  C4  UNL     1      17.037   9.878  -0.941  1.00  0.00     0.034 A 
HETATM   14  C5  UNL     1      17.446  11.164  -0.733  1.00  0.00     0.114 A 
HETATM   15  N1  UNL     1      18.776  11.252  -0.783  1.00  0.00    -0.360 N 
HETATM   16  C6  UNL     1      19.212  10.011  -1.025  1.00  0.00     0.180 A 
ATOM     17  H1  UNL     1      19.343  12.091  -0.662  1.00  0.00     0.166 HD
HETATM   18  N2  UNL     1      18.156   9.170  -1.122  1.00  0.00    -0.354 N 
ATOM     19  H2  UNL     1      18.206   8.168  -1.302  1.00  0.00     0.166 HD
ENDBRANCH  12  13
BRANCH  12  20
HETATM   20  C7  UNL     1      15.050   9.831  -2.244  1.00  0.00     0.062 C 
HETATM   21  C8  UNL     1      14.072  10.942  -2.163  1.00  0.00     0.046 C 
HETATM   22  C9  UNL     1      14.322   8.662  -2.923  1.00  0.00     0.046 C 
BRANCH  20  23
HETATM   23  O1  UNL     1      16.060  10.221  -3.141  1.00  0.00    -0.390 OA
ATOM     24  H1  UNL     1      16.097   9.634  -3.887  1.00  0.00     0.210 HD
ENDBRANCH  20  23
ENDBRANCH  12  20
ENDBRANCH  10  12
ENDBRANCH   8  10
BRANCH   4  25
HETATM   25  N5  UNL     1      16.748   9.246   4.740  1.00  0.00    -0.314 N 
HETATM   26  C16 UNL     1      17.844   8.732   5.378  1.00  0.00     0.186 A 
HETATM   27  N6  UNL     1      17.513   8.477   6.646  1.00  0.00    -0.349 N 
HETATM   28  C17 UNL     1      16.203   8.829   6.812  1.00  0.00     0.079 A 
ATOM     29  H6  UNL     1      18.127   8.088   7.362  1.00  0.00     0.166 HD
HETATM   30  C18 UNL     1      15.405   8.764   7.915  1.00  0.00     0.057 A 
HETATM   31  C22 UNL     1      15.734   9.311   5.612  1.00  0.00     0.136 A 
HETATM   32  C19 UNL     1      14.093   9.189   7.826  1.00  0.00     0.062 A 
HETATM   33  C20 UNL     1      13.196   9.147   8.953  1.00  0.00     0.101 C 
HETATM   34  C21 UNL     1      13.684   9.659   6.598  1.00  0.00     0.112 A 
HETATM   35  N7  UNL     1      12.451   9.112   9.859  1.00  0.00    -0.191 NA
HETATM   36  N8  UNL     1      14.467   9.725   5.512  1.00  0.00    -0.349 N 
ATOM     37  H8  UNL     1      14.104  10.085   4.629  1.00  0.00     0.167 HD
ENDBRANCH   4  25
ENDBRANCH   1   4
TORSDOF 7
ENDMDL
