MODEL 1
REMARK VINA RESULT: -8.742870530      0.000      0.000
REMARK  14 active torsions:
REMARK  status: ('A' for Active; 'I' for Inactive)
REMARK    1  A    between atoms: C2_2  and  C3_3 
REMARK    2  A    between atoms: C3_3  and  C4_4 
REMARK    3  A    between atoms: C4_4  and  N1_5 
REMARK       I    between atoms: N1_5  and  C5_7 
REMARK       I    between atoms: C5_7  and  N2_9 
REMARK    4  A    between atoms: N2_9  and  C6_11 
REMARK    5  A    between atoms: C8_13  and  N3_14 
REMARK    6  A    between atoms: N3_14  and  C9_16 
REMARK    7  A    between atoms: C9_16  and  C10_17 
REMARK    8  A    between atoms: C10_17  and  N4_18 
REMARK    9  A    between atoms: C15_25  and  N6_26 
REMARK       I    between atoms: N6_26  and  C16_28 
REMARK   10  A    between atoms: N8_30  and  C17_32 
REMARK   11  A    between atoms: C17_32  and  C18_33 
REMARK   12  A    between atoms: C18_33  and  C19_34 
REMARK   13  A    between atoms: C19_34  and  C20_35 
REMARK   14  A    between atoms: C20_35  and  C21_36 
ROOT
HETATM    1  C6  UNL     1      22.978  47.948  42.918  1.00  0.00     0.128 A 
HETATM    2  C7  UNL     1      23.331  49.252  43.242  1.00  0.00     0.098 A 
HETATM    3  C8  UNL     1      22.419  50.010  43.943  1.00  0.00     0.120 A 
HETATM    4  N5  UNL     1      21.233  49.481  44.290  1.00  0.00    -0.177 N 
ATOM      5  H5  UNL     1      20.575  50.061  44.808  1.00  0.00     0.186 HD
HETATM    6  C15 UNL     1      20.871  48.201  43.978  1.00  0.00     0.687 A 
HETATM    7  N9  UNL     1      21.775  47.479  43.295  1.00  0.00    -0.176 N 
ATOM      8  H9  UNL     1      21.535  46.518  43.047  1.00  0.00     0.186 HD
ENDROOT
BRANCH   6   9
HETATM    9  N6  UNL     1      19.714  47.749  44.346  1.00  0.00    -0.163 N 
HETATM   10  C16 UNL     1      19.486  46.388  44.614  1.00  0.00     0.202 C 
HETATM   11  N7  UNL     1      20.084  45.832  45.781  1.00  0.00    -0.063 NA
HETATM   12  N8  UNL     1      18.752  45.727  43.795  1.00  0.00    -0.364 N 
ATOM     13  H8  UNL     1      18.345  46.171  42.972  1.00  0.00     0.162 HD
ATOM     14  H6  UNL     1      18.939  48.406  44.444  1.00  0.00     0.187 HD
BRANCH  12  15
HETATM   15  C17 UNL     1      18.523  44.312  44.085  1.00  0.00     0.122 C 
BRANCH  15  16
HETATM   16  C18 UNL     1      17.568  43.748  43.072  1.00  0.00     0.020 C 
BRANCH  16  17
HETATM   17  C19 UNL     1      17.529  44.647  41.868  1.00  0.00     0.002 C 
BRANCH  17  18
HETATM   18  C20 UNL     1      16.137  44.653  41.296  1.00  0.00     0.011 C 
BRANCH  18  19
HETATM   19  C21 UNL     1      16.223  45.288  39.916  1.00  0.00     0.085 C 
HETATM   20 BR1  UNL     1      15.228  46.945  39.948  1.00  0.00    -0.097 Br
ENDBRANCH  18  19
ENDBRANCH  17  18
ENDBRANCH  16  17
ENDBRANCH  15  16
ENDBRANCH  12  15
ENDBRANCH   6   9
BRANCH   3  21
HETATM   21  N3  UNL     1      22.760  51.346  44.281  1.00  0.00    -0.374 N 
ATOM     22  H3  UNL     1      23.152  51.973  43.579  1.00  0.00     0.161 HD
BRANCH  21  23
HETATM   23  C9  UNL     1      22.542  51.804  45.639  1.00  0.00     0.151 C 
BRANCH  23  24
HETATM   24  C10 UNL     1      23.573  51.173  46.553  1.00  0.00     0.292 C 
BRANCH  24  25
HETATM   25  N4  UNL     1      22.876  50.328  47.520  1.00  0.00     0.090 N 
HETATM   26  C11 UNL     1      23.350  50.704  48.830  1.00  0.00     0.272 C 
HETATM   27  C12 UNL     1      23.638  49.398  49.560  1.00  0.00     0.032 C 
HETATM   28  C13 UNL     1      24.164  48.542  48.416  1.00  0.00     0.032 C 
HETATM   29  C14 UNL     1      23.238  48.964  47.289  1.00  0.00     0.272 C 
ENDBRANCH  24  25
ENDBRANCH  23  24
ENDBRANCH  21  23
ENDBRANCH   3  21
BRANCH   1  30
HETATM   30  N2  UNL     1      23.846  47.251  42.268  1.00  0.00    -0.294 N 
HETATM   31  C5  UNL     1      24.661  46.354  43.056  1.00  0.00     0.321 C 
HETATM   32  N1  UNL     1      24.117  45.121  43.472  1.00  0.00    -0.343 N 
HETATM   33  O1  UNL     1      25.813  46.738  43.322  1.00  0.00    -0.247 OA
ATOM     34  H1  UNL     1      23.158  44.894  43.208  1.00  0.00     0.164 HD
ATOM     35  H2  UNL     1      23.951  47.329  41.257  1.00  0.00     0.172 HD
BRANCH  32  36
HETATM   36  C4  UNL     1      24.861  44.172  44.251  1.00  0.00     0.124 C 
BRANCH  36  37
HETATM   37  C3  UNL     1      23.989  43.432  45.209  1.00  0.00     0.019 C 
BRANCH  37  38
HETATM   38  C2  UNL     1      22.551  43.548  44.719  1.00  0.00    -0.003 C 
HETATM   39  C1  UNL     1      21.625  42.633  45.484  1.00  0.00     0.005 C 
ENDBRANCH  37  38
ENDBRANCH  36  37
ENDBRANCH  32  36
ENDBRANCH   1  30
TORSDOF 14
ENDMDL
MODEL 2
REMARK VINA RESULT: -8.734884477      1.515      5.129
REMARK  14 active torsions:
REMARK  status: ('A' for Active; 'I' for Inactive)
REMARK    1  A    between atoms: C2_2  and  C3_3 
REMARK    2  A    between atoms: C3_3  and  C4_4 
REMARK    3  A    between atoms: C4_4  and  N1_5 
REMARK       I    between atoms: N1_5  and  C5_7 
REMARK       I    between atoms: C5_7  and  N2_9 
REMARK    4  A    between atoms: N2_9  and  C6_11 
REMARK    5  A    between atoms: C8_13  and  N3_14 
REMARK    6  A    between atoms: N3_14  and  C9_16 
REMARK    7  A    between atoms: C9_16  and  C10_17 
REMARK    8  A    between atoms: C10_17  and  N4_18 
REMARK    9  A    between atoms: C15_25  and  N6_26 
REMARK       I    between atoms: N6_26  and  C16_28 
REMARK   10  A    between atoms: N8_30  and  C17_32 
REMARK   11  A    between atoms: C17_32  and  C18_33 
REMARK   12  A    between atoms: C18_33  and  C19_34 
REMARK   13  A    between atoms: C19_34  and  C20_35 
REMARK   14  A    between atoms: C20_35  and  C21_36 
ROOT
HETATM    1  C6  UNL     1      22.738  49.865  44.277  1.00  0.00     0.128 A 
HETATM    2  C7  UNL     1      23.550  49.176  43.384  1.00  0.00     0.098 A 
HETATM    3  C8  UNL     1      23.026  48.063  42.765  1.00  0.00     0.120 A 
HETATM    4  N5  UNL     1      21.767  47.677  43.034  1.00  0.00    -0.177 N 
ATOM      5  H5  UNL     1      21.401  46.850  42.563  1.00  0.00     0.186 HD
HETATM    6  C15 UNL     1      20.957  48.343  43.909  1.00  0.00     0.687 A 
HETATM    7  N9  UNL     1      21.486  49.426  44.502  1.00  0.00    -0.176 N 
ATOM      8  H9  UNL     1      20.907  49.946  45.161  1.00  0.00     0.186 HD
ENDROOT
BRANCH   6   9
HETATM    9  N6  UNL     1      19.750  47.921  44.122  1.00  0.00    -0.163 N 
HETATM   10  C16 UNL     1      19.455  46.566  44.353  1.00  0.00     0.202 C 
HETATM   11  N7  UNL     1      19.882  45.994  45.586  1.00  0.00    -0.063 NA
HETATM   12  N8  UNL     1      18.818  45.924  43.443  1.00  0.00    -0.364 N 
ATOM     13  H8  UNL     1      18.532  46.379  42.576  1.00  0.00     0.162 HD
ATOM     14  H6  UNL     1      18.986  48.597  44.121  1.00  0.00     0.187 HD
BRANCH  12  15
HETATM   15  C17 UNL     1      18.517  44.516  43.695  1.00  0.00     0.122 C 
BRANCH  15  16
HETATM   16  C18 UNL     1      17.568  44.016  42.644  1.00  0.00     0.020 C 
BRANCH  16  17
HETATM   17  C19 UNL     1      17.550  44.980  41.490  1.00  0.00     0.002 C 
BRANCH  17  18
HETATM   18  C20 UNL     1      16.681  44.425  40.394  1.00  0.00     0.011 C 
BRANCH  18  19
HETATM   19  C21 UNL     1      15.255  44.395  40.925  1.00  0.00     0.085 C 
HETATM   20 BR1  UNL     1      14.586  46.208  40.970  1.00  0.00    -0.097 Br
ENDBRANCH  18  19
ENDBRANCH  17  18
ENDBRANCH  16  17
ENDBRANCH  15  16
ENDBRANCH  12  15
ENDBRANCH   6   9
BRANCH   3  21
HETATM   21  N3  UNL     1      23.841  47.344  41.852  1.00  0.00    -0.374 N 
ATOM     22  H3  UNL     1      24.413  47.839  41.168  1.00  0.00     0.161 HD
BRANCH  21  23
HETATM   23  C9  UNL     1      23.846  45.895  41.906  1.00  0.00     0.151 C 
BRANCH  23  24
HETATM   24  C10 UNL     1      24.177  45.447  43.316  1.00  0.00     0.292 C 
BRANCH  24  25
HETATM   25  N4  UNL     1      23.657  44.095  43.503  1.00  0.00     0.090 N 
HETATM   26  C11 UNL     1      22.265  44.222  43.859  1.00  0.00     0.272 C 
HETATM   27  C12 UNL     1      22.047  43.280  45.037  1.00  0.00     0.032 C 
HETATM   28  C13 UNL     1      23.376  43.424  45.766  1.00  0.00     0.032 C 
HETATM   29  C14 UNL     1      24.343  43.482  44.598  1.00  0.00     0.272 C 
ENDBRANCH  24  25
ENDBRANCH  23  24
ENDBRANCH  21  23
ENDBRANCH   3  21
BRANCH   1  30
HETATM   30  N2  UNL     1      23.242  50.908  44.841  1.00  0.00    -0.294 N 
HETATM   31  C5  UNL     1      22.893  51.113  46.229  1.00  0.00     0.321 C 
HETATM   32  N1  UNL     1      23.561  50.366  47.221  1.00  0.00    -0.343 N 
HETATM   33  O1  UNL     1      22.007  51.953  46.460  1.00  0.00    -0.247 OA
ATOM     34  H1  UNL     1      24.273  49.695  46.934  1.00  0.00     0.164 HD
ATOM     35  H2  UNL     1      23.853  51.551  44.337  1.00  0.00     0.172 HD
BRANCH  32  36
HETATM   36  C4  UNL     1      23.277  50.514  48.621  1.00  0.00     0.124 C 
BRANCH  36  37
HETATM   37  C3  UNL     1      23.238  49.198  49.324  1.00  0.00     0.019 C 
BRANCH  37  38
HETATM   38  C2  UNL     1      23.525  49.448  50.799  1.00  0.00    -0.003 C 
HETATM   39  C1  UNL     1      23.803  50.907  51.075  1.00  0.00     0.005 C 
ENDBRANCH  37  38
ENDBRANCH  36  37
ENDBRANCH  32  36
ENDBRANCH   1  30
TORSDOF 14
ENDMDL
MODEL 3
REMARK VINA RESULT: -8.540670629      3.229      8.226
REMARK  14 active torsions:
REMARK  status: ('A' for Active; 'I' for Inactive)
REMARK    1  A    between atoms: C2_2  and  C3_3 
REMARK    2  A    between atoms: C3_3  and  C4_4 
REMARK    3  A    between atoms: C4_4  and  N1_5 
REMARK       I    between atoms: N1_5  and  C5_7 
REMARK       I    between atoms: C5_7  and  N2_9 
REMARK    4  A    between atoms: N2_9  and  C6_11 
REMARK    5  A    between atoms: C8_13  and  N3_14 
REMARK    6  A    between atoms: N3_14  and  C9_16 
REMARK    7  A    between atoms: C9_16  and  C10_17 
REMARK    8  A    between atoms: C10_17  and  N4_18 
REMARK    9  A    between atoms: C15_25  and  N6_26 
REMARK       I    between atoms: N6_26  and  C16_28 
REMARK   10  A    between atoms: N8_30  and  C17_32 
REMARK   11  A    between atoms: C17_32  and  C18_33 
REMARK   12  A    between atoms: C18_33  and  C19_34 
REMARK   13  A    between atoms: C19_34  and  C20_35 
REMARK   14  A    between atoms: C20_35  and  C21_36 
ROOT
HETATM    1  C6  UNL     1      19.852  44.088  45.116  1.00  0.00     0.128 A 
HETATM    2  C7  UNL     1      18.801  43.546  44.387  1.00  0.00     0.098 A 
HETATM    3  C8  UNL     1      18.152  44.365  43.489  1.00  0.00     0.120 A 
HETATM    4  N5  UNL     1      18.542  45.642  43.343  1.00  0.00    -0.177 N 
ATOM      5  H5  UNL     1      18.047  46.229  42.672  1.00  0.00     0.186 HD
HETATM    6  C15 UNL     1      19.574  46.189  44.053  1.00  0.00     0.687 A 
HETATM    7  N9  UNL     1      20.194  45.374  44.922  1.00  0.00    -0.176 N 
ATOM      8  H9  UNL     1      20.969  45.753  45.467  1.00  0.00     0.186 HD
ENDROOT
BRANCH   6   9
HETATM    9  N6  UNL     1      19.904  47.428  43.862  1.00  0.00    -0.163 N 
HETATM   10  C16 UNL     1      21.237  47.871  43.922  1.00  0.00     0.202 C 
HETATM   11  N7  UNL     1      22.120  47.465  42.881  1.00  0.00    -0.063 NA
HETATM   12  N8  UNL     1      21.580  48.615  44.909  1.00  0.00    -0.364 N 
ATOM     13  H8  UNL     1      20.909  48.880  45.630  1.00  0.00     0.162 HD
ATOM     14  H6  UNL     1      19.170  48.106  43.659  1.00  0.00     0.187 HD
BRANCH  12  15
HETATM   15  C17 UNL     1      22.969  49.069  44.962  1.00  0.00     0.122 C 
BRANCH  15  16
HETATM   16  C18 UNL     1      23.225  49.726  46.288  1.00  0.00     0.020 C 
BRANCH  16  17
HETATM   17  C19 UNL     1      23.767  48.707  47.252  1.00  0.00     0.002 C 
BRANCH  17  18
HETATM   18  C20 UNL     1      23.241  49.000  48.631  1.00  0.00     0.011 C 
BRANCH  18  19
HETATM   19  C21 UNL     1      23.429  50.490  48.874  1.00  0.00     0.085 C 
HETATM   20 BR1  UNL     1      23.835  50.752  50.746  1.00  0.00    -0.097 Br
ENDBRANCH  18  19
ENDBRANCH  17  18
ENDBRANCH  16  17
ENDBRANCH  15  16
ENDBRANCH  12  15
ENDBRANCH   6   9
BRANCH   3  21
HETATM   21  N3  UNL     1      17.073  43.831  42.737  1.00  0.00    -0.374 N 
ATOM     22  H3  UNL     1      16.339  43.291  43.196  1.00  0.00     0.161 HD
BRANCH  21  23
HETATM   23  C9  UNL     1      17.030  44.065  41.307  1.00  0.00     0.151 C 
BRANCH  23  24
HETATM   24  C10 UNL     1      15.598  44.321  40.883  1.00  0.00     0.292 C 
BRANCH  24  25
HETATM   25  N4  UNL     1      15.252  45.696  41.235  1.00  0.00     0.090 N 
HETATM   26  C11 UNL     1      13.865  45.886  40.887  1.00  0.00     0.272 C 
HETATM   27  C12 UNL     1      13.797  47.225  40.161  1.00  0.00     0.032 C 
HETATM   28  C13 UNL     1      15.117  47.205  39.403  1.00  0.00     0.032 C 
HETATM   29  C14 UNL     1      16.038  46.589  40.441  1.00  0.00     0.272 C 
ENDBRANCH  24  25
ENDBRANCH  23  24
ENDBRANCH  21  23
ENDBRANCH   3  21
BRANCH   1  30
HETATM   30  N2  UNL     1      20.452  43.305  45.945  1.00  0.00    -0.294 N 
HETATM   31  C5  UNL     1      21.777  42.869  45.564  1.00  0.00     0.321 C 
HETATM   32  N1  UNL     1      22.866  43.747  45.745  1.00  0.00    -0.343 N 
HETATM   33  O1  UNL     1      21.871  41.724  45.091  1.00  0.00    -0.247 OA
ATOM     34  H1  UNL     1      22.691  44.672  46.139  1.00  0.00     0.164 HD
ATOM     35  H2  UNL     1      20.018  43.011  46.820  1.00  0.00     0.172 HD
BRANCH  32  36
HETATM   36  C4  UNL     1      24.213  43.389  45.398  1.00  0.00     0.124 C 
BRANCH  36  37
HETATM   37  C3  UNL     1      24.651  44.034  44.126  1.00  0.00     0.019 C 
BRANCH  37  38
HETATM   38  C2  UNL     1      24.403  45.532  44.251  1.00  0.00    -0.003 C 
HETATM   39  C1  UNL     1      25.694  46.316  44.224  1.00  0.00     0.005 C 
ENDBRANCH  37  38
ENDBRANCH  36  37
ENDBRANCH  32  36
ENDBRANCH   1  30
TORSDOF 14
ENDMDL
MODEL 4
REMARK VINA RESULT: -8.371477807      2.308      4.610
REMARK  14 active torsions:
REMARK  status: ('A' for Active; 'I' for Inactive)
REMARK    1  A    between atoms: C2_2  and  C3_3 
REMARK    2  A    between atoms: C3_3  and  C4_4 
REMARK    3  A    between atoms: C4_4  and  N1_5 
REMARK       I    between atoms: N1_5  and  C5_7 
REMARK       I    between atoms: C5_7  and  N2_9 
REMARK    4  A    between atoms: N2_9  and  C6_11 
REMARK    5  A    between atoms: C8_13  and  N3_14 
REMARK    6  A    between atoms: N3_14  and  C9_16 
REMARK    7  A    between atoms: C9_16  and  C10_17 
REMARK    8  A    between atoms: C10_17  and  N4_18 
REMARK    9  A    between atoms: C15_25  and  N6_26 
REMARK       I    between atoms: N6_26  and  C16_28 
REMARK   10  A    between atoms: N8_30  and  C17_32 
REMARK   11  A    between atoms: C17_32  and  C18_33 
REMARK   12  A    between atoms: C18_33  and  C19_34 
REMARK   13  A    between atoms: C19_34  and  C20_35 
REMARK   14  A    between atoms: C20_35  and  C21_36 
ROOT
HETATM    1  C6  UNL     1      19.739  43.954  45.048  1.00  0.00     0.128 A 
HETATM    2  C7  UNL     1      19.953  45.316  44.882  1.00  0.00     0.098 A 
HETATM    3  C8  UNL     1      19.166  45.984  43.970  1.00  0.00     0.120 A 
HETATM    4  N5  UNL     1      18.229  45.315  43.276  1.00  0.00    -0.177 N 
ATOM      5  H5  UNL     1      17.659  45.831  42.607  1.00  0.00     0.186 HD
HETATM    6  C15 UNL     1      18.007  43.976  43.428  1.00  0.00     0.687 A 
HETATM    7  N9  UNL     1      18.784  43.343  44.323  1.00  0.00    -0.176 N 
ATOM      8  H9  UNL     1      18.643  42.342  44.460  1.00  0.00     0.186 HD
ENDROOT
BRANCH   6   9
HETATM    9  N6  UNL     1      17.084  43.391  42.731  1.00  0.00    -0.163 N 
HETATM   10  C16 UNL     1      16.493  43.993  41.606  1.00  0.00     0.202 C 
HETATM   11  N7  UNL     1      17.293  44.145  40.437  1.00  0.00    -0.063 NA
HETATM   12  N8  UNL     1      15.270  44.368  41.696  1.00  0.00    -0.364 N 
ATOM     13  H8  UNL     1      14.738  44.236  42.556  1.00  0.00     0.162 HD
ATOM     14  H6  UNL     1      16.775  42.459  43.009  1.00  0.00     0.187 HD
BRANCH  12  15
HETATM   15  C17 UNL     1      14.667  44.992  40.520  1.00  0.00     0.122 C 
BRANCH  15  16
HETATM   16  C18 UNL     1      13.734  46.084  40.962  1.00  0.00     0.020 C 
BRANCH  16  17
HETATM   17  C19 UNL     1      14.133  47.376  40.306  1.00  0.00     0.002 C 
BRANCH  17  18
HETATM   18  C20 UNL     1      15.301  47.129  39.390  1.00  0.00     0.011 C 
BRANCH  18  19
HETATM   19  C21 UNL     1      16.526  47.738  40.054  1.00  0.00     0.085 C 
HETATM   20 BR1  UNL     1      16.741  49.542  39.392  1.00  0.00    -0.097 Br
ENDBRANCH  18  19
ENDBRANCH  17  18
ENDBRANCH  16  17
ENDBRANCH  15  16
ENDBRANCH  12  15
ENDBRANCH   6   9
BRANCH   3  21
HETATM   21  N3  UNL     1      19.372  47.376  43.783  1.00  0.00    -0.374 N 
ATOM     22  H3  UNL     1      18.813  47.895  43.106  1.00  0.00     0.161 HD
BRANCH  21  23
HETATM   23  C9  UNL     1      20.388  48.048  44.569  1.00  0.00     0.151 C 
BRANCH  23  24
HETATM   24  C10 UNL     1      20.582  49.455  44.041  1.00  0.00     0.292 C 
BRANCH  24  25
HETATM   25  N4  UNL     1      22.007  49.662  43.795  1.00  0.00     0.090 N 
HETATM   26  C11 UNL     1      22.692  48.477  44.251  1.00  0.00     0.272 C 
HETATM   27  C12 UNL     1      23.888  48.970  45.057  1.00  0.00     0.032 C 
HETATM   28  C13 UNL     1      23.295  50.208  45.718  1.00  0.00     0.032 C 
HETATM   29  C14 UNL     1      22.457  50.768  44.583  1.00  0.00     0.272 C 
ENDBRANCH  24  25
ENDBRANCH  23  24
ENDBRANCH  21  23
ENDBRANCH   3  21
BRANCH   1  30
HETATM   30  N2  UNL     1      20.479  43.347  45.911  1.00  0.00    -0.294 N 
HETATM   31  C5  UNL     1      21.801  42.970  45.464  1.00  0.00     0.321 C 
HETATM   32  N1  UNL     1      22.814  43.950  45.420  1.00  0.00    -0.343 N 
HETATM   33  O1  UNL     1      21.961  41.781  45.139  1.00  0.00    -0.247 OA
ATOM     34  H1  UNL     1      22.587  44.904  45.703  1.00  0.00     0.164 HD
ATOM     35  H2  UNL     1      20.150  43.143  46.855  1.00  0.00     0.172 HD
BRANCH  32  36
HETATM   36  C4  UNL     1      24.154  43.658  44.994  1.00  0.00     0.124 C 
BRANCH  36  37
HETATM   37  C3  UNL     1      24.605  44.574  43.906  1.00  0.00     0.019 C 
BRANCH  37  38
HETATM   38  C2  UNL     1      23.394  44.910  43.045  1.00  0.00    -0.003 C 
HETATM   39  C1  UNL     1      23.765  45.797  41.880  1.00  0.00     0.005 C 
ENDBRANCH  37  38
ENDBRANCH  36  37
ENDBRANCH  32  36
ENDBRANCH   1  30
TORSDOF 14
ENDMDL
MODEL 5
REMARK VINA RESULT: -8.365386188      1.077      1.647
REMARK  14 active torsions:
REMARK  status: ('A' for Active; 'I' for Inactive)
REMARK    1  A    between atoms: C2_2  and  C3_3 
REMARK    2  A    between atoms: C3_3  and  C4_4 
REMARK    3  A    between atoms: C4_4  and  N1_5 
REMARK       I    between atoms: N1_5  and  C5_7 
REMARK       I    between atoms: C5_7  and  N2_9 
REMARK    4  A    between atoms: N2_9  and  C6_11 
REMARK    5  A    between atoms: C8_13  and  N3_14 
REMARK    6  A    between atoms: N3_14  and  C9_16 
REMARK    7  A    between atoms: C9_16  and  C10_17 
REMARK    8  A    between atoms: C10_17  and  N4_18 
REMARK    9  A    between atoms: C15_25  and  N6_26 
REMARK       I    between atoms: N6_26  and  C16_28 
REMARK   10  A    between atoms: N8_30  and  C17_32 
REMARK   11  A    between atoms: C17_32  and  C18_33 
REMARK   12  A    between atoms: C18_33  and  C19_34 
REMARK   13  A    between atoms: C19_34  and  C20_35 
REMARK   14  A    between atoms: C20_35  and  C21_36 
ROOT
HETATM    1  C6  UNL     1      22.679  47.536  43.134  1.00  0.00     0.128 A 
HETATM    2  C7  UNL     1      22.722  48.883  43.470  1.00  0.00     0.098 A 
HETATM    3  C8  UNL     1      21.561  49.470  43.923  1.00  0.00     0.120 A 
HETATM    4  N5  UNL     1      20.437  48.740  44.026  1.00  0.00    -0.177 N 
ATOM      5  H5  UNL     1      19.590  49.196  44.364  1.00  0.00     0.186 HD
HETATM    6  C15 UNL     1      20.379  47.414  43.700  1.00  0.00     0.687 A 
HETATM    7  N9  UNL     1      21.522  46.861  43.261  1.00  0.00    -0.176 N 
ATOM      8  H9  UNL     1      21.513  45.873  43.009  1.00  0.00     0.186 HD
ENDROOT
BRANCH   6   9
HETATM    9  N6  UNL     1      19.265  46.766  43.826  1.00  0.00    -0.163 N 
HETATM   10  C16 UNL     1      18.923  45.684  42.995  1.00  0.00     0.202 C 
HETATM   11  N7  UNL     1      19.657  44.473  43.145  1.00  0.00    -0.063 NA
HETATM   12  N8  UNL     1      17.971  45.851  42.151  1.00  0.00    -0.364 N 
ATOM     13  H8  UNL     1      17.474  46.739  42.083  1.00  0.00     0.162 HD
ATOM     14  H6  UNL     1      18.612  47.050  44.556  1.00  0.00     0.187 HD
BRANCH  12  15
HETATM   15  C17 UNL     1      17.624  44.720  41.292  1.00  0.00     0.122 C 
BRANCH  15  16
HETATM   16  C18 UNL     1      17.450  45.204  39.881  1.00  0.00     0.020 C 
BRANCH  16  17
HETATM   17  C19 UNL     1      15.999  45.511  39.635  1.00  0.00     0.002 C 
BRANCH  17  18
HETATM   18  C20 UNL     1      15.150  44.647  40.529  1.00  0.00     0.011 C 
BRANCH  18  19
HETATM   19  C21 UNL     1      14.051  45.533  41.095  1.00  0.00     0.085 C 
HETATM   20 BR1  UNL     1      14.156  47.258  40.229  1.00  0.00    -0.097 Br
ENDBRANCH  18  19
ENDBRANCH  17  18
ENDBRANCH  16  17
ENDBRANCH  15  16
ENDBRANCH  12  15
ENDBRANCH   6   9
BRANCH   3  21
HETATM   21  N3  UNL     1      21.582  50.846  44.268  1.00  0.00    -0.374 N 
ATOM     22  H3  UNL     1      20.827  51.466  43.975  1.00  0.00     0.161 HD
BRANCH  21  23
HETATM   23  C9  UNL     1      22.696  51.359  45.043  1.00  0.00     0.151 C 
BRANCH  23  24
HETATM   24  C10 UNL     1      22.414  51.159  46.519  1.00  0.00     0.292 C 
BRANCH  24  25
HETATM   25  N4  UNL     1      23.614  50.613  47.147  1.00  0.00     0.090 N 
HETATM   26  C11 UNL     1      23.612  49.192  46.901  1.00  0.00     0.272 C 
HETATM   27  C12 UNL     1      23.956  48.537  48.233  1.00  0.00     0.032 C 
HETATM   28  C13 UNL     1      23.250  49.475  49.203  1.00  0.00     0.032 C 
HETATM   29  C14 UNL     1      23.533  50.821  48.560  1.00  0.00     0.272 C 
ENDBRANCH  24  25
ENDBRANCH  23  24
ENDBRANCH  21  23
ENDBRANCH   3  21
BRANCH   1  30
HETATM   30  N2  UNL     1      23.777  47.002  42.719  1.00  0.00    -0.294 N 
HETATM   31  C5  UNL     1      24.287  45.902  43.507  1.00  0.00     0.321 C 
HETATM   32  N1  UNL     1      23.713  44.624  43.351  1.00  0.00    -0.343 N 
HETATM   33  O1  UNL     1      25.219  46.163  44.287  1.00  0.00    -0.247 OA
ATOM     34  H1  UNL     1      22.947  44.507  42.687  1.00  0.00     0.164 HD
ATOM     35  H2  UNL     1      24.257  47.337  41.884  1.00  0.00     0.172 HD
BRANCH  32  36
HETATM   36  C4  UNL     1      24.165  43.479  44.090  1.00  0.00     0.124 C 
BRANCH  36  37
HETATM   37  C3  UNL     1      23.514  43.387  45.429  1.00  0.00     0.019 C 
BRANCH  37  38
HETATM   38  C2  UNL     1      22.228  42.586  45.270  1.00  0.00    -0.003 C 
HETATM   39  C1  UNL     1      21.044  43.305  45.873  1.00  0.00     0.005 C 
ENDBRANCH  37  38
ENDBRANCH  36  37
ENDBRANCH  32  36
ENDBRANCH   1  30
TORSDOF 14
ENDMDL
