MODEL 1
REMARK VINA RESULT: -6.960320839      0.000      0.000
REMARK  11 active torsions:
REMARK  status: ('A' for Active; 'I' for Inactive)
REMARK       I    between atoms: C2_2  and  N1_4 
REMARK    1  A    between atoms: N1_4  and  N2_6 
REMARK    2  A    between atoms: C3_7  and  S1_8 
REMARK    3  A    between atoms: S1_8  and  C4_9 
REMARK    4  A    between atoms: C4_9  and  C5_10 
REMARK    5  A    between atoms: C11_19  and  C12_20 
REMARK    6  A    between atoms: C13_23  and  C14_24 
REMARK       I    between atoms: C14_24  and  N6_26 
REMARK    7  A    between atoms: N6_26  and  N7_28 
REMARK       I    between atoms: N7_28  and  C15_30 
REMARK    8  A    between atoms: C15_30  and  C16_32 
REMARK    9  A    between atoms: C16_32  and  N8_33 
REMARK   10  A    between atoms: C16_32  and  C17_37 
REMARK   11  A    between atoms: C17_37  and  N9_38 
ROOT
HETATM    1  C12 UNL     1      -3.003 -22.302  98.065  1.00  0.00     0.201 A 
HETATM    2  N5  UNL     1      -2.431 -23.100  97.162  1.00  0.00    -0.313 N 
ATOM      3  H5  UNL     1      -1.623 -22.857  96.588  1.00  0.00     0.170 HD
HETATM    4  C13 UNL     1      -3.091 -24.287  97.125  1.00  0.00     0.198 A 
HETATM    5  N10 UNL     1      -4.066 -24.168  98.030  1.00  0.00    -0.238 N 
ATOM      6  H10 UNL     1      -4.755 -24.885  98.258  1.00  0.00     0.197 HD
HETATM    7  O4  UNL     1      -3.993 -22.986  98.572  1.00  0.00    -0.215 OA
ENDROOT
BRANCH   1   8
HETATM    8  C11 UNL     1      -2.656 -20.937  98.462  1.00  0.00     0.118 A 
HETATM    9  N4  UNL     1      -3.213 -19.867  97.885  1.00  0.00    -0.330 N 
HETATM   10  C3  UNL     1      -2.901 -18.619  98.244  1.00  0.00     0.170 A 
ATOM     11  H4  UNL     1      -3.899 -20.009  97.143  1.00  0.00     0.168 HD
HETATM   12  N2  UNL     1      -1.977 -18.354  99.241  1.00  0.00    -0.193 N 
HETATM   13  C19 UNL     1      -1.393 -19.391  99.850  1.00  0.00     0.295 A 
HETATM   14  C18 UNL     1      -1.742 -20.687  99.450  1.00  0.00     0.147 A 
HETATM   15  O5  UNL     1      -0.548 -19.268 100.760  1.00  0.00    -0.264 OA
HETATM   16  N11 UNL     1      -1.127 -21.803 100.089  1.00  0.00    -0.094 NA
BRANCH  10  17
HETATM   17  S1  UNL     1      -3.695 -17.212  97.436  1.00  0.00    -0.087 SA
BRANCH  17  18
HETATM   18  C4  UNL     1      -4.609 -17.807  95.985  1.00  0.00     0.121 C 
BRANCH  18  19
HETATM   19  C5  UNL     1      -3.756 -17.897  94.792  1.00  0.00    -0.047 A 
HETATM   20  C6  UNL     1      -3.407 -16.742  94.123  1.00  0.00     0.008 A 
HETATM   21  C7  UNL     1      -2.614 -16.746  93.010  1.00  0.00     0.002 A 
HETATM   22  C8  UNL     1      -2.132 -17.958  92.522  1.00  0.00     0.026 A 
HETATM   23  C9  UNL     1      -2.460 -19.131  93.166  1.00  0.00     0.046 A 
HETATM   24  N3  UNL     1      -1.983 -20.387  92.695  1.00  0.00    -0.102 NA
HETATM   25  C10 UNL     1      -3.264 -19.081  94.288  1.00  0.00     0.034 A 
ENDBRANCH  18  19
ENDBRANCH  17  18
ENDBRANCH  10  17
BRANCH  12  26
HETATM   26  N1  UNL     1      -1.740 -17.029  99.520  1.00  0.00    -0.259 N 
HETATM   27  C2  UNL     1      -2.160 -16.197 100.535  1.00  0.00     0.232 C 
HETATM   28  C1  UNL     1      -1.688 -14.732 100.538  1.00  0.00     0.119 C 
HETATM   29  O1  UNL     1      -2.888 -16.457 101.486  1.00  0.00    -0.272 OA
ATOM     30  H1  UNL     1      -1.132 -16.571  98.841  1.00  0.00     0.190 HD
ENDBRANCH  12  26
ENDBRANCH   1   8
BRANCH   4  31
HETATM   31  C14 UNL     1      -2.788 -25.435  96.286  1.00  0.00     0.305 C 
HETATM   32  O2  UNL     1      -2.554 -26.534  96.846  1.00  0.00    -0.263 OA
HETATM   33  N6  UNL     1      -2.753 -25.349  94.867  1.00  0.00    -0.261 N 
ATOM     34  H6  UNL     1      -2.950 -24.441  94.446  1.00  0.00     0.190 HD
BRANCH  33  35
HETATM   35  N7  UNL     1      -2.474 -26.397  94.016  1.00  0.00    -0.265 N 
HETATM   36  C15 UNL     1      -2.056 -26.251  92.674  1.00  0.00     0.268 C 
HETATM   37  O3  UNL     1      -1.934 -25.077  92.224  1.00  0.00    -0.269 OA
ATOM     38  H7  UNL     1      -2.576 -27.344  94.381  1.00  0.00     0.190 HD
BRANCH  36  39
HETATM   39  C16 UNL     1      -1.758 -27.368  91.775  1.00  0.00     0.301 C 
BRANCH  39  40
HETATM   40  N8  UNL     1      -2.944 -27.846  91.108  1.00  0.00    -0.065 N 
ATOM     41  H83 UNL     1      -3.534 -27.074  90.799  1.00  0.00     0.275 HD
ATOM     42  H82 UNL     1      -2.721 -28.251  90.198  1.00  0.00     0.275 HD
ATOM     43  H81 UNL     1      -3.465 -28.503  91.689  1.00  0.00     0.275 HD
ENDBRANCH  39  40
BRANCH  39  44
HETATM   44  C17 UNL     1      -1.131 -28.545  92.502  1.00  0.00     0.272 C 
BRANCH  44  45
HETATM   45  N9  UNL     1       0.253 -28.199  92.763  1.00  0.00    -0.077 N 
ATOM     46  H93 UNL     1       0.822 -29.003  93.026  1.00  0.00     0.274 HD
ATOM     47  H92 UNL     1       0.767 -27.944  91.920  1.00  0.00     0.274 HD
ATOM     48  H91 UNL     1       0.251 -27.462  93.468  1.00  0.00     0.274 HD
ENDBRANCH  44  45
ENDBRANCH  39  44
ENDBRANCH  36  39
ENDBRANCH  33  35
ENDBRANCH   4  31
TORSDOF 11
ENDMDL
MODEL 2
REMARK VINA RESULT: -6.935493975      1.721      2.066
REMARK  11 active torsions:
REMARK  status: ('A' for Active; 'I' for Inactive)
REMARK       I    between atoms: C2_2  and  N1_4 
REMARK    1  A    between atoms: N1_4  and  N2_6 
REMARK    2  A    between atoms: C3_7  and  S1_8 
REMARK    3  A    between atoms: S1_8  and  C4_9 
REMARK    4  A    between atoms: C4_9  and  C5_10 
REMARK    5  A    between atoms: C11_19  and  C12_20 
REMARK    6  A    between atoms: C13_23  and  C14_24 
REMARK       I    between atoms: C14_24  and  N6_26 
REMARK    7  A    between atoms: N6_26  and  N7_28 
REMARK       I    between atoms: N7_28  and  C15_30 
REMARK    8  A    between atoms: C15_30  and  C16_32 
REMARK    9  A    between atoms: C16_32  and  N8_33 
REMARK   10  A    between atoms: C16_32  and  C17_37 
REMARK   11  A    between atoms: C17_37  and  N9_38 
ROOT
HETATM    1  C12 UNL     1      -2.740 -22.361  98.428  1.00  0.00     0.201 A 
HETATM    2  N5  UNL     1      -2.126 -23.349  97.776  1.00  0.00    -0.313 N 
ATOM      3  H5  UNL     1      -1.120 -23.513  97.766  1.00  0.00     0.170 HD
HETATM    4  C13 UNL     1      -3.050 -24.104  97.126  1.00  0.00     0.198 A 
HETATM    5  N10 UNL     1      -4.225 -23.536  97.413  1.00  0.00    -0.238 N 
ATOM      6  H10 UNL     1      -5.136 -23.854  97.082  1.00  0.00     0.197 HD
HETATM    7  O4  UNL     1      -4.015 -22.507  98.184  1.00  0.00    -0.215 OA
ENDROOT
BRANCH   1   8
HETATM    8  C11 UNL     1      -2.178 -21.298  99.262  1.00  0.00     0.118 A 
HETATM    9  N4  UNL     1      -2.293 -20.006  98.937  1.00  0.00    -0.330 N 
HETATM   10  C3  UNL     1      -1.782 -19.031  99.695  1.00  0.00     0.170 A 
ATOM     11  H4  UNL     1      -2.787 -19.756  98.081  1.00  0.00     0.168 HD
HETATM   12  N2  UNL     1      -1.099 -19.300 100.869  1.00  0.00    -0.193 N 
HETATM   13  C19 UNL     1      -0.957 -20.576 101.238  1.00  0.00     0.295 A 
HETATM   14  C18 UNL     1      -1.504 -21.575 100.421  1.00  0.00     0.147 A 
HETATM   15  O5  UNL     1      -0.361 -20.932 102.275  1.00  0.00    -0.264 OA
HETATM   16  N11 UNL     1      -1.361 -22.941 100.801  1.00  0.00    -0.094 NA
BRANCH  10  17
HETATM   17  S1  UNL     1      -1.980 -17.302  99.211  1.00  0.00    -0.087 SA
BRANCH  17  18
HETATM   18  C4  UNL     1      -3.641 -17.072  98.516  1.00  0.00     0.121 C 
BRANCH  18  19
HETATM   19  C5  UNL     1      -3.632 -17.077  97.047  1.00  0.00    -0.047 A 
HETATM   20  C6  UNL     1      -4.444 -17.963  96.370  1.00  0.00     0.008 A 
HETATM   21  C7  UNL     1      -4.494 -18.023  95.006  1.00  0.00     0.002 A 
HETATM   22  C8  UNL     1      -3.697 -17.159  94.257  1.00  0.00     0.026 A 
HETATM   23  C9  UNL     1      -2.874 -16.261  94.901  1.00  0.00     0.046 A 
HETATM   24  N3  UNL     1      -2.048 -15.363  94.166  1.00  0.00    -0.102 NA
HETATM   25  C10 UNL     1      -2.856 -16.234  96.281  1.00  0.00     0.034 A 
ENDBRANCH  18  19
ENDBRANCH  17  18
ENDBRANCH  10  17
BRANCH  12  26
HETATM   26  N1  UNL     1      -0.620 -18.213 101.561  1.00  0.00    -0.259 N 
HETATM   27  C2  UNL     1      -1.094 -17.513 102.649  1.00  0.00     0.232 C 
HETATM   28  C1  UNL     1      -0.280 -16.318 103.176  1.00  0.00     0.119 C 
HETATM   29  O1  UNL     1      -2.117 -17.706 103.296  1.00  0.00    -0.272 OA
ATOM     30  H1  UNL     1       0.262 -17.852 101.196  1.00  0.00     0.190 HD
ENDBRANCH  12  26
ENDBRANCH   1   8
BRANCH   4  31
HETATM   31  C14 UNL     1      -2.806 -25.280  96.306  1.00  0.00     0.305 C 
HETATM   32  O2  UNL     1      -2.670 -26.387  96.882  1.00  0.00    -0.263 OA
HETATM   33  N6  UNL     1      -2.720 -25.210  94.889  1.00  0.00    -0.261 N 
ATOM     34  H6  UNL     1      -2.838 -24.295  94.455  1.00  0.00     0.190 HD
BRANCH  33  35
HETATM   35  N7  UNL     1      -2.492 -26.284  94.055  1.00  0.00    -0.265 N 
HETATM   36  C15 UNL     1      -1.563 -26.288  92.990  1.00  0.00     0.268 C 
HETATM   37  O3  UNL     1      -0.899 -25.233  92.787  1.00  0.00    -0.269 OA
ATOM     38  H7  UNL     1      -3.031 -27.134  94.218  1.00  0.00     0.190 HD
BRANCH  36  39
HETATM   39  C16 UNL     1      -1.322 -27.434  92.108  1.00  0.00     0.301 C 
BRANCH  39  40
HETATM   40  N8  UNL     1      -2.554 -28.077  91.722  1.00  0.00    -0.065 N 
ATOM     41  H83 UNL     1      -3.250 -27.396  91.417  1.00  0.00     0.275 HD
ATOM     42  H82 UNL     1      -2.445 -28.595  90.850  1.00  0.00     0.275 HD
ATOM     43  H81 UNL     1      -2.917 -28.673  92.466  1.00  0.00     0.275 HD
ENDBRANCH  39  40
BRANCH  39  44
HETATM   44  C17 UNL     1      -0.434 -28.484  92.753  1.00  0.00     0.272 C 
BRANCH  44  45
HETATM   45  N9  UNL     1       0.848 -27.860  93.012  1.00  0.00    -0.077 N 
ATOM     46  H93 UNL     1       1.563 -28.119  92.331  1.00  0.00     0.274 HD
ATOM     47  H92 UNL     1       0.849 -26.857  92.828  1.00  0.00     0.274 HD
ATOM     48  H91 UNL     1       1.108 -28.091  93.971  1.00  0.00     0.274 HD
ENDBRANCH  44  45
ENDBRANCH  39  44
ENDBRANCH  36  39
ENDBRANCH  33  35
ENDBRANCH   4  31
TORSDOF 11
ENDMDL
MODEL 3
REMARK VINA RESULT: -6.898758458      6.426     11.395
REMARK  11 active torsions:
REMARK  status: ('A' for Active; 'I' for Inactive)
REMARK       I    between atoms: C2_2  and  N1_4 
REMARK    1  A    between atoms: N1_4  and  N2_6 
REMARK    2  A    between atoms: C3_7  and  S1_8 
REMARK    3  A    between atoms: S1_8  and  C4_9 
REMARK    4  A    between atoms: C4_9  and  C5_10 
REMARK    5  A    between atoms: C11_19  and  C12_20 
REMARK    6  A    between atoms: C13_23  and  C14_24 
REMARK       I    between atoms: C14_24  and  N6_26 
REMARK    7  A    between atoms: N6_26  and  N7_28 
REMARK       I    between atoms: N7_28  and  C15_30 
REMARK    8  A    between atoms: C15_30  and  C16_32 
REMARK    9  A    between atoms: C16_32  and  N8_33 
REMARK   10  A    between atoms: C16_32  and  C17_37 
REMARK   11  A    between atoms: C17_37  and  N9_38 
ROOT
HETATM    1  C12 UNL     1       0.846 -26.865  94.818  1.00  0.00     0.201 A 
HETATM    2  N5  UNL     1      -0.189 -26.039  94.978  1.00  0.00    -0.313 N 
ATOM      3  H5  UNL     1      -0.434 -25.273  94.351  1.00  0.00     0.170 HD
HETATM    4  C13 UNL     1      -0.866 -26.377  96.106  1.00  0.00     0.198 A 
HETATM    5  N10 UNL     1      -0.204 -27.423  96.607  1.00  0.00    -0.238 N 
ATOM      6  H10 UNL     1      -0.447 -27.928  97.460  1.00  0.00     0.197 HD
HETATM    7  O4  UNL     1       0.804 -27.693  95.827  1.00  0.00    -0.215 OA
ENDROOT
BRANCH   1   8
HETATM    8  C11 UNL     1       1.860 -26.903  93.763  1.00  0.00     0.118 A 
HETATM    9  N4  UNL     1       3.163 -26.764  94.027  1.00  0.00    -0.330 N 
HETATM   10  C3  UNL     1       4.093 -26.799  93.068  1.00  0.00     0.170 A 
ATOM     11  H4  UNL     1       3.458 -26.626  94.994  1.00  0.00     0.168 HD
HETATM   12  N2  UNL     1       3.764 -26.981  91.736  1.00  0.00    -0.193 N 
HETATM   13  C19 UNL     1       2.473 -27.126  91.420  1.00  0.00     0.295 A 
HETATM   14  C18 UNL     1       1.523 -27.085  92.449  1.00  0.00     0.147 A 
HETATM   15  O5  UNL     1       2.064 -27.296  90.254  1.00  0.00    -0.264 OA
HETATM   16  N11 UNL     1       0.142 -27.237  92.128  1.00  0.00    -0.094 NA
BRANCH  10  17
HETATM   17  S1  UNL     1       5.841 -26.617  93.487  1.00  0.00    -0.087 SA
BRANCH  17  18
HETATM   18  C4  UNL     1       5.988 -26.276  95.263  1.00  0.00     0.121 C 
BRANCH  18  19
HETATM   19  C5  UNL     1       7.372 -26.402  95.738  1.00  0.00    -0.047 A 
HETATM   20  C6  UNL     1       8.387 -26.581  94.821  1.00  0.00     0.008 A 
HETATM   21  C7  UNL     1       9.698 -26.701  95.186  1.00  0.00     0.002 A 
HETATM   22  C8  UNL     1      10.037 -26.642  96.536  1.00  0.00     0.026 A 
HETATM   23  C9  UNL     1       9.049 -26.464  97.480  1.00  0.00     0.046 A 
HETATM   24  N3  UNL     1       9.360 -26.398  98.867  1.00  0.00    -0.102 NA
HETATM   25  C10 UNL     1       7.737 -26.347  97.066  1.00  0.00     0.034 A 
ENDBRANCH  18  19
ENDBRANCH  17  18
ENDBRANCH  10  17
BRANCH  12  26
HETATM   26  N1  UNL     1       4.809 -26.997  90.843  1.00  0.00    -0.259 N 
HETATM   27  C2  UNL     1       5.201 -26.130  89.847  1.00  0.00     0.232 C 
HETATM   28  C1  UNL     1       6.454 -26.467  89.018  1.00  0.00     0.119 C 
HETATM   29  O1  UNL     1       4.679 -25.075  89.501  1.00  0.00    -0.272 OA
ATOM     30  H1  UNL     1       5.413 -27.813  90.936  1.00  0.00     0.190 HD
ENDBRANCH  12  26
ENDBRANCH   1   8
BRANCH   4  31
HETATM   31  C14 UNL     1      -2.058 -25.738  96.641  1.00  0.00     0.305 C 
HETATM   32  O2  UNL     1      -2.805 -26.411  97.393  1.00  0.00    -0.263 OA
HETATM   33  N6  UNL     1      -2.394 -24.390  96.341  1.00  0.00    -0.261 N 
ATOM     34  H6  UNL     1      -1.764 -23.873  95.728  1.00  0.00     0.190 HD
BRANCH  33  35
HETATM   35  N7  UNL     1      -3.506 -23.726  96.814  1.00  0.00    -0.265 N 
HETATM   36  C15 UNL     1      -3.507 -22.853  97.925  1.00  0.00     0.268 C 
HETATM   37  O3  UNL     1      -2.411 -22.671  98.527  1.00  0.00    -0.269 OA
ATOM     38  H7  UNL     1      -4.390 -23.877  96.328  1.00  0.00     0.190 HD
BRANCH  36  39
HETATM   39  C16 UNL     1      -4.691 -22.148  98.421  1.00  0.00     0.301 C 
BRANCH  39  40
HETATM   40  N8  UNL     1      -4.419 -20.753  98.665  1.00  0.00    -0.065 N 
ATOM     41  H83 UNL     1      -4.228 -20.254  97.796  1.00  0.00     0.275 HD
ATOM     42  H82 UNL     1      -5.261 -20.255  98.954  1.00  0.00     0.275 HD
ATOM     43  H81 UNL     1      -3.663 -20.629  99.339  1.00  0.00     0.275 HD
ENDBRANCH  39  40
BRANCH  39  44
HETATM   44  C17 UNL     1      -5.223 -22.747  99.711  1.00  0.00     0.272 C 
BRANCH  44  45
HETATM   45  N9  UNL     1      -4.225 -22.513 100.736  1.00  0.00    -0.077 N 
ATOM     46  H93 UNL     1      -3.303 -22.304 100.355  1.00  0.00     0.274 HD
ATOM     47  H92 UNL     1      -4.363 -21.635 101.236  1.00  0.00     0.274 HD
ATOM     48  H91 UNL     1      -4.228 -23.327 101.352  1.00  0.00     0.274 HD
ENDBRANCH  44  45
ENDBRANCH  39  44
ENDBRANCH  36  39
ENDBRANCH  33  35
ENDBRANCH   4  31
TORSDOF 11
ENDMDL
MODEL 4
REMARK VINA RESULT: -6.755866262      7.117     11.611
REMARK  11 active torsions:
REMARK  status: ('A' for Active; 'I' for Inactive)
REMARK       I    between atoms: C2_2  and  N1_4 
REMARK    1  A    between atoms: N1_4  and  N2_6 
REMARK    2  A    between atoms: C3_7  and  S1_8 
REMARK    3  A    between atoms: S1_8  and  C4_9 
REMARK    4  A    between atoms: C4_9  and  C5_10 
REMARK    5  A    between atoms: C11_19  and  C12_20 
REMARK    6  A    between atoms: C13_23  and  C14_24 
REMARK       I    between atoms: C14_24  and  N6_26 
REMARK    7  A    between atoms: N6_26  and  N7_28 
REMARK       I    between atoms: N7_28  and  C15_30 
REMARK    8  A    between atoms: C15_30  and  C16_32 
REMARK    9  A    between atoms: C16_32  and  N8_33 
REMARK   10  A    between atoms: C16_32  and  C17_37 
REMARK   11  A    between atoms: C17_37  and  N9_38 
ROOT
HETATM    1  C12 UNL     1       1.650 -26.768  94.390  1.00  0.00     0.201 A 
HETATM    2  N5  UNL     1       0.552 -26.010  94.399  1.00  0.00    -0.313 N 
ATOM      3  H5  UNL     1       0.394 -25.195  93.806  1.00  0.00     0.170 HD
HETATM    4  C13 UNL     1      -0.323 -26.491  95.321  1.00  0.00     0.198 A 
HETATM    5  N10 UNL     1       0.287 -27.553  95.854  1.00  0.00    -0.238 N 
ATOM      6  H10 UNL     1      -0.095 -28.153  96.585  1.00  0.00     0.197 HD
HETATM    7  O4  UNL     1       1.451 -27.696  95.288  1.00  0.00    -0.215 OA
ENDROOT
BRANCH   1   8
HETATM    8  C11 UNL     1       2.861 -26.652  93.579  1.00  0.00     0.118 A 
HETATM    9  N4  UNL     1       4.024 -26.238  94.095  1.00  0.00    -0.330 N 
HETATM   10  C3  UNL     1       5.134 -26.132  93.359  1.00  0.00     0.170 A 
ATOM     11  H4  UNL     1       4.064 -25.995  95.085  1.00  0.00     0.168 HD
HETATM   12  N2  UNL     1       5.150 -26.444  92.011  1.00  0.00    -0.193 N 
HETATM   13  C19 UNL     1       4.012 -26.862  91.447  1.00  0.00     0.295 A 
HETATM   14  C18 UNL     1       2.866 -26.963  92.246  1.00  0.00     0.147 A 
HETATM   15  O5  UNL     1       3.913 -27.170  90.242  1.00  0.00    -0.264 OA
HETATM   16  N11 UNL     1       1.645 -27.408  91.660  1.00  0.00    -0.094 NA
BRANCH  10  17
HETATM   17  S1  UNL     1       6.678 -25.578  94.115  1.00  0.00    -0.087 SA
BRANCH  17  18
HETATM   18  C4  UNL     1       6.753 -26.195  95.820  1.00  0.00     0.121 C 
BRANCH  18  19
HETATM   19  C5  UNL     1       8.135 -26.403  96.274  1.00  0.00    -0.047 A 
HETATM   20  C6  UNL     1       9.111 -26.706  95.347  1.00  0.00     0.008 A 
HETATM   21  C7  UNL     1      10.418 -26.908  95.692  1.00  0.00     0.002 A 
HETATM   22  C8  UNL     1      10.792 -26.805  97.030  1.00  0.00     0.026 A 
HETATM   23  C9  UNL     1       9.844 -26.502  97.982  1.00  0.00     0.046 A 
HETATM   24  N3  UNL     1      10.192 -26.389  99.358  1.00  0.00    -0.102 NA
HETATM   25  C10 UNL     1       8.534 -26.307  97.589  1.00  0.00     0.034 A 
ENDBRANCH  18  19
ENDBRANCH  17  18
ENDBRANCH  10  17
BRANCH  12  26
HETATM   26  N1  UNL     1       6.352 -26.292  91.361  1.00  0.00    -0.259 N 
HETATM   27  C2  UNL     1       6.791 -25.406  90.401  1.00  0.00     0.232 C 
HETATM   28  C1  UNL     1       8.236 -25.526  89.884  1.00  0.00     0.119 C 
HETATM   29  O1  UNL     1       6.176 -24.490  89.867  1.00  0.00    -0.272 OA
ATOM     30  H1  UNL     1       7.059 -26.970  91.646  1.00  0.00     0.190 HD
ENDBRANCH  12  26
ENDBRANCH   1   8
BRANCH   4  31
HETATM   31  C14 UNL     1      -1.639 -25.964  95.643  1.00  0.00     0.305 C 
HETATM   32  O2  UNL     1      -2.642 -26.675  95.386  1.00  0.00    -0.263 OA
HETATM   33  N6  UNL     1      -1.818 -24.684  96.235  1.00  0.00    -0.261 N 
ATOM     34  H6  UNL     1      -0.982 -24.136  96.432  1.00  0.00     0.190 HD
BRANCH  33  35
HETATM   35  N7  UNL     1      -3.035 -24.127  96.565  1.00  0.00    -0.265 N 
HETATM   36  C15 UNL     1      -3.622 -24.185  97.850  1.00  0.00     0.268 C 
HETATM   37  O3  UNL     1      -2.986 -24.792  98.757  1.00  0.00    -0.269 OA
ATOM     38  H7  UNL     1      -3.548 -23.640  95.831  1.00  0.00     0.190 HD
BRANCH  36  39
HETATM   39  C16 UNL     1      -4.915 -23.588  98.195  1.00  0.00     0.301 C 
BRANCH  39  40
HETATM   40  N8  UNL     1      -5.864 -23.712  97.117  1.00  0.00    -0.065 N 
ATOM     41  H83 UNL     1      -5.403 -23.965  96.242  1.00  0.00     0.275 HD
ATOM     42  H82 UNL     1      -6.451 -24.539  97.231  1.00  0.00     0.275 HD
ATOM     43  H81 UNL     1      -6.427 -22.868  97.010  1.00  0.00     0.275 HD
ENDBRANCH  39  40
BRANCH  39  44
HETATM   44  C17 UNL     1      -4.799 -22.114  98.541  1.00  0.00     0.272 C 
BRANCH  44  45
HETATM   45  N9  UNL     1      -3.887 -22.007  99.662  1.00  0.00    -0.077 N 
ATOM     46  H93 UNL     1      -4.314 -22.266 100.551  1.00  0.00     0.274 HD
ATOM     47  H92 UNL     1      -3.158 -22.721  99.654  1.00  0.00     0.274 HD
ATOM     48  H91 UNL     1      -3.514 -21.057  99.659  1.00  0.00     0.274 HD
ENDBRANCH  44  45
ENDBRANCH  39  44
ENDBRANCH  36  39
ENDBRANCH  33  35
ENDBRANCH   4  31
TORSDOF 11
ENDMDL
MODEL 5
REMARK VINA RESULT: -6.751529753      1.340      1.772
REMARK  11 active torsions:
REMARK  status: ('A' for Active; 'I' for Inactive)
REMARK       I    between atoms: C2_2  and  N1_4 
REMARK    1  A    between atoms: N1_4  and  N2_6 
REMARK    2  A    between atoms: C3_7  and  S1_8 
REMARK    3  A    between atoms: S1_8  and  C4_9 
REMARK    4  A    between atoms: C4_9  and  C5_10 
REMARK    5  A    between atoms: C11_19  and  C12_20 
REMARK    6  A    between atoms: C13_23  and  C14_24 
REMARK       I    between atoms: C14_24  and  N6_26 
REMARK    7  A    between atoms: N6_26  and  N7_28 
REMARK       I    between atoms: N7_28  and  C15_30 
REMARK    8  A    between atoms: C15_30  and  C16_32 
REMARK    9  A    between atoms: C16_32  and  N8_33 
REMARK   10  A    between atoms: C16_32  and  C17_37 
REMARK   11  A    between atoms: C17_37  and  N9_38 
ROOT
HETATM    1  C12 UNL     1      -2.943 -22.404  98.025  1.00  0.00     0.201 A 
HETATM    2  N5  UNL     1      -2.364 -23.127  97.065  1.00  0.00    -0.313 N 
ATOM      3  H5  UNL     1      -1.573 -22.825  96.496  1.00  0.00     0.170 HD
HETATM    4  C13 UNL     1      -2.991 -24.328  96.964  1.00  0.00     0.198 A 
HETATM    5  N10 UNL     1      -3.953 -24.295  97.889  1.00  0.00    -0.238 N 
ATOM      6  H10 UNL     1      -4.618 -25.044  98.082  1.00  0.00     0.197 HD
HETATM    7  O4  UNL     1      -3.904 -23.147  98.503  1.00  0.00    -0.215 OA
ENDROOT
BRANCH   1   8
HETATM    8  C11 UNL     1      -2.627 -21.057  98.502  1.00  0.00     0.118 A 
HETATM    9  N4  UNL     1      -3.245 -19.972  98.024  1.00  0.00    -0.330 N 
HETATM   10  C3  UNL     1      -2.963 -18.740  98.457  1.00  0.00     0.170 A 
ATOM     11  H4  UNL     1      -3.958 -20.089  97.302  1.00  0.00     0.168 HD
HETATM   12  N2  UNL     1      -2.008 -18.509  99.431  1.00  0.00    -0.193 N 
HETATM   13  C19 UNL     1      -1.361 -19.562  99.943  1.00  0.00     0.295 A 
HETATM   14  C18 UNL     1      -1.682 -20.840  99.467  1.00  0.00     0.147 A 
HETATM   15  O5  UNL     1      -0.484 -19.469 100.824  1.00  0.00    -0.264 OA
HETATM   16  N11 UNL     1      -1.001 -21.973 100.003  1.00  0.00    -0.094 NA
BRANCH  10  17
HETATM   17  S1  UNL     1      -3.840 -17.313  97.780  1.00  0.00    -0.087 SA
BRANCH  17  18
HETATM   18  C4  UNL     1      -4.221 -17.630  96.035  1.00  0.00     0.121 C 
BRANCH  18  19
HETATM   19  C5  UNL     1      -3.430 -16.782  95.133  1.00  0.00    -0.047 A 
HETATM   20  C6  UNL     1      -3.595 -16.909  93.769  1.00  0.00     0.008 A 
HETATM   21  C7  UNL     1      -2.900 -16.152  92.868  1.00  0.00     0.002 A 
HETATM   22  C8  UNL     1      -1.985 -15.210  93.333  1.00  0.00     0.026 A 
HETATM   23  C9  UNL     1      -1.795 -15.056  94.689  1.00  0.00     0.046 A 
HETATM   24  N3  UNL     1      -0.869 -14.103  95.199  1.00  0.00    -0.102 NA
HETATM   25  C10 UNL     1      -2.519 -15.842  95.564  1.00  0.00     0.034 A 
ENDBRANCH  18  19
ENDBRANCH  17  18
ENDBRANCH  10  17
BRANCH  12  26
HETATM   26  N1  UNL     1      -1.805 -17.198  99.792  1.00  0.00    -0.259 N 
HETATM   27  C2  UNL     1      -2.188 -16.461 100.892  1.00  0.00     0.232 C 
HETATM   28  C1  UNL     1      -1.777 -14.980 100.972  1.00  0.00     0.119 C 
HETATM   29  O1  UNL     1      -2.839 -16.821 101.866  1.00  0.00    -0.272 OA
ATOM     30  H1  UNL     1      -1.265 -16.665  99.111  1.00  0.00     0.190 HD
ENDBRANCH  12  26
ENDBRANCH   1   8
BRANCH   4  31
HETATM   31  C14 UNL     1      -2.671 -25.412  96.049  1.00  0.00     0.305 C 
HETATM   32  O2  UNL     1      -2.465 -26.553  96.531  1.00  0.00    -0.263 OA
HETATM   33  N6  UNL     1      -2.588 -25.218  94.643  1.00  0.00    -0.261 N 
ATOM     34  H6  UNL     1      -2.763 -24.279  94.287  1.00  0.00     0.190 HD
BRANCH  33  35
HETATM   35  N7  UNL     1      -2.290 -26.201  93.724  1.00  0.00    -0.265 N 
HETATM   36  C15 UNL     1      -0.997 -26.455  93.211  1.00  0.00     0.268 C 
HETATM   37  O3  UNL     1      -0.051 -25.727  93.624  1.00  0.00    -0.269 OA
ATOM     38  H7  UNL     1      -3.055 -26.786  93.390  1.00  0.00     0.190 HD
BRANCH  36  39
HETATM   39  C16 UNL     1      -0.686 -27.503  92.236  1.00  0.00     0.301 C 
BRANCH  39  40
HETATM   40  N8  UNL     1      -1.167 -28.792  92.667  1.00  0.00    -0.065 N 
ATOM     41  H83 UNL     1      -2.128 -28.736  93.007  1.00  0.00     0.275 HD
ATOM     42  H82 UNL     1      -1.314 -29.418  91.875  1.00  0.00     0.275 HD
ATOM     43  H81 UNL     1      -0.551 -29.211  93.363  1.00  0.00     0.275 HD
ENDBRANCH  39  40
BRANCH  39  44
HETATM   44  C17 UNL     1       0.805 -27.629  91.978  1.00  0.00     0.272 C 
BRANCH  44  45
HETATM   45  N9  UNL     1       1.372 -28.368  93.089  1.00  0.00    -0.077 N 
ATOM     46  H93 UNL     1       2.057 -27.830  93.619  1.00  0.00     0.274 HD
ATOM     47  H92 UNL     1       0.708 -28.518  93.849  1.00  0.00     0.274 HD
ATOM     48  H91 UNL     1       1.750 -29.237  92.712  1.00  0.00     0.274 HD
ENDBRANCH  44  45
ENDBRANCH  39  44
ENDBRANCH  36  39
ENDBRANCH  33  35
ENDBRANCH   4  31
TORSDOF 11
ENDMDL
