MODEL 1
REMARK VINA RESULT: -8.570875597      0.000      0.000
REMARK  5 active torsions:
REMARK  status: ('A' for Active; 'I' for Inactive)
REMARK    1  A    between atoms: C3_3  and  O1_4 
REMARK    2  A    between atoms: C5_9  and  C6_10 
REMARK    3  A    between atoms: C6_10  and  C7_11 
REMARK    4  A    between atoms: C13_20  and  C14_21 
REMARK    5  A    between atoms: C14_21  and  C15_22 
ROOT
HETATM    1  C7  UNL     1      42.250   0.497  92.102  1.00  0.00    -0.005 A 
HETATM    2  C8  UNL     1      43.594   0.732  91.812  1.00  0.00     0.019 A 
HETATM    3  C9  UNL     1      44.014   2.102  91.500  1.00  0.00     0.069 C 
HETATM    4  N2  UNL     1      44.516  -0.271  91.828  1.00  0.00    -0.326 N 
ATOM      5  H2  UNL     1      45.487  -0.049  91.609  1.00  0.00     0.169 HD
HETATM    6  C10 UNL     1      44.199  -1.528  92.117  1.00  0.00     0.252 A 
HETATM    7  O2  UNL     1      45.116  -2.388  92.107  1.00  0.00    -0.268 OA
HETATM    8  C11 UNL     1      42.894  -1.812  92.408  1.00  0.00     0.013 A 
HETATM    9  C12 UNL     1      42.488  -3.197  92.738  1.00  0.00     0.054 C 
HETATM   10  C13 UNL     1      41.919  -0.801  92.401  1.00  0.00    -0.035 A 
ENDROOT
BRANCH   1  11
HETATM   11  C6  UNL     1      41.305   1.582  92.107  1.00  0.00     0.044 C 
BRANCH  11  12
HETATM   12  C5  UNL     1      40.778   2.198  93.125  1.00  0.00     0.045 A 
HETATM   13  C2  UNL     1      39.484   2.631  93.248  1.00  0.00     0.016 A 
HETATM   14  C1  UNL     1      38.499   2.491  92.339  1.00  0.00     0.028 C 
HETATM   15  C3  UNL     1      39.330   3.248  94.470  1.00  0.00     0.092 A 
HETATM   16  C4  UNL     1      40.554   3.184  95.090  1.00  0.00     0.125 A 
HETATM   17  N1  UNL     1      41.403   2.547  94.253  1.00  0.00    -0.362 N 
ATOM     18  H1  UNL     1      42.384   2.358  94.456  1.00  0.00     0.165 HD
BRANCH  15  19
HETATM   19  O1  UNL     1      38.167   3.804  94.937  1.00  0.00    -0.358 OA
ATOM     20  H1  UNL     1      37.311   3.391  94.908  1.00  0.00     0.217 HD
ENDBRANCH  15  19
ENDBRANCH  11  12
ENDBRANCH   1  11
BRANCH  10  21
HETATM   21  C14 UNL     1      40.522  -1.173  92.705  1.00  0.00     0.040 C 
BRANCH  21  22
HETATM   22  C15 UNL     1      39.830  -1.619  91.468  1.00  0.00     0.000 C 
HETATM   23  C16 UNL     1      38.629  -0.740  91.126  1.00  0.00     0.005 C 
ENDBRANCH  21  22
ENDBRANCH  10  21
TORSDOF 5
ENDMDL
MODEL 2
REMARK VINA RESULT: -8.521394673      1.988      5.490
REMARK  5 active torsions:
REMARK  status: ('A' for Active; 'I' for Inactive)
REMARK    1  A    between atoms: C3_3  and  O1_4 
REMARK    2  A    between atoms: C5_9  and  C6_10 
REMARK    3  A    between atoms: C6_10  and  C7_11 
REMARK    4  A    between atoms: C13_20  and  C14_21 
REMARK    5  A    between atoms: C14_21  and  C15_22 
ROOT
HETATM    1  C7  UNL     1      41.364   0.809  92.239  1.00  0.00    -0.005 A 
HETATM    2  C8  UNL     1      40.968   2.097  92.599  1.00  0.00     0.019 A 
HETATM    3  C9  UNL     1      42.002   3.074  92.954  1.00  0.00     0.069 C 
HETATM    4  N2  UNL     1      39.656   2.465  92.613  1.00  0.00    -0.326 N 
ATOM      5  H2  UNL     1      39.417   3.419  92.884  1.00  0.00     0.169 HD
HETATM    6  C10 UNL     1      38.676   1.630  92.288  1.00  0.00     0.252 A 
HETATM    7  O2  UNL     1      37.494   2.056  92.330  1.00  0.00    -0.268 OA
HETATM    8  C11 UNL     1      39.011   0.355  91.927  1.00  0.00     0.013 A 
HETATM    9  C12 UNL     1      37.957  -0.616  91.554  1.00  0.00     0.054 C 
HETATM   10  C13 UNL     1      40.353  -0.057  91.902  1.00  0.00    -0.035 A 
ENDROOT
BRANCH   1  11
HETATM   11  C6  UNL     1      42.759   0.459  92.204  1.00  0.00     0.044 C 
BRANCH  11  12
HETATM   12  C5  UNL     1      43.599   0.556  91.214  1.00  0.00     0.045 A 
HETATM   13  C2  UNL     1      44.911   0.944  91.281  1.00  0.00     0.016 A 
HETATM   14  C1  UNL     1      45.593   1.290  92.390  1.00  0.00     0.028 C 
HETATM   15  C3  UNL     1      45.449   0.929  90.012  1.00  0.00     0.092 A 
HETATM   16  C4  UNL     1      44.441   0.526  89.172  1.00  0.00     0.125 A 
HETATM   17  N1  UNL     1      43.341   0.310  89.927  1.00  0.00    -0.362 N 
ATOM     18  H1  UNL     1      42.439   0.002  89.564  1.00  0.00     0.165 HD
BRANCH  15  19
HETATM   19  O1  UNL     1      46.742   1.259  89.695  1.00  0.00    -0.358 OA
ATOM     20  H1  UNL     1      47.482   0.664  89.718  1.00  0.00     0.217 HD
ENDBRANCH  15  19
ENDBRANCH  11  12
ENDBRANCH   1  11
BRANCH  10  21
HETATM   21  C14 UNL     1      40.652  -1.453  91.522  1.00  0.00     0.040 C 
BRANCH  21  22
HETATM   22  C15 UNL     1      40.478  -2.351  92.693  1.00  0.00     0.000 C 
HETATM   23  C16 UNL     1      41.769  -3.077  93.064  1.00  0.00     0.005 C 
ENDBRANCH  21  22
ENDBRANCH  10  21
TORSDOF 5
ENDMDL
MODEL 3
REMARK VINA RESULT: -8.514372669      1.424      1.860
REMARK  5 active torsions:
REMARK  status: ('A' for Active; 'I' for Inactive)
REMARK    1  A    between atoms: C3_3  and  O1_4 
REMARK    2  A    between atoms: C5_9  and  C6_10 
REMARK    3  A    between atoms: C6_10  and  C7_11 
REMARK    4  A    between atoms: C13_20  and  C14_21 
REMARK    5  A    between atoms: C14_21  and  C15_22 
ROOT
HETATM    1  C7  UNL     1      42.637   0.455  92.120  1.00  0.00    -0.005 A 
HETATM    2  C8  UNL     1      43.389   1.085  91.128  1.00  0.00     0.019 A 
HETATM    3  C9  UNL     1      43.470   2.549  91.134  1.00  0.00     0.069 C 
HETATM    4  N2  UNL     1      44.052   0.375  90.173  1.00  0.00    -0.326 N 
ATOM      5  H2  UNL     1      44.588   0.881  89.469  1.00  0.00     0.169 HD
HETATM    6  C10 UNL     1      44.027  -0.952  90.124  1.00  0.00     0.252 A 
HETATM    7  O2  UNL     1      44.669  -1.524  89.207  1.00  0.00    -0.268 OA
HETATM    8  C11 UNL     1      43.304  -1.618  91.074  1.00  0.00     0.013 A 
HETATM    9  C12 UNL     1      43.245  -3.097  91.065  1.00  0.00     0.054 C 
HETATM   10  C13 UNL     1      42.610  -0.916  92.072  1.00  0.00    -0.035 A 
ENDROOT
BRANCH   1  11
HETATM   11  C6  UNL     1      41.972   1.232  93.133  1.00  0.00     0.044 C 
BRANCH  11  12
HETATM   12  C5  UNL     1      40.800   1.796  93.090  1.00  0.00     0.045 A 
HETATM   13  C2  UNL     1      40.270   2.669  94.003  1.00  0.00     0.016 A 
HETATM   14  C1  UNL     1      40.867   3.125  95.122  1.00  0.00     0.028 C 
HETATM   15  C3  UNL     1      39.001   3.024  93.601  1.00  0.00     0.092 A 
HETATM   16  C4  UNL     1      38.767   2.352  92.427  1.00  0.00     0.125 A 
HETATM   17  N1  UNL     1      39.869   1.621  92.148  1.00  0.00    -0.362 N 
ATOM     18  H1  UNL     1      39.975   1.020  91.331  1.00  0.00     0.165 HD
BRANCH  15  19
HETATM   19  O1  UNL     1      38.169   3.884  94.271  1.00  0.00    -0.358 OA
ATOM     20  H1  UNL     1      37.485   3.625  94.877  1.00  0.00     0.217 HD
ENDBRANCH  15  19
ENDBRANCH  11  12
ENDBRANCH   1  11
BRANCH  10  21
HETATM   21  C14 UNL     1      41.830  -1.690  93.061  1.00  0.00     0.040 C 
BRANCH  21  22
HETATM   22  C15 UNL     1      40.698  -2.381  92.392  1.00  0.00     0.000 C 
HETATM   23  C16 UNL     1      39.362  -1.685  92.645  1.00  0.00     0.005 C 
ENDBRANCH  21  22
ENDBRANCH  10  21
TORSDOF 5
ENDMDL
MODEL 4
REMARK VINA RESULT: -8.468947504      1.784      5.233
REMARK  5 active torsions:
REMARK  status: ('A' for Active; 'I' for Inactive)
REMARK    1  A    between atoms: C3_3  and  O1_4 
REMARK    2  A    between atoms: C5_9  and  C6_10 
REMARK    3  A    between atoms: C6_10  and  C7_11 
REMARK    4  A    between atoms: C13_20  and  C14_21 
REMARK    5  A    between atoms: C14_21  and  C15_22 
ROOT
HETATM    1  C7  UNL     1      41.217   0.870  93.285  1.00  0.00    -0.005 A 
HETATM    2  C8  UNL     1      40.540   2.008  93.726  1.00  0.00     0.019 A 
HETATM    3  C9  UNL     1      41.238   2.934  94.623  1.00  0.00     0.069 C 
HETATM    4  N2  UNL     1      39.264   2.279  93.332  1.00  0.00    -0.326 N 
ATOM      5  H2  UNL     1      38.812   3.123  93.682  1.00  0.00     0.169 HD
HETATM    6  C10 UNL     1      38.586   1.485  92.511  1.00  0.00     0.252 A 
HETATM    7  O2  UNL     1      37.413   1.815  92.202  1.00  0.00    -0.268 OA
HETATM    8  C11 UNL     1      39.204   0.357  92.050  1.00  0.00     0.013 A 
HETATM    9  C12 UNL     1      38.494  -0.561  91.131  1.00  0.00     0.054 C 
HETATM   10  C13 UNL     1      40.519   0.049  92.436  1.00  0.00    -0.035 A 
ENDROOT
BRANCH   1  11
HETATM   11  C6  UNL     1      42.575   0.627  93.694  1.00  0.00     0.044 C 
BRANCH  11  12
HETATM   12  C5  UNL     1      43.679   1.036  93.139  1.00  0.00     0.045 A 
HETATM   13  C2  UNL     1      44.715   0.259  92.692  1.00  0.00     0.016 A 
HETATM   14  C1  UNL     1      44.788  -1.086  92.731  1.00  0.00     0.028 C 
HETATM   15  C3  UNL     1      45.702   1.075  92.184  1.00  0.00     0.092 A 
HETATM   16  C4  UNL     1      45.249   2.363  92.328  1.00  0.00     0.125 A 
HETATM   17  N1  UNL     1      44.029   2.304  92.907  1.00  0.00    -0.362 N 
ATOM     18  H1  UNL     1      43.455   3.116  93.135  1.00  0.00     0.165 HD
BRANCH  15  19
HETATM   19  O1  UNL     1      46.888   0.645  91.647  1.00  0.00    -0.358 OA
ATOM     20  H1  UNL     1      47.167   0.781  90.749  1.00  0.00     0.217 HD
ENDBRANCH  15  19
ENDBRANCH  11  12
ENDBRANCH   1  11
BRANCH  10  21
HETATM   21  C14 UNL     1      41.128  -1.195  91.920  1.00  0.00     0.040 C 
BRANCH  21  22
HETATM   22  C15 UNL     1      40.668  -2.360  92.720  1.00  0.00     0.000 C 
HETATM   23  C16 UNL     1      41.827  -3.248  93.171  1.00  0.00     0.005 C 
ENDBRANCH  21  22
ENDBRANCH  10  21
TORSDOF 5
ENDMDL
MODEL 5
REMARK VINA RESULT: -8.455450768      1.654      5.561
REMARK  5 active torsions:
REMARK  status: ('A' for Active; 'I' for Inactive)
REMARK    1  A    between atoms: C3_3  and  O1_4 
REMARK    2  A    between atoms: C5_9  and  C6_10 
REMARK    3  A    between atoms: C6_10  and  C7_11 
REMARK    4  A    between atoms: C13_20  and  C14_21 
REMARK    5  A    between atoms: C14_21  and  C15_22 
ROOT
HETATM    1  C7  UNL     1      41.574   0.923  92.926  1.00  0.00    -0.005 A 
HETATM    2  C8  UNL     1      41.773   2.026  93.757  1.00  0.00     0.019 A 
HETATM    3  C9  UNL     1      43.128   2.300  94.244  1.00  0.00     0.069 C 
HETATM    4  N2  UNL     1      40.747   2.851  94.109  1.00  0.00    -0.326 N 
ATOM      5  H2  UNL     1      40.944   3.645  94.719  1.00  0.00     0.169 HD
HETATM    6  C10 UNL     1      39.501   2.662  93.689  1.00  0.00     0.252 A 
HETATM    7  O2  UNL     1      38.619   3.475  94.065  1.00  0.00    -0.268 OA
HETATM    8  C11 UNL     1      39.253   1.596  92.872  1.00  0.00     0.013 A 
HETATM    9  C12 UNL     1      37.882   1.341  92.374  1.00  0.00     0.054 C 
HETATM   10  C13 UNL     1      40.288   0.726  92.490  1.00  0.00    -0.035 A 
ENDROOT
BRANCH   1  11
HETATM   11  C6  UNL     1      42.682   0.088  92.547  1.00  0.00     0.044 C 
BRANCH  11  12
HETATM   12  C5  UNL     1      43.232  -0.054  91.375  1.00  0.00     0.045 A 
HETATM   13  C2  UNL     1      43.741  -1.207  90.837  1.00  0.00     0.016 A 
HETATM   14  C1  UNL     1      43.760  -2.425  91.414  1.00  0.00     0.028 C 
HETATM   15  C3  UNL     1      44.247  -0.933  89.585  1.00  0.00     0.092 A 
HETATM   16  C4  UNL     1      44.036   0.406  89.370  1.00  0.00     0.125 A 
HETATM   17  N1  UNL     1      43.425   0.906  90.467  1.00  0.00    -0.362 N 
ATOM     18  H1  UNL     1      43.148   1.880  90.584  1.00  0.00     0.165 HD
BRANCH  15  19
HETATM   19  O1  UNL     1      44.835  -1.848  88.750  1.00  0.00    -0.358 OA
ATOM     20  H1  UNL     1      45.628  -1.702  88.247  1.00  0.00     0.217 HD
ENDBRANCH  15  19
ENDBRANCH  11  12
ENDBRANCH   1  11
BRANCH  10  21
HETATM   21  C14 UNL     1      39.954  -0.421  91.620  1.00  0.00     0.040 C 
BRANCH  21  22
HETATM   22  C15 UNL     1      39.390  -1.531  92.431  1.00  0.00     0.000 C 
HETATM   23  C16 UNL     1      40.440  -2.583  92.784  1.00  0.00     0.005 C 
ENDBRANCH  21  22
ENDBRANCH  10  21
TORSDOF 5
ENDMDL
