MODEL 1
REMARK VINA RESULT: -6.723461614      0.000      0.000
REMARK  6 active torsions:
REMARK  status: ('A' for Active; 'I' for Inactive)
REMARK    1  A    between atoms: C2_2  and  C4_4 
REMARK    2  A    between atoms: C11_11  and  O1_12 
REMARK    3  A    between atoms: C15_17  and  O2_18 
REMARK    4  A    between atoms: C15_17  and  C16_20 
REMARK    5  A    between atoms: C16_20  and  O3_21 
REMARK    6  A    between atoms: C22_29  and  C24_31 
ROOT
HETATM    1  C4  UNL     1      24.978  -8.999  28.383  1.00  0.00     0.024 C 
HETATM    2  C5  UNL     1      23.896  -9.371  27.352  1.00  0.00     0.011 C 
HETATM    3  C6  UNL     1      24.076  -8.507  26.150  1.00  0.00     0.013 C 
HETATM    4  C7  UNL     1      25.395  -8.763  25.555  1.00  0.00    -0.011 C 
HETATM    5  C8  UNL     1      25.272  -9.999  24.653  1.00  0.00     0.018 C 
HETATM    6  C9  UNL     1      25.850  -7.636  24.612  1.00  0.00     0.028 C 
HETATM    7  C10 UNL     1      25.189  -6.319  24.997  1.00  0.00     0.040 C 
HETATM    8  C11 UNL     1      25.850  -5.216  24.235  1.00  0.00     0.127 C 
HETATM    9  C12 UNL     1      27.319  -5.045  24.580  1.00  0.00    -0.009 C 
HETATM   10  C13 UNL     1      27.339  -4.538  26.031  1.00  0.00     0.018 C 
HETATM   11  C14 UNL     1      27.903  -3.956  23.758  1.00  0.00     0.052 C 
HETATM   12  C15 UNL     1      28.773  -4.324  22.629  1.00  0.00     0.080 C 
HETATM   13  C17 UNL     1      29.459  -5.656  22.746  1.00  0.00     0.040 C 
HETATM   14  C18 UNL     1      28.423  -6.671  23.092  1.00  0.00     0.011 C 
HETATM   15  C19 UNL     1      28.009  -6.348  24.538  1.00  0.00     0.026 C 
HETATM   16  C20 UNL     1      27.288  -7.517  25.034  1.00  0.00     0.132 C 
HETATM   17  O4  UNL     1      27.188  -7.692  26.389  1.00  0.00    -0.378 OA
HETATM   18  C21 UNL     1      26.537  -8.943  26.438  1.00  0.00     0.139 C 
HETATM   19  C22 UNL     1      26.308  -9.413  27.852  1.00  0.00    -0.010 C 
HETATM   20  C23 UNL     1      26.397 -10.914  27.839  1.00  0.00     0.018 C 
ENDROOT
BRANCH  12  21
HETATM   21  O2  UNL     1      29.805  -3.372  22.436  1.00  0.00    -0.388 OA
ATOM     22  H2  UNL     1      30.653  -3.790  22.345  1.00  0.00     0.210 HD
ENDBRANCH  12  21
BRANCH  12  23
HETATM   23  C16 UNL     1      28.002  -4.335  21.310  1.00  0.00     0.201 C 
BRANCH  23  24
HETATM   24  O3  UNL     1      27.018  -3.337  21.310  1.00  0.00    -0.398 OA
ATOM     25  H3  UNL     1      26.846  -3.041  20.423  1.00  0.00     0.209 HD
ENDBRANCH  23  24
ENDBRANCH  12  23
BRANCH   8  26
HETATM   26  O1  UNL     1      25.214  -4.012  24.573  1.00  0.00    -0.395 OA
ATOM     27  H1  UNL     1      25.886  -3.358  24.725  1.00  0.00     0.210 HD
ENDBRANCH   8  26
BRANCH  19  28
HETATM   28  C24 UNL     1      27.440  -8.912  28.732  1.00  0.00     0.008 C 
HETATM   29  C25 UNL     1      28.194 -10.004  29.412  1.00  0.00     0.006 C 
ENDBRANCH  19  28
BRANCH   1  30
HETATM   30  C2  UNL     1      24.497  -9.526  29.644  1.00  0.00    -0.088 C 
HETATM   31  C1  UNL     1      23.877 -10.618  29.978  1.00  0.00     0.014 C 
HETATM   32  C3  UNL     1      24.777  -8.621  30.854  1.00  0.00     0.043 C 
ENDBRANCH   1  30
TORSDOF 6
ENDMDL
MODEL 2
REMARK VINA RESULT: -6.583416461      1.313      1.799
REMARK  6 active torsions:
REMARK  status: ('A' for Active; 'I' for Inactive)
REMARK    1  A    between atoms: C2_2  and  C4_4 
REMARK    2  A    between atoms: C11_11  and  O1_12 
REMARK    3  A    between atoms: C15_17  and  O2_18 
REMARK    4  A    between atoms: C15_17  and  C16_20 
REMARK    5  A    between atoms: C16_20  and  O3_21 
REMARK    6  A    between atoms: C22_29  and  C24_31 
ROOT
HETATM    1  C4  UNL     1      23.864  -9.417  26.998  1.00  0.00     0.024 C 
HETATM    2  C5  UNL     1      22.670  -9.072  26.088  1.00  0.00     0.011 C 
HETATM    3  C6  UNL     1      23.049  -7.904  25.240  1.00  0.00     0.013 C 
HETATM    4  C7  UNL     1      24.193  -8.265  24.391  1.00  0.00    -0.011 C 
HETATM    5  C8  UNL     1      23.650  -8.993  23.154  1.00  0.00     0.018 C 
HETATM    6  C9  UNL     1      24.927  -7.036  23.829  1.00  0.00     0.028 C 
HETATM    7  C10 UNL     1      24.725  -5.831  24.741  1.00  0.00     0.040 C 
HETATM    8  C11 UNL     1      25.657  -4.747  24.305  1.00  0.00     0.127 C 
HETATM    9  C12 UNL     1      27.122  -5.120  24.450  1.00  0.00    -0.009 C 
HETATM   10  C13 UNL     1      27.369  -5.216  25.964  1.00  0.00     0.018 C 
HETATM   11  C14 UNL     1      27.973  -4.003  23.966  1.00  0.00     0.052 C 
HETATM   12  C15 UNL     1      28.629  -4.144  22.656  1.00  0.00     0.080 C 
HETATM   13  C17 UNL     1      28.874  -5.554  22.201  1.00  0.00     0.040 C 
HETATM   14  C18 UNL     1      27.594  -6.306  22.341  1.00  0.00     0.011 C 
HETATM   15  C19 UNL     1      27.372  -6.446  23.857  1.00  0.00     0.026 C 
HETATM   16  C20 UNL     1      26.350  -7.475  24.032  1.00  0.00     0.132 C 
HETATM   17  O4  UNL     1      26.268  -8.109  25.244  1.00  0.00    -0.378 OA
HETATM   18  C21 UNL     1      25.265  -9.062  24.967  1.00  0.00     0.139 C 
HETATM   19  C22 UNL     1      24.973  -9.945  26.152  1.00  0.00    -0.010 C 
HETATM   20  C23 UNL     1      24.592 -11.297  25.614  1.00  0.00     0.018 C 
ENDROOT
BRANCH  12  21
HETATM   21  O2  UNL     1      29.894  -3.504  22.638  1.00  0.00    -0.388 OA
ATOM     22  H2  UNL     1      30.572  -4.064  22.997  1.00  0.00     0.210 HD
ENDBRANCH  12  21
BRANCH  12  23
HETATM   23  C16 UNL     1      27.829  -3.453  21.553  1.00  0.00     0.201 C 
BRANCH  23  24
HETATM   24  O3  UNL     1      28.451  -3.636  20.309  1.00  0.00    -0.398 OA
ATOM     25  H3  UNL     1      29.202  -4.211  20.396  1.00  0.00     0.209 HD
ENDBRANCH  23  24
ENDBRANCH  12  23
BRANCH   8  26
HETATM   26  O1  UNL     1      25.441  -3.632  25.130  1.00  0.00    -0.395 OA
ATOM     27  H1  UNL     1      26.265  -3.165  25.214  1.00  0.00     0.210 HD
ENDBRANCH   8  26
BRANCH  19  28
HETATM   28  C24 UNL     1      26.246 -10.134  26.959  1.00  0.00     0.008 C 
HETATM   29  C25 UNL     1      26.700 -11.552  27.032  1.00  0.00     0.006 C 
ENDBRANCH  19  28
BRANCH   1  30
HETATM   30  C2  UNL     1      23.306 -10.225  28.062  1.00  0.00    -0.088 C 
HETATM   31  C1  UNL     1      23.707 -10.525  29.262  1.00  0.00     0.014 C 
HETATM   32  C3  UNL     1      21.949 -10.863  27.725  1.00  0.00     0.043 C 
ENDBRANCH   1  30
TORSDOF 6
ENDMDL
MODEL 3
REMARK VINA RESULT: -6.513805346      2.854      7.236
REMARK  6 active torsions:
REMARK  status: ('A' for Active; 'I' for Inactive)
REMARK    1  A    between atoms: C2_2  and  C4_4 
REMARK    2  A    between atoms: C11_11  and  O1_12 
REMARK    3  A    between atoms: C15_17  and  O2_18 
REMARK    4  A    between atoms: C15_17  and  C16_20 
REMARK    5  A    between atoms: C16_20  and  O3_21 
REMARK    6  A    between atoms: C22_29  and  C24_31 
ROOT
HETATM    1  C4  UNL     1      27.617  -4.969  23.274  1.00  0.00     0.024 C 
HETATM    2  C5  UNL     1      26.919  -6.307  22.967  1.00  0.00     0.011 C 
HETATM    3  C6  UNL     1      27.427  -7.332  23.925  1.00  0.00     0.013 C 
HETATM    4  C7  UNL     1      27.086  -6.932  25.298  1.00  0.00    -0.011 C 
HETATM    5  C8  UNL     1      25.644  -7.381  25.574  1.00  0.00     0.018 C 
HETATM    6  C9  UNL     1      27.930  -7.661  26.356  1.00  0.00     0.028 C 
HETATM    7  C10 UNL     1      29.267  -8.094  25.765  1.00  0.00     0.040 C 
HETATM    8  C11 UNL     1      30.149  -8.556  26.880  1.00  0.00     0.127 C 
HETATM    9  C12 UNL     1      30.485  -7.458  27.873  1.00  0.00    -0.009 C 
HETATM   10  C13 UNL     1      31.373  -6.469  27.101  1.00  0.00     0.018 C 
HETATM   11  C14 UNL     1      31.335  -8.008  28.960  1.00  0.00     0.052 C 
HETATM   12  C15 UNL     1      30.715  -8.255  30.272  1.00  0.00     0.080 C 
HETATM   13  C17 UNL     1      29.505  -7.421  30.585  1.00  0.00     0.040 C 
HETATM   14  C18 UNL     1      28.572  -7.522  29.426  1.00  0.00     0.011 C 
HETATM   15  C19 UNL     1      29.260  -6.750  28.287  1.00  0.00     0.026 C 
HETATM   16  C20 UNL     1      28.236  -6.510  27.273  1.00  0.00     0.132 C 
HETATM   17  O4  UNL     1      28.437  -5.494  26.376  1.00  0.00    -0.378 OA
HETATM   18  C21 UNL     1      27.216  -5.531  25.670  1.00  0.00     0.139 C 
HETATM   19  C22 UNL     1      27.143  -4.474  24.598  1.00  0.00    -0.010 C 
HETATM   20  C23 UNL     1      25.703  -4.054  24.489  1.00  0.00     0.018 C 
ENDROOT
BRANCH  12  21
HETATM   21  O2  UNL     1      31.630  -8.024  31.330  1.00  0.00    -0.388 OA
ATOM     22  H2  UNL     1      31.603  -7.121  31.623  1.00  0.00     0.210 HD
ENDBRANCH  12  21
BRANCH  12  23
HETATM   23  C16 UNL     1      30.301  -9.717  30.429  1.00  0.00     0.201 C 
BRANCH  23  24
HETATM   24  O3  UNL     1      29.831  -9.956  31.728  1.00  0.00    -0.398 OA
ATOM     25  H3  UNL     1      29.268 -10.721  31.742  1.00  0.00     0.209 HD
ENDBRANCH  23  24
ENDBRANCH  12  23
BRANCH   8  26
HETATM   26  O1  UNL     1      31.365  -8.982  26.323  1.00  0.00    -0.395 OA
ATOM     27  H1  UNL     1      31.710  -8.272  25.793  1.00  0.00     0.210 HD
ENDBRANCH   8  26
BRANCH  19  28
HETATM   28  C24 UNL     1      27.925  -3.253  25.049  1.00  0.00     0.008 C 
HETATM   29  C25 UNL     1      27.310  -2.544  26.208  1.00  0.00     0.006 C 
ENDBRANCH  19  28
BRANCH   1  30
HETATM   30  C2  UNL     1      27.434  -4.165  22.083  1.00  0.00    -0.088 C 
HETATM   31  C1  UNL     1      26.636  -3.184  21.780  1.00  0.00     0.014 C 
HETATM   32  C3  UNL     1      28.379  -4.526  20.927  1.00  0.00     0.043 C 
ENDBRANCH   1  30
TORSDOF 6
ENDMDL
MODEL 4
REMARK VINA RESULT: -6.505740894      2.540      7.407
REMARK  6 active torsions:
REMARK  status: ('A' for Active; 'I' for Inactive)
REMARK    1  A    between atoms: C2_2  and  C4_4 
REMARK    2  A    between atoms: C11_11  and  O1_12 
REMARK    3  A    between atoms: C15_17  and  O2_18 
REMARK    4  A    between atoms: C15_17  and  C16_20 
REMARK    5  A    between atoms: C16_20  and  O3_21 
REMARK    6  A    between atoms: C22_29  and  C24_31 
ROOT
HETATM    1  C4  UNL     1      28.000  -5.173  23.708  1.00  0.00     0.024 C 
HETATM    2  C5  UNL     1      27.240  -6.386  23.140  1.00  0.00     0.011 C 
HETATM    3  C6  UNL     1      27.382  -7.520  24.100  1.00  0.00     0.013 C 
HETATM    4  C7  UNL     1      26.777  -7.151  25.387  1.00  0.00    -0.011 C 
HETATM    5  C8  UNL     1      25.267  -7.415  25.290  1.00  0.00     0.018 C 
HETATM    6  C9  UNL     1      27.255  -8.042  26.546  1.00  0.00     0.028 C 
HETATM    7  C10 UNL     1      28.632  -8.620  26.240  1.00  0.00     0.040 C 
HETATM    8  C11 UNL     1      29.164  -9.255  27.484  1.00  0.00     0.127 C 
HETATM    9  C12 UNL     1      29.385  -8.267  28.615  1.00  0.00    -0.009 C 
HETATM   10  C13 UNL     1      30.542  -7.368  28.150  1.00  0.00     0.018 C 
HETATM   11  C14 UNL     1      29.882  -8.984  29.816  1.00  0.00     0.052 C 
HETATM   12  C15 UNL     1      28.946  -9.214  30.929  1.00  0.00     0.080 C 
HETATM   13  C17 UNL     1      27.804  -8.243  31.027  1.00  0.00     0.040 C 
HETATM   14  C18 UNL     1      27.166  -8.155  29.682  1.00  0.00     0.011 C 
HETATM   15  C19 UNL     1      28.190  -7.423  28.797  1.00  0.00     0.026 C 
HETATM   16  C20 UNL     1      27.470  -6.994  27.601  1.00  0.00     0.132 C 
HETATM   17  O4  UNL     1      27.997  -5.968  26.860  1.00  0.00    -0.378 OA
HETATM   18  C21 UNL     1      26.981  -5.803  25.894  1.00  0.00     0.139 C 
HETATM   19  C22 UNL     1      27.289  -4.690  24.926  1.00  0.00    -0.010 C 
HETATM   20  C23 UNL     1      25.977  -4.074  24.528  1.00  0.00     0.018 C 
ENDROOT
BRANCH  12  21
HETATM   21  O2  UNL     1      29.606  -9.166  32.182  1.00  0.00    -0.388 OA
ATOM     22  H2  UNL     1      28.988  -9.200  32.903  1.00  0.00     0.210 HD
ENDBRANCH  12  21
BRANCH  12  23
HETATM   23  C16 UNL     1      28.335 -10.614  30.865  1.00  0.00     0.201 C 
BRANCH  23  24
HETATM   24  O3  UNL     1      27.506 -10.837  31.974  1.00  0.00    -0.398 OA
ATOM     25  H3  UNL     1      27.485 -11.762  32.191  1.00  0.00     0.209 HD
ENDBRANCH  23  24
ENDBRANCH  12  23
BRANCH   8  26
HETATM   26  O1  UNL     1      30.418  -9.811  27.184  1.00  0.00    -0.395 OA
ATOM     27  H1  UNL     1      31.050  -9.458  27.799  1.00  0.00     0.210 HD
ENDBRANCH   8  26
BRANCH  19  28
HETATM   28  C24 UNL     1      28.083  -3.611  25.643  1.00  0.00     0.008 C 
HETATM   29  C25 UNL     1      27.555  -2.235  25.420  1.00  0.00     0.006 C 
ENDBRANCH  19  28
BRANCH   1  30
HETATM   30  C2  UNL     1      28.200  -4.289  22.578  1.00  0.00    -0.088 C 
HETATM   31  C1  UNL     1      27.399  -3.774  21.693  1.00  0.00     0.014 C 
HETATM   32  C3  UNL     1      29.658  -3.850  22.370  1.00  0.00     0.043 C 
ENDBRANCH   1  30
TORSDOF 6
ENDMDL
MODEL 5
REMARK VINA RESULT: -6.500755427      4.238      8.673
REMARK  6 active torsions:
REMARK  status: ('A' for Active; 'I' for Inactive)
REMARK    1  A    between atoms: C2_2  and  C4_4 
REMARK    2  A    between atoms: C11_11  and  O1_12 
REMARK    3  A    between atoms: C15_17  and  O2_18 
REMARK    4  A    between atoms: C15_17  and  C16_20 
REMARK    5  A    between atoms: C16_20  and  O3_21 
REMARK    6  A    between atoms: C22_29  and  C24_31 
ROOT
HETATM    1  C4  UNL     1      32.098  -6.402  18.869  1.00  0.00     0.024 C 
HETATM    2  C5  UNL     1      31.793  -7.845  19.314  1.00  0.00     0.011 C 
HETATM    3  C6  UNL     1      30.968  -7.789  20.556  1.00  0.00     0.013 C 
HETATM    4  C7  UNL     1      29.696  -7.111  20.269  1.00  0.00    -0.011 C 
HETATM    5  C8  UNL     1      28.735  -8.149  19.670  1.00  0.00     0.018 C 
HETATM    6  C9  UNL     1      28.988  -6.612  21.539  1.00  0.00     0.028 C 
HETATM    7  C10 UNL     1      30.001  -6.363  22.651  1.00  0.00     0.040 C 
HETATM    8  C11 UNL     1      29.315  -5.639  23.763  1.00  0.00     0.127 C 
HETATM    9  C12 UNL     1      28.811  -4.264  23.363  1.00  0.00    -0.009 C 
HETATM   10  C13 UNL     1      30.075  -3.424  23.116  1.00  0.00     0.018 C 
HETATM   11  C14 UNL     1      28.117  -3.631  24.513  1.00  0.00     0.052 C 
HETATM   12  C15 UNL     1      26.647  -3.575  24.495  1.00  0.00     0.080 C 
HETATM   13  C17 UNL     1      26.012  -3.608  23.134  1.00  0.00     0.040 C 
HETATM   14  C18 UNL     1      26.602  -4.754  22.385  1.00  0.00     0.011 C 
HETATM   15  C19 UNL     1      28.057  -4.343  22.099  1.00  0.00     0.026 C 
HETATM   16  C20 UNL     1      28.549  -5.254  21.068  1.00  0.00     0.132 C 
HETATM   17  O4  UNL     1      29.628  -4.864  20.319  1.00  0.00    -0.378 OA
HETATM   18  C21 UNL     1      29.708  -5.938  19.408  1.00  0.00     0.139 C 
HETATM   19  C22 UNL     1      30.829  -5.764  18.416  1.00  0.00    -0.010 C 
HETATM   20  C23 UNL     1      30.383  -6.398  17.128  1.00  0.00     0.018 C 
ENDROOT
BRANCH  12  21
HETATM   21  O2  UNL     1      26.163  -2.398  25.121  1.00  0.00    -0.388 OA
ATOM     22  H2  UNL     1      26.595  -2.245  25.954  1.00  0.00     0.210 HD
ENDBRANCH  12  21
BRANCH  12  23
HETATM   23  C16 UNL     1      26.034  -4.722  25.299  1.00  0.00     0.201 C 
BRANCH  23  24
HETATM   24  O3  UNL     1      24.660  -4.824  25.037  1.00  0.00    -0.398 OA
ATOM     25  H3  UNL     1      24.503  -5.420  24.314  1.00  0.00     0.209 HD
ENDBRANCH  23  24
ENDBRANCH  12  23
BRANCH   8  26
HETATM   26  O1  UNL     1      30.247  -5.443  24.794  1.00  0.00    -0.395 OA
ATOM     27  H1  UNL     1      29.872  -5.783  25.598  1.00  0.00     0.210 HD
ENDBRANCH   8  26
BRANCH  19  28
HETATM   28  C24 UNL     1      31.021  -4.283  18.136  1.00  0.00     0.008 C 
HETATM   29  C25 UNL     1      30.147  -3.765  17.045  1.00  0.00     0.006 C 
ENDBRANCH  19  28
BRANCH   1  30
HETATM   30  C2  UNL     1      33.225  -6.515  17.966  1.00  0.00    -0.088 C 
HETATM   31  C1  UNL     1      34.035  -5.649  17.434  1.00  0.00     0.014 C 
HETATM   32  C3  UNL     1      33.554  -7.956  17.546  1.00  0.00     0.043 C 
ENDBRANCH   1  30
TORSDOF 6
ENDMDL
