MODEL 1
REMARK VINA RESULT: -8.112141313      0.000      0.000
REMARK  2 active torsions:
REMARK  status: ('A' for Active; 'I' for Inactive)
REMARK    1  A    between atoms: C3_4  and  C4_5 
REMARK    2  A    between atoms: C13_18  and  N3_19 
ROOT
HETATM    1  N1  UNL     1       4.681  83.388   0.525  1.00  0.00    -0.192 NA
HETATM    2  C1  UNL     1       5.724  82.850   0.625  1.00  0.00     0.096 C 
HETATM    3  C2  UNL     1       6.994  82.197   0.776  1.00  0.00     0.042 C 
HETATM    4  C3  UNL     1       7.629  81.712  -0.270  1.00  0.00     0.043 C 
HETATM    5  C5  UNL     1       8.884  81.091   0.193  1.00  0.00     0.045 C 
HETATM    6  C6  UNL     1       9.176  81.855   1.461  1.00  0.00     0.020 C 
HETATM    7  C7  UNL     1       7.781  81.975   2.040  1.00  0.00     0.007 C 
HETATM    8  C8  UNL     1       7.588  83.167   2.909  1.00  0.00     0.046 C 
HETATM    9  C9  UNL     1       7.793  82.952   4.363  1.00  0.00     0.276 C 
HETATM   10  N2  UNL     1       7.436  81.654   4.847  1.00  0.00     0.119 N 
HETATM   11  C10 UNL     1       6.066  81.299   4.669  1.00  0.00     0.275 C 
HETATM   12  C11 UNL     1       6.013  80.685   3.268  1.00  0.00     0.040 C 
HETATM   13  C12 UNL     1       7.414  80.732   2.750  1.00  0.00     0.062 C 
HETATM   14  C13 UNL     1       8.201  80.683   4.046  1.00  0.00     0.422 C 
ENDROOT
BRANCH   4  15
HETATM   15  C4  UNL     1       7.225  81.725  -1.706  1.00  0.00     0.415 C 
HETATM   16  F1  UNL     1       8.118  81.027  -2.460  1.00  0.00    -0.166 F 
HETATM   17  F2  UNL     1       5.969  81.275  -1.945  1.00  0.00    -0.166 F 
HETATM   18  F3  UNL     1       7.278  83.060  -2.114  1.00  0.00    -0.166 F 
ENDBRANCH   4  15
BRANCH  14  19
HETATM   19  N3  UNL     1       8.130  79.391   4.674  1.00  0.00    -0.047 N 
ATOM     20  H33 UNL     1       7.840  78.660   4.024  1.00  0.00     0.276 HD
ATOM     21  H32 UNL     1       9.052  79.020   4.905  1.00  0.00     0.276 HD
ATOM     22  H31 UNL     1       7.520  79.447   5.490  1.00  0.00     0.276 HD
ENDBRANCH  14  19
TORSDOF 2
ENDMDL
MODEL 2
REMARK VINA RESULT: -7.818177861      0.999      1.050
REMARK  2 active torsions:
REMARK  status: ('A' for Active; 'I' for Inactive)
REMARK    1  A    between atoms: C3_4  and  C4_5 
REMARK    2  A    between atoms: C13_18  and  N3_19 
ROOT
HETATM    1  N1  UNL     1       3.834  83.545  -0.117  1.00  0.00    -0.192 NA
HETATM    2  C1  UNL     1       4.871  83.005   0.023  1.00  0.00     0.096 C 
HETATM    3  C2  UNL     1       6.134  82.352   0.221  1.00  0.00     0.042 C 
HETATM    4  C3  UNL     1       6.760  81.778  -0.784  1.00  0.00     0.043 C 
HETATM    5  C5  UNL     1       8.009  81.181  -0.277  1.00  0.00     0.045 C 
HETATM    6  C6  UNL     1       8.315  82.041   0.925  1.00  0.00     0.020 C 
HETATM    7  C7  UNL     1       6.924  82.223   1.497  1.00  0.00     0.007 C 
HETATM    8  C8  UNL     1       6.748  83.483   2.268  1.00  0.00     0.046 C 
HETATM    9  C9  UNL     1       6.956  83.383   3.733  1.00  0.00     0.276 C 
HETATM   10  N2  UNL     1       6.587  82.132   4.321  1.00  0.00     0.119 N 
HETATM   11  C10 UNL     1       5.213  81.780   4.177  1.00  0.00     0.275 C 
HETATM   12  C11 UNL     1       5.147  81.056   2.830  1.00  0.00     0.040 C 
HETATM   13  C12 UNL     1       6.546  81.045   2.305  1.00  0.00     0.062 C 
HETATM   14  C13 UNL     1       7.338  81.091   3.599  1.00  0.00     0.422 C 
ENDROOT
BRANCH   4  15
HETATM   15  C4  UNL     1       6.349  81.679  -2.215  1.00  0.00     0.415 C 
HETATM   16  F1  UNL     1       7.225  80.902  -2.911  1.00  0.00    -0.166 F 
HETATM   17  F2  UNL     1       5.083  81.239  -2.413  1.00  0.00    -0.166 F 
HETATM   18  F3  UNL     1       6.429  82.975  -2.733  1.00  0.00    -0.166 F 
ENDBRANCH   4  15
BRANCH  14  19
HETATM   19  N3  UNL     1       7.255  79.855   4.329  1.00  0.00    -0.047 N 
ATOM     20  H33 UNL     1       7.490  79.048   3.751  1.00  0.00     0.276 HD
ATOM     21  H32 UNL     1       8.001  79.760   5.018  1.00  0.00     0.276 HD
ATOM     22  H31 UNL     1       6.329  79.774   4.747  1.00  0.00     0.276 HD
ENDBRANCH  14  19
TORSDOF 2
ENDMDL
MODEL 3
REMARK VINA RESULT: -7.336268046      2.749      3.591
REMARK  2 active torsions:
REMARK  status: ('A' for Active; 'I' for Inactive)
REMARK    1  A    between atoms: C3_4  and  C4_5 
REMARK    2  A    between atoms: C13_18  and  N3_19 
ROOT
HETATM    1  N1  UNL     1       2.808  82.819   0.517  1.00  0.00    -0.192 NA
HETATM    2  C1  UNL     1       3.693  82.723   1.288  1.00  0.00     0.096 C 
HETATM    3  C2  UNL     1       4.754  82.608   2.249  1.00  0.00     0.042 C 
HETATM    4  C3  UNL     1       5.980  82.323   1.866  1.00  0.00     0.043 C 
HETATM    5  C5  UNL     1       6.838  82.255   3.063  1.00  0.00     0.045 C 
HETATM    6  C6  UNL     1       6.119  83.163   4.030  1.00  0.00     0.020 C 
HETATM    7  C7  UNL     1       4.680  82.791   3.742  1.00  0.00     0.007 C 
HETATM    8  C8  UNL     1       3.707  83.883   4.016  1.00  0.00     0.046 C 
HETATM    9  C9  UNL     1       3.074  83.867   5.358  1.00  0.00     0.276 C 
HETATM   10  N2  UNL     1       2.864  82.570   5.921  1.00  0.00     0.119 N 
HETATM   11  C10 UNL     1       2.011  81.714   5.164  1.00  0.00     0.275 C 
HETATM   12  C11 UNL     1       2.951  81.025   4.172  1.00  0.00     0.040 C 
HETATM   13  C12 UNL     1       4.315  81.556   4.467  1.00  0.00     0.062 C 
HETATM   14  C13 UNL     1       4.176  81.902   5.938  1.00  0.00     0.422 C 
ENDROOT
BRANCH   4  15
HETATM   15  C4  UNL     1       6.504  82.077   0.491  1.00  0.00     0.415 C 
HETATM   16  F1  UNL     1       6.218  80.807   0.091  1.00  0.00    -0.166 F 
HETATM   17  F2  UNL     1       6.079  82.961  -0.444  1.00  0.00    -0.166 F 
HETATM   18  F3  UNL     1       7.894  82.192   0.576  1.00  0.00    -0.166 F 
ENDBRANCH   4  15
BRANCH  14  19
HETATM   19  N3  UNL     1       4.100  80.728   6.765  1.00  0.00    -0.047 N 
ATOM     20  H33 UNL     1       5.004  80.475   7.164  1.00  0.00     0.276 HD
ATOM     21  H32 UNL     1       3.601  80.900   7.638  1.00  0.00     0.276 HD
ATOM     22  H31 UNL     1       3.687  79.966   6.228  1.00  0.00     0.276 HD
ENDBRANCH  14  19
TORSDOF 2
ENDMDL
MODEL 4
REMARK VINA RESULT: -7.166779836      1.876      2.421
REMARK  2 active torsions:
REMARK  status: ('A' for Active; 'I' for Inactive)
REMARK    1  A    between atoms: C3_4  and  C4_5 
REMARK    2  A    between atoms: C13_18  and  N3_19 
ROOT
HETATM    1  N1  UNL     1       3.306  83.710   3.428  1.00  0.00    -0.192 NA
HETATM    2  C1  UNL     1       4.187  83.260   2.789  1.00  0.00     0.096 C 
HETATM    3  C2  UNL     1       5.277  82.709   2.034  1.00  0.00     0.042 C 
HETATM    4  C3  UNL     1       5.148  82.464   0.748  1.00  0.00     0.043 C 
HETATM    5  C5  UNL     1       6.413  81.891   0.253  1.00  0.00     0.045 C 
HETATM    6  C6  UNL     1       7.426  82.458   1.217  1.00  0.00     0.020 C 
HETATM    7  C7  UNL     1       6.658  82.353   2.518  1.00  0.00     0.007 C 
HETATM    8  C8  UNL     1       7.054  83.362   3.538  1.00  0.00     0.046 C 
HETATM    9  C9  UNL     1       8.082  82.929   4.516  1.00  0.00     0.276 C 
HETATM   10  N2  UNL     1       8.051  81.542   4.864  1.00  0.00     0.119 N 
HETATM   11  C10 UNL     1       6.837  81.099   5.469  1.00  0.00     0.275 C 
HETATM   12  C11 UNL     1       5.941  80.723   4.287  1.00  0.00     0.040 C 
HETATM   13  C12 UNL     1       6.754  80.981   3.060  1.00  0.00     0.062 C 
HETATM   14  C13 UNL     1       8.159  80.791   3.602  1.00  0.00     0.422 C 
ENDROOT
BRANCH   4  15
HETATM   15  C4  UNL     1       3.966  82.677  -0.137  1.00  0.00     0.415 C 
HETATM   16  F1  UNL     1       4.179  82.121  -1.362  1.00  0.00    -0.166 F 
HETATM   17  F2  UNL     1       2.790  82.235   0.371  1.00  0.00    -0.166 F 
HETATM   18  F3  UNL     1       3.854  84.059  -0.313  1.00  0.00    -0.166 F 
ENDBRANCH   4  15
BRANCH  14  19
HETATM   19  N3  UNL     1       8.443  79.411   3.896  1.00  0.00    -0.047 N 
ATOM     20  H33 UNL     1       7.604  78.888   4.144  1.00  0.00     0.276 HD
ATOM     21  H32 UNL     1       8.700  78.883   3.062  1.00  0.00     0.276 HD
ATOM     22  H31 UNL     1       9.158  79.363   4.621  1.00  0.00     0.276 HD
ENDBRANCH  14  19
TORSDOF 2
ENDMDL
MODEL 5
REMARK VINA RESULT: -6.959961977      2.135      3.570
REMARK  2 active torsions:
REMARK  status: ('A' for Active; 'I' for Inactive)
REMARK    1  A    between atoms: C3_4  and  C4_5 
REMARK    2  A    between atoms: C13_18  and  N3_19 
ROOT
HETATM    1  N1  UNL     1       7.540  82.249  -0.124  1.00  0.00    -0.192 NA
HETATM    2  C1  UNL     1       6.662  82.233   0.661  1.00  0.00     0.096 C 
HETATM    3  C2  UNL     1       5.610  82.204   1.637  1.00  0.00     0.042 C 
HETATM    4  C3  UNL     1       4.417  82.681   1.355  1.00  0.00     0.043 C 
HETATM    5  C5  UNL     1       3.560  82.531   2.545  1.00  0.00     0.045 C 
HETATM    6  C6  UNL     1       4.188  81.354   3.250  1.00  0.00     0.020 C 
HETATM    7  C7  UNL     1       5.657  81.655   3.039  1.00  0.00     0.007 C 
HETATM    8  C8  UNL     1       6.526  80.448   3.024  1.00  0.00     0.046 C 
HETATM    9  C9  UNL     1       7.149  80.079   4.318  1.00  0.00     0.276 C 
HETATM   10  N2  UNL     1       7.471  81.175   5.178  1.00  0.00     0.119 N 
HETATM   11  C10 UNL     1       8.403  82.111   4.639  1.00  0.00     0.275 C 
HETATM   12  C11 UNL     1       7.536  83.102   3.860  1.00  0.00     0.040 C 
HETATM   13  C12 UNL     1       6.127  82.638   4.038  1.00  0.00     0.062 C 
HETATM   14  C13 UNL     1       6.224  81.932   5.378  1.00  0.00     0.422 C 
ENDROOT
BRANCH   4  15
HETATM   15  C4  UNL     1       3.927  83.301   0.089  1.00  0.00     0.415 C 
HETATM   16  F1  UNL     1       4.650  84.416  -0.208  1.00  0.00    -0.166 F 
HETATM   17  F2  UNL     1       3.905  82.468  -0.979  1.00  0.00    -0.166 F 
HETATM   18  F3  UNL     1       2.611  83.702   0.335  1.00  0.00    -0.166 F 
ENDBRANCH   4  15
BRANCH  14  19
HETATM   19  N3  UNL     1       6.401  82.858   6.465  1.00  0.00    -0.047 N 
ATOM     20  H33 UNL     1       5.589  83.462   6.595  1.00  0.00     0.276 HD
ATOM     21  H32 UNL     1       6.383  82.396   7.374  1.00  0.00     0.276 HD
ATOM     22  H31 UNL     1       7.258  83.389   6.318  1.00  0.00     0.276 HD
ENDBRANCH  14  19
TORSDOF 2
ENDMDL
