MODEL 1
REMARK VINA RESULT: -7.277941145      0.000      0.000
REMARK  9 active torsions:
REMARK  status: ('A' for Active; 'I' for Inactive)
REMARK    1  A    between atoms: O1_2  and  C2_3 
REMARK    2  A    between atoms: C2_3  and  C3_4 
REMARK    3  A    between atoms: N1_7  and  C6_8 
REMARK    4  A    between atoms: C6_8  and  C7_9 
REMARK    5  A    between atoms: C7_9  and  C8_10 
REMARK    6  A    between atoms: C8_10  and  N2_11 
REMARK       I    between atoms: N2_11  and  C9_13 
REMARK    7  A    between atoms: N4_15  and  C10_17 
REMARK    8  A    between atoms: C11_20  and  N6_21 
REMARK    9  A    between atoms: N8_26  and  O2_27 
ROOT
HETATM    1  N2  UNL     1     -14.898 -27.704  11.132  1.00  0.00    -0.364 N 
ATOM      2  H2  UNL     1     -13.955 -28.092  11.158  1.00  0.00     0.162 HD
HETATM    3  C9  UNL     1     -15.067 -26.297  11.184  1.00  0.00     0.202 C 
HETATM    4  N3  UNL     1     -16.065 -25.691  10.407  1.00  0.00    -0.063 NA
HETATM    5  N4  UNL     1     -14.300 -25.609  11.942  1.00  0.00    -0.160 N 
ATOM      6  H4  UNL     1     -14.412 -24.596  11.987  1.00  0.00     0.187 HD
ENDROOT
BRANCH   1   7
HETATM    7  C8  UNL     1     -16.023 -28.605  11.042  1.00  0.00     0.124 C 
BRANCH   7   8
HETATM    8  C7  UNL     1     -16.053 -29.477  12.261  1.00  0.00     0.040 C 
BRANCH   8   9
HETATM    9  C6  UNL     1     -16.660 -30.817  11.909  1.00  0.00     0.129 C 
BRANCH   9  10
HETATM   10  N1  UNL     1     -15.649 -31.589  11.191  1.00  0.00    -0.366 N 
HETATM   11  C5  UNL     1     -14.437 -31.852  11.695  1.00  0.00     0.091 A 
HETATM   12  C4  UNL     1     -13.519 -32.583  10.982  1.00  0.00     0.026 A 
HETATM   13  C3  UNL     1     -13.819 -33.067   9.727  1.00  0.00    -0.032 A 
HETATM   14  C13 UNL     1     -15.089 -32.769   9.245  1.00  0.00     0.026 A 
HETATM   15  C12 UNL     1     -15.981 -32.042   9.974  1.00  0.00     0.091 A 
BRANCH  13  16
HETATM   16  C2  UNL     1     -12.833 -33.844   8.953  1.00  0.00     0.205 C 
BRANCH  16  17
HETATM   17  O1  UNL     1     -11.678 -33.157   8.627  1.00  0.00    -0.391 OA
HETATM   18  C1  UNL     1     -11.887 -32.436   7.462  1.00  0.00     0.201 C 
ENDBRANCH  16  17
ENDBRANCH  13  16
ENDBRANCH   9  10
ENDBRANCH   8   9
ENDBRANCH   7   8
ENDBRANCH   1   7
BRANCH   5  19
HETATM   19  C10 UNL     1     -13.294 -26.241  12.721  1.00  0.00     0.741 A 
HETATM   20  N5  UNL     1     -13.425 -27.088  13.751  1.00  0.00    -0.018 N 
HETATM   21  C11 UNL     1     -12.227 -27.470  14.227  1.00  0.00     0.707 A 
ATOM     22  H5  UNL     1     -14.320 -27.403  14.126  1.00  0.00     0.203 HD
HETATM   23  N7  UNL     1     -11.326 -26.829  13.453  1.00  0.00    -0.090 N 
HETATM   24  N8  UNL     1     -11.949 -26.091  12.551  1.00  0.00     0.031 N 
ATOM     25  H7  UNL     1     -10.312 -26.903  13.550  1.00  0.00     0.209 HD
BRANCH  21  26
HETATM   26  N6  UNL     1     -11.983 -28.279  15.213  1.00  0.00    -0.233 N 
ATOM     27  H62 UNL     1     -12.642 -28.903  15.679  1.00  0.00     0.174 HD
ATOM     28  H61 UNL     1     -11.095 -28.431  15.693  1.00  0.00     0.174 HD
ENDBRANCH  21  26
BRANCH  24  29
HETATM   29  O2  UNL     1     -11.408 -25.289  11.578  1.00  0.00    -0.254 OA
ATOM     30  H2  UNL     1     -10.862 -24.537  11.776  1.00  0.00     0.247 HD
ENDBRANCH  24  29
ENDBRANCH   5  19
TORSDOF 9
ENDMDL
MODEL 2
REMARK VINA RESULT: -7.180086962      1.075      1.278
REMARK  9 active torsions:
REMARK  status: ('A' for Active; 'I' for Inactive)
REMARK    1  A    between atoms: O1_2  and  C2_3 
REMARK    2  A    between atoms: C2_3  and  C3_4 
REMARK    3  A    between atoms: N1_7  and  C6_8 
REMARK    4  A    between atoms: C6_8  and  C7_9 
REMARK    5  A    between atoms: C7_9  and  C8_10 
REMARK    6  A    between atoms: C8_10  and  N2_11 
REMARK       I    between atoms: N2_11  and  C9_13 
REMARK    7  A    between atoms: N4_15  and  C10_17 
REMARK    8  A    between atoms: C11_20  and  N6_21 
REMARK    9  A    between atoms: N8_26  and  O2_27 
ROOT
HETATM    1  N2  UNL     1     -15.005 -27.759  11.220  1.00  0.00    -0.364 N 
ATOM      2  H2  UNL     1     -14.086 -28.198  11.273  1.00  0.00     0.162 HD
HETATM    3  C9  UNL     1     -15.088 -26.347  11.121  1.00  0.00     0.202 C 
HETATM    4  N3  UNL     1     -16.067 -25.769  10.298  1.00  0.00    -0.063 NA
HETATM    5  N4  UNL     1     -14.265 -25.629  11.785  1.00  0.00    -0.160 N 
ATOM      6  H4  UNL     1     -14.316 -24.612  11.721  1.00  0.00     0.187 HD
ENDROOT
BRANCH   1   7
HETATM    7  C8  UNL     1     -16.183 -28.593  11.249  1.00  0.00     0.124 C 
BRANCH   7   8
HETATM    8  C7  UNL     1     -16.122 -29.490  12.450  1.00  0.00     0.040 C 
BRANCH   8   9
HETATM    9  C6  UNL     1     -16.691 -30.845  12.097  1.00  0.00     0.129 C 
BRANCH   9  10
HETATM   10  N1  UNL     1     -15.681 -31.568  11.329  1.00  0.00    -0.366 N 
HETATM   11  C5  UNL     1     -14.465 -31.857  11.812  1.00  0.00     0.091 A 
HETATM   12  C4  UNL     1     -13.547 -32.538  11.052  1.00  0.00     0.026 A 
HETATM   13  C3  UNL     1     -13.850 -32.944   9.770  1.00  0.00    -0.032 A 
HETATM   14  C13 UNL     1     -15.123 -32.623   9.311  1.00  0.00     0.026 A 
HETATM   15  C12 UNL     1     -16.015 -31.946  10.087  1.00  0.00     0.091 A 
BRANCH  13  16
HETATM   16  C2  UNL     1     -12.863 -33.668   8.946  1.00  0.00     0.205 C 
BRANCH  16  17
HETATM   17  O1  UNL     1     -11.738 -32.939   8.612  1.00  0.00    -0.391 OA
HETATM   18  C1  UNL     1     -11.967 -32.260   7.425  1.00  0.00     0.201 C 
ENDBRANCH  16  17
ENDBRANCH  13  16
ENDBRANCH   9  10
ENDBRANCH   8   9
ENDBRANCH   7   8
ENDBRANCH   1   7
BRANCH   5  19
HETATM   19  C10 UNL     1     -13.280 -26.233  12.612  1.00  0.00     0.741 A 
HETATM   20  N5  UNL     1     -12.100 -26.770  12.272  1.00  0.00    -0.018 N 
HETATM   21  C11 UNL     1     -11.450 -27.245  13.350  1.00  0.00     0.707 A 
ATOM     22  H5  UNL     1     -11.741 -26.814  11.319  1.00  0.00     0.203 HD
HETATM   23  N7  UNL     1     -12.268 -26.985  14.392  1.00  0.00    -0.090 N 
HETATM   24  N8  UNL     1     -13.365 -26.382  13.965  1.00  0.00     0.031 N 
ATOM     25  H7  UNL     1     -12.070 -27.219  15.365  1.00  0.00     0.209 HD
BRANCH  21  26
HETATM   26  N6  UNL     1     -10.289 -27.825  13.388  1.00  0.00    -0.233 N 
ATOM     27  H62 UNL     1      -9.418 -27.495  12.970  1.00  0.00     0.174 HD
ATOM     28  H61 UNL     1     -10.045 -28.708  13.838  1.00  0.00     0.174 HD
ENDBRANCH  21  26
BRANCH  24  29
HETATM   29  O2  UNL     1     -14.444 -25.950  14.694  1.00  0.00    -0.254 OA
ATOM     30  H2  UNL     1     -14.368 -25.628  15.585  1.00  0.00     0.247 HD
ENDBRANCH  24  29
ENDBRANCH   5  19
TORSDOF 9
ENDMDL
MODEL 3
REMARK VINA RESULT: -7.002264068      3.088      5.428
REMARK  9 active torsions:
REMARK  status: ('A' for Active; 'I' for Inactive)
REMARK    1  A    between atoms: O1_2  and  C2_3 
REMARK    2  A    between atoms: C2_3  and  C3_4 
REMARK    3  A    between atoms: N1_7  and  C6_8 
REMARK    4  A    between atoms: C6_8  and  C7_9 
REMARK    5  A    between atoms: C7_9  and  C8_10 
REMARK    6  A    between atoms: C8_10  and  N2_11 
REMARK       I    between atoms: N2_11  and  C9_13 
REMARK    7  A    between atoms: N4_15  and  C10_17 
REMARK    8  A    between atoms: C11_20  and  N6_21 
REMARK    9  A    between atoms: N8_26  and  O2_27 
ROOT
HETATM    1  N2  UNL     1     -16.420 -30.477  11.197  1.00  0.00    -0.364 N 
ATOM      2  H2  UNL     1     -15.825 -29.750  11.596  1.00  0.00     0.162 HD
HETATM    3  C9  UNL     1     -16.481 -30.620   9.788  1.00  0.00     0.202 C 
HETATM    4  N3  UNL     1     -16.547 -31.904   9.226  1.00  0.00    -0.063 NA
HETATM    5  N4  UNL     1     -16.473 -29.571   9.057  1.00  0.00    -0.160 N 
ATOM      6  H4  UNL     1     -16.516 -29.662   8.042  1.00  0.00     0.187 HD
ENDROOT
BRANCH   1   7
HETATM    7  C8  UNL     1     -17.173 -31.329  12.085  1.00  0.00     0.124 C 
BRANCH   7   8
HETATM    8  C7  UNL     1     -16.629 -31.197  13.476  1.00  0.00     0.040 C 
BRANCH   8   9
HETATM    9  C6  UNL     1     -15.296 -31.903  13.566  1.00  0.00     0.129 C 
BRANCH   9  10
HETATM   10  N1  UNL     1     -14.259 -30.884  13.707  1.00  0.00    -0.366 N 
HETATM   11  C5  UNL     1     -14.399 -29.804  14.487  1.00  0.00     0.091 A 
HETATM   12  C4  UNL     1     -13.396 -28.871  14.587  1.00  0.00     0.026 A 
HETATM   13  C3  UNL     1     -12.217 -29.021  13.889  1.00  0.00    -0.032 A 
HETATM   14  C13 UNL     1     -12.117 -30.157  13.094  1.00  0.00     0.026 A 
HETATM   15  C12 UNL     1     -13.128 -31.066  13.012  1.00  0.00     0.091 A 
BRANCH  13  16
HETATM   16  C2  UNL     1     -11.141 -28.016  13.987  1.00  0.00     0.205 C 
BRANCH  16  17
HETATM   17  O1  UNL     1     -10.772 -27.441  12.786  1.00  0.00    -0.391 OA
HETATM   18  C1  UNL     1     -11.471 -26.256  12.612  1.00  0.00     0.201 C 
ENDBRANCH  16  17
ENDBRANCH  13  16
ENDBRANCH   9  10
ENDBRANCH   8   9
ENDBRANCH   7   8
ENDBRANCH   1   7
BRANCH   5  19
HETATM   19  C10 UNL     1     -16.404 -28.279   9.645  1.00  0.00     0.741 A 
HETATM   20  N5  UNL     1     -15.341 -27.624  10.133  1.00  0.00    -0.018 N 
HETATM   21  C11 UNL     1     -15.687 -26.414  10.608  1.00  0.00     0.707 A 
ATOM     22  H5  UNL     1     -14.391 -27.995  10.142  1.00  0.00     0.203 HD
HETATM   23  N7  UNL     1     -17.018 -26.328  10.401  1.00  0.00    -0.090 N 
HETATM   24  N8  UNL     1     -17.459 -27.434   9.828  1.00  0.00     0.031 N 
ATOM     25  H7  UNL     1     -17.599 -25.526  10.650  1.00  0.00     0.209 HD
BRANCH  21  26
HETATM   26  N6  UNL     1     -14.915 -25.520  11.148  1.00  0.00    -0.233 N 
ATOM     27  H62 UNL     1     -13.994 -25.222  10.825  1.00  0.00     0.174 HD
ATOM     28  H61 UNL     1     -15.092 -24.964  11.984  1.00  0.00     0.174 HD
ENDBRANCH  21  26
BRANCH  24  29
HETATM   29  O2  UNL     1     -18.739 -27.752   9.450  1.00  0.00    -0.254 OA
ATOM     30  H2  UNL     1     -19.185 -28.535   9.751  1.00  0.00     0.247 HD
ENDBRANCH  24  29
ENDBRANCH   5  19
TORSDOF 9
ENDMDL
MODEL 4
REMARK VINA RESULT: -6.993089096      3.326      4.829
REMARK  9 active torsions:
REMARK  status: ('A' for Active; 'I' for Inactive)
REMARK    1  A    between atoms: O1_2  and  C2_3 
REMARK    2  A    between atoms: C2_3  and  C3_4 
REMARK    3  A    between atoms: N1_7  and  C6_8 
REMARK    4  A    between atoms: C6_8  and  C7_9 
REMARK    5  A    between atoms: C7_9  and  C8_10 
REMARK    6  A    between atoms: C8_10  and  N2_11 
REMARK       I    between atoms: N2_11  and  C9_13 
REMARK    7  A    between atoms: N4_15  and  C10_17 
REMARK    8  A    between atoms: C11_20  and  N6_21 
REMARK    9  A    between atoms: N8_26  and  O2_27 
ROOT
HETATM    1  N2  UNL     1     -14.900 -27.883  11.247  1.00  0.00    -0.364 N 
ATOM      2  H2  UNL     1     -13.955 -28.265  11.280  1.00  0.00     0.162 HD
HETATM    3  C9  UNL     1     -15.072 -26.476  11.196  1.00  0.00     0.202 C 
HETATM    4  N3  UNL     1     -16.090 -25.933  10.397  1.00  0.00    -0.063 NA
HETATM    5  N4  UNL     1     -14.291 -25.730  11.880  1.00  0.00    -0.160 N 
ATOM      6  H4  UNL     1     -14.406 -24.717  11.851  1.00  0.00     0.187 HD
ENDROOT
BRANCH   1   7
HETATM    7  C8  UNL     1     -16.022 -28.789  11.252  1.00  0.00     0.124 C 
BRANCH   7   8
HETATM    8  C7  UNL     1     -15.882 -29.754  10.112  1.00  0.00     0.040 C 
BRANCH   8   9
HETATM    9  C6  UNL     1     -17.184 -29.821   9.345  1.00  0.00     0.129 C 
BRANCH   9  10
HETATM   10  N1  UNL     1     -17.179 -28.741   8.362  1.00  0.00    -0.366 N 
HETATM   11  C5  UNL     1     -16.148 -28.507   7.540  1.00  0.00     0.091 A 
HETATM   12  C4  UNL     1     -16.188 -27.477   6.632  1.00  0.00     0.026 A 
HETATM   13  C3  UNL     1     -17.292 -26.657   6.540  1.00  0.00    -0.032 A 
HETATM   14  C13 UNL     1     -18.338 -26.938   7.413  1.00  0.00     0.026 A 
HETATM   15  C12 UNL     1     -18.270 -27.965   8.305  1.00  0.00     0.091 A 
BRANCH  13  16
HETATM   16  C2  UNL     1     -17.336 -25.544   5.573  1.00  0.00     0.205 C 
BRANCH  16  17
HETATM   17  O1  UNL     1     -16.114 -25.198   5.028  1.00  0.00    -0.391 OA
HETATM   18  C1  UNL     1     -15.691 -23.998   5.578  1.00  0.00     0.201 C 
ENDBRANCH  16  17
ENDBRANCH  13  16
ENDBRANCH   9  10
ENDBRANCH   8   9
ENDBRANCH   7   8
ENDBRANCH   1   7
BRANCH   5  19
HETATM   19  C10 UNL     1     -13.265 -26.299  12.682  1.00  0.00     0.741 A 
HETATM   20  N5  UNL     1     -13.367 -27.134  13.725  1.00  0.00    -0.018 N 
HETATM   21  C11 UNL     1     -12.157 -27.449  14.221  1.00  0.00     0.707 A 
ATOM     22  H5  UNL     1     -14.250 -27.486  14.096  1.00  0.00     0.203 HD
HETATM   23  N7  UNL     1     -11.279 -26.778  13.446  1.00  0.00    -0.090 N 
HETATM   24  N8  UNL     1     -11.927 -26.087  12.524  1.00  0.00     0.031 N 
ATOM     25  H7  UNL     1     -10.265 -26.800  13.556  1.00  0.00     0.209 HD
BRANCH  21  26
HETATM   26  N6  UNL     1     -11.886 -28.228  15.225  1.00  0.00    -0.233 N 
ATOM     27  H62 UNL     1     -11.744 -27.956  16.198  1.00  0.00     0.174 HD
ATOM     28  H61 UNL     1     -11.767 -29.241  15.215  1.00  0.00     0.174 HD
ENDBRANCH  21  26
BRANCH  24  29
HETATM   29  O2  UNL     1     -11.414 -25.276  11.544  1.00  0.00    -0.254 OA
ATOM     30  H2  UNL     1     -11.028 -24.427  11.727  1.00  0.00     0.247 HD
ENDBRANCH  24  29
ENDBRANCH   5  19
TORSDOF 9
ENDMDL
MODEL 5
REMARK VINA RESULT: -6.963214043      3.109      4.959
REMARK  9 active torsions:
REMARK  status: ('A' for Active; 'I' for Inactive)
REMARK    1  A    between atoms: O1_2  and  C2_3 
REMARK    2  A    between atoms: C2_3  and  C3_4 
REMARK    3  A    between atoms: N1_7  and  C6_8 
REMARK    4  A    between atoms: C6_8  and  C7_9 
REMARK    5  A    between atoms: C7_9  and  C8_10 
REMARK    6  A    between atoms: C8_10  and  N2_11 
REMARK       I    between atoms: N2_11  and  C9_13 
REMARK    7  A    between atoms: N4_15  and  C10_17 
REMARK    8  A    between atoms: C11_20  and  N6_21 
REMARK    9  A    between atoms: N8_26  and  O2_27 
ROOT
HETATM    1  N2  UNL     1     -14.843 -29.292  11.385  1.00  0.00    -0.364 N 
ATOM      2  H2  UNL     1     -14.346 -28.593  10.834  1.00  0.00     0.162 HD
HETATM    3  C9  UNL     1     -15.575 -28.876  12.527  1.00  0.00     0.202 C 
HETATM    4  N3  UNL     1     -16.807 -29.482  12.817  1.00  0.00    -0.063 NA
HETATM    5  N4  UNL     1     -15.095 -27.952  13.269  1.00  0.00    -0.160 N 
ATOM      6  H4  UNL     1     -15.612 -27.645  14.092  1.00  0.00     0.187 HD
ENDROOT
BRANCH   1   7
HETATM    7  C8  UNL     1     -14.782 -30.676  10.981  1.00  0.00     0.124 C 
BRANCH   7   8
HETATM    8  C7  UNL     1     -15.177 -30.785   9.538  1.00  0.00     0.040 C 
BRANCH   8   9
HETATM    9  C6  UNL     1     -16.660 -30.524   9.398  1.00  0.00     0.129 C 
BRANCH   9  10
HETATM   10  N1  UNL     1     -16.825 -29.223   8.755  1.00  0.00    -0.366 N 
HETATM   11  C5  UNL     1     -17.618 -28.262   9.246  1.00  0.00     0.091 A 
HETATM   12  C4  UNL     1     -17.743 -27.054   8.605  1.00  0.00     0.026 A 
HETATM   13  C3  UNL     1     -17.054 -26.796   7.439  1.00  0.00    -0.032 A 
HETATM   14  C13 UNL     1     -16.243 -27.823   6.968  1.00  0.00     0.026 A 
HETATM   15  C12 UNL     1     -16.138 -29.011   7.624  1.00  0.00     0.091 A 
BRANCH  13  16
HETATM   16  C2  UNL     1     -17.192 -25.503   6.742  1.00  0.00     0.205 C 
BRANCH  16  17
HETATM   17  O1  UNL     1     -16.126 -24.639   6.903  1.00  0.00    -0.391 OA
HETATM   18  C1  UNL     1     -15.669 -24.237   5.657  1.00  0.00     0.201 C 
ENDBRANCH  16  17
ENDBRANCH  13  16
ENDBRANCH   9  10
ENDBRANCH   8   9
ENDBRANCH   7   8
ENDBRANCH   1   7
BRANCH   5  19
HETATM   19  C10 UNL     1     -13.846 -27.350  12.957  1.00  0.00     0.741 A 
HETATM   20  N5  UNL     1     -12.605 -27.792  13.203  1.00  0.00    -0.018 N 
HETATM   21  C11 UNL     1     -11.678 -26.929  12.750  1.00  0.00     0.707 A 
ATOM     22  H5  UNL     1     -12.391 -28.671  13.674  1.00  0.00     0.203 HD
HETATM   23  N7  UNL     1     -12.384 -25.917  12.204  1.00  0.00    -0.090 N 
HETATM   24  N8  UNL     1     -13.680 -26.155  12.321  1.00  0.00     0.031 N 
ATOM     25  H7  UNL     1     -11.979 -25.090  11.764  1.00  0.00     0.209 HD
BRANCH  21  26
HETATM   26  N6  UNL     1     -10.386 -27.039  12.819  1.00  0.00    -0.233 N 
ATOM     27  H62 UNL     1      -9.847 -27.579  13.496  1.00  0.00     0.174 HD
ATOM     28  H61 UNL     1      -9.688 -26.607  12.213  1.00  0.00     0.174 HD
ENDBRANCH  21  26
BRANCH  24  29
HETATM   29  O2  UNL     1     -14.734 -25.384  11.901  1.00  0.00    -0.254 OA
ATOM     30  H2  UNL     1     -15.619 -25.502  12.224  1.00  0.00     0.247 HD
ENDBRANCH  24  29
ENDBRANCH   5  19
TORSDOF 9
ENDMDL
