MODEL 1
REMARK VINA RESULT: -5.912304679      0.000      0.000
REMARK  9 active torsions:
REMARK  status: ('A' for Active; 'I' for Inactive)
REMARK    1  A    between atoms: C2_2  and  N1_3 
REMARK    2  A    between atoms: N1_3  and  C3_5 
REMARK    3  A    between atoms: C4_8  and  N3_9 
REMARK    4  A    between atoms: C5_14  and  N5_15 
REMARK    5  A    between atoms: N5_15  and  C6_17 
REMARK    6  A    between atoms: C6_17  and  C7_18 
REMARK    7  A    between atoms: C7_18  and  C8_19 
REMARK    8  A    between atoms: C8_19  and  C9_20 
REMARK    9  A    between atoms: C9_20  and  N6_21 
ROOT
HETATM    1  N6  UNL     1     -23.808  33.899 -13.146  1.00  0.00    -0.329 N 
ATOM      2  H6  UNL     1     -23.645  34.003 -12.145  1.00  0.00     0.171 HD
HETATM    3  C10 UNL     1     -25.133  33.949 -13.616  1.00  0.00     0.177 C 
HETATM    4  N7  UNL     1     -26.245  34.016 -13.995  1.00  0.00    -0.172 NA
ENDROOT
BRANCH   1   5
HETATM    5  C9  UNL     1     -22.675  33.708 -14.008  1.00  0.00     0.131 C 
BRANCH   5   6
HETATM    6  C8  UNL     1     -22.934  33.067 -15.325  1.00  0.00     0.022 C 
BRANCH   6   7
HETATM    7  C7  UNL     1     -22.826  31.593 -15.375  1.00  0.00     0.022 C 
BRANCH   7   8
HETATM    8  C6  UNL     1     -24.152  30.910 -15.669  1.00  0.00     0.138 C 
BRANCH   8   9
HETATM    9  N5  UNL     1     -24.592  30.026 -14.650  1.00  0.00    -0.225 N 
ATOM     10  H5  UNL     1     -23.877  29.420 -14.247  1.00  0.00     0.177 HD
BRANCH   9  11
HETATM   11  C5  UNL     1     -25.762  29.892 -14.176  1.00  0.00     0.707 A 
HETATM   12  N4  UNL     1     -26.220  28.813 -13.527  1.00  0.00    -0.022 N 
HETATM   13  C4  UNL     1     -27.483  28.723 -13.038  1.00  0.00     0.705 A 
ATOM     14  H4  UNL     1     -25.590  28.023 -13.393  1.00  0.00     0.203 HD
HETATM   15  N2  UNL     1     -28.322  29.744 -13.202  1.00  0.00    -0.022 N 
HETATM   16  C3  UNL     1     -27.908  30.840 -13.842  1.00  0.00     0.707 A 
ATOM     17  H2  UNL     1     -29.274  29.690 -12.840  1.00  0.00     0.203 HD
HETATM   18  N8  UNL     1     -26.638  30.917 -14.329  1.00  0.00    -0.022 N 
ATOM     19  H8  UNL     1     -26.339  31.761 -14.817  1.00  0.00     0.203 HD
BRANCH  13  20
HETATM   20  N3  UNL     1     -27.876  27.664 -12.420  1.00  0.00    -0.234 N 
ATOM     21  H32 UNL     1     -27.973  27.658 -11.405  1.00  0.00     0.174 HD
ATOM     22  H31 UNL     1     -28.094  26.820 -12.949  1.00  0.00     0.174 HD
ENDBRANCH  13  20
BRANCH  16  23
HETATM   23  N1  UNL     1     -28.708  31.830 -14.005  1.00  0.00    -0.225 N 
ATOM     24  H1  UNL     1     -28.897  32.197 -14.937  1.00  0.00     0.177 HD
BRANCH  23  25
HETATM   25  C2  UNL     1     -29.335  32.416 -12.842  1.00  0.00     0.133 C 
HETATM   26  C1  UNL     1     -30.840  32.149 -12.858  1.00  0.00     0.027 C 
ENDBRANCH  23  25
ENDBRANCH  16  23
ENDBRANCH   9  11
ENDBRANCH   8   9
ENDBRANCH   7   8
ENDBRANCH   6   7
ENDBRANCH   5   6
ENDBRANCH   1   5
TORSDOF 9
ENDMDL
MODEL 2
REMARK VINA RESULT: -5.866397999      1.584      5.438
REMARK  9 active torsions:
REMARK  status: ('A' for Active; 'I' for Inactive)
REMARK    1  A    between atoms: C2_2  and  N1_3 
REMARK    2  A    between atoms: N1_3  and  C3_5 
REMARK    3  A    between atoms: C4_8  and  N3_9 
REMARK    4  A    between atoms: C5_14  and  N5_15 
REMARK    5  A    between atoms: N5_15  and  C6_17 
REMARK    6  A    between atoms: C6_17  and  C7_18 
REMARK    7  A    between atoms: C7_18  and  C8_19 
REMARK    8  A    between atoms: C8_19  and  C9_20 
REMARK    9  A    between atoms: C9_20  and  N6_21 
ROOT
HETATM    1  N6  UNL     1     -27.817  29.132 -11.331  1.00  0.00    -0.329 N 
ATOM      2  H6  UNL     1     -27.159  28.693 -10.689  1.00  0.00     0.171 HD
HETATM    3  C10 UNL     1     -28.043  28.522 -12.578  1.00  0.00     0.177 C 
HETATM    4  N7  UNL     1     -28.238  27.986 -13.607  1.00  0.00    -0.172 NA
ENDROOT
BRANCH   1   5
HETATM    5  C9  UNL     1     -28.469  30.344 -10.919  1.00  0.00     0.131 C 
BRANCH   5   6
HETATM    6  C8  UNL     1     -27.690  31.604 -11.055  1.00  0.00     0.022 C 
BRANCH   6   7
HETATM    7  C7  UNL     1     -28.287  32.662 -11.898  1.00  0.00     0.022 C 
BRANCH   7   8
HETATM    8  C6  UNL     1     -28.599  32.192 -13.310  1.00  0.00     0.138 C 
BRANCH   8   9
HETATM    9  N5  UNL     1     -27.578  32.467 -14.257  1.00  0.00    -0.225 N 
ATOM     10  H5  UNL     1     -27.729  33.282 -14.851  1.00  0.00     0.177 HD
BRANCH   9  11
HETATM   11  C5  UNL     1     -26.499  31.828 -14.457  1.00  0.00     0.707 A 
HETATM   12  N4  UNL     1     -26.354  30.499 -14.374  1.00  0.00    -0.022 N 
HETATM   13  C4  UNL     1     -25.176  29.866 -14.600  1.00  0.00     0.705 A 
ATOM     14  H4  UNL     1     -27.169  29.937 -14.129  1.00  0.00     0.203 HD
HETATM   15  N2  UNL     1     -24.100  30.582 -14.922  1.00  0.00    -0.022 N 
HETATM   16  C3  UNL     1     -24.198  31.910 -15.017  1.00  0.00     0.707 A 
ATOM     17  H2  UNL     1     -23.208  30.120 -15.095  1.00  0.00     0.203 HD
HETATM   18  N8  UNL     1     -25.388  32.533 -14.786  1.00  0.00    -0.022 N 
ATOM     19  H8  UNL     1     -25.444  33.549 -14.862  1.00  0.00     0.203 HD
BRANCH  13  20
HETATM   20  N3  UNL     1     -25.088  28.585 -14.508  1.00  0.00    -0.234 N 
ATOM     21  H32 UNL     1     -24.328  28.079 -14.963  1.00  0.00     0.174 HD
ATOM     22  H31 UNL     1     -25.785  28.066 -13.974  1.00  0.00     0.174 HD
ENDBRANCH  13  20
BRANCH  16  23
HETATM   23  N1  UNL     1     -23.168  32.610 -15.328  1.00  0.00    -0.225 N 
ATOM     24  H1  UNL     1     -22.409  32.202 -15.873  1.00  0.00     0.177 HD
BRANCH  23  25
HETATM   25  C2  UNL     1     -23.105  33.986 -14.891  1.00  0.00     0.133 C 
HETATM   26  C1  UNL     1     -22.290  34.099 -13.603  1.00  0.00     0.027 C 
ENDBRANCH  23  25
ENDBRANCH  16  23
ENDBRANCH   9  11
ENDBRANCH   8   9
ENDBRANCH   7   8
ENDBRANCH   6   7
ENDBRANCH   5   6
ENDBRANCH   1   5
TORSDOF 9
ENDMDL
MODEL 3
REMARK VINA RESULT: -5.795054106      2.573      7.360
REMARK  9 active torsions:
REMARK  status: ('A' for Active; 'I' for Inactive)
REMARK    1  A    between atoms: C2_2  and  N1_3 
REMARK    2  A    between atoms: N1_3  and  C3_5 
REMARK    3  A    between atoms: C4_8  and  N3_9 
REMARK    4  A    between atoms: C5_14  and  N5_15 
REMARK    5  A    between atoms: N5_15  and  C6_17 
REMARK    6  A    between atoms: C6_17  and  C7_18 
REMARK    7  A    between atoms: C7_18  and  C8_19 
REMARK    8  A    between atoms: C8_19  and  C9_20 
REMARK    9  A    between atoms: C9_20  and  N6_21 
ROOT
HETATM    1  N6  UNL     1     -26.225  29.221 -13.228  1.00  0.00    -0.329 N 
ATOM      2  H6  UNL     1     -26.033  29.614 -12.307  1.00  0.00     0.171 HD
HETATM    3  C10 UNL     1     -27.447  28.556 -13.429  1.00  0.00     0.177 C 
HETATM    4  N7  UNL     1     -28.484  28.022 -13.587  1.00  0.00    -0.172 NA
ENDROOT
BRANCH   1   5
HETATM    5  C9  UNL     1     -25.234  29.374 -14.257  1.00  0.00     0.131 C 
BRANCH   5   6
HETATM    6  C8  UNL     1     -25.456  30.464 -15.245  1.00  0.00     0.022 C 
BRANCH   6   7
HETATM    7  C7  UNL     1     -24.312  30.808 -16.116  1.00  0.00     0.022 C 
BRANCH   7   8
HETATM    8  C6  UNL     1     -23.171  31.474 -15.364  1.00  0.00     0.138 C 
BRANCH   8   9
HETATM    9  N5  UNL     1     -23.499  32.736 -14.803  1.00  0.00    -0.225 N 
ATOM     10  H5  UNL     1     -24.471  33.030 -14.906  1.00  0.00     0.177 HD
BRANCH   9  11
HETATM   11  C5  UNL     1     -22.738  33.547 -14.191  1.00  0.00     0.707 A 
HETATM   12  N4  UNL     1     -22.875  34.879 -14.170  1.00  0.00    -0.022 N 
HETATM   13  C4  UNL     1     -22.032  35.702 -13.497  1.00  0.00     0.705 A 
ATOM     14  H4  UNL     1     -23.651  35.296 -14.686  1.00  0.00     0.203 HD
HETATM   15  N2  UNL     1     -21.013  35.178 -12.818  1.00  0.00    -0.022 N 
HETATM   16  C3  UNL     1     -20.837  33.855 -12.810  1.00  0.00     0.707 A 
ATOM     17  H2  UNL     1     -20.370  35.784 -12.307  1.00  0.00     0.203 HD
HETATM   18  N8  UNL     1     -21.692  33.041 -13.491  1.00  0.00    -0.022 N 
ATOM     19  H8  UNL     1     -21.542  32.032 -13.476  1.00  0.00     0.203 HD
BRANCH  13  20
HETATM   20  N3  UNL     1     -22.206  36.977 -13.507  1.00  0.00    -0.234 N 
ATOM     21  H32 UNL     1     -21.707  37.578 -12.851  1.00  0.00     0.174 HD
ATOM     22  H31 UNL     1     -22.851  37.395 -14.177  1.00  0.00     0.174 HD
ENDBRANCH  13  20
BRANCH  16  23
HETATM   23  N1  UNL     1     -19.859  33.340 -12.158  1.00  0.00    -0.225 N 
ATOM     24  H1  UNL     1     -19.960  32.433 -11.702  1.00  0.00     0.177 HD
BRANCH  23  25
HETATM   25  C2  UNL     1     -18.613  34.067 -12.082  1.00  0.00     0.133 C 
HETATM   26  C1  UNL     1     -17.855  33.693 -10.809  1.00  0.00     0.027 C 
ENDBRANCH  23  25
ENDBRANCH  16  23
ENDBRANCH   9  11
ENDBRANCH   8   9
ENDBRANCH   7   8
ENDBRANCH   6   7
ENDBRANCH   5   6
ENDBRANCH   1   5
TORSDOF 9
ENDMDL
MODEL 4
REMARK VINA RESULT: -5.762688112      1.581      2.807
REMARK  9 active torsions:
REMARK  status: ('A' for Active; 'I' for Inactive)
REMARK    1  A    between atoms: C2_2  and  N1_3 
REMARK    2  A    between atoms: N1_3  and  C3_5 
REMARK    3  A    between atoms: C4_8  and  N3_9 
REMARK    4  A    between atoms: C5_14  and  N5_15 
REMARK    5  A    between atoms: N5_15  and  C6_17 
REMARK    6  A    between atoms: C6_17  and  C7_18 
REMARK    7  A    between atoms: C7_18  and  C8_19 
REMARK    8  A    between atoms: C8_19  and  C9_20 
REMARK    9  A    between atoms: C9_20  and  N6_21 
ROOT
HETATM    1  N6  UNL     1     -24.023  30.391 -14.709  1.00  0.00    -0.329 N 
ATOM      2  H6  UNL     1     -23.575  29.957 -13.902  1.00  0.00     0.171 HD
HETATM    3  C10 UNL     1     -25.309  29.954 -15.075  1.00  0.00     0.177 C 
HETATM    4  N7  UNL     1     -26.393  29.593 -15.355  1.00  0.00    -0.172 NA
ENDROOT
BRANCH   1   5
HETATM    5  C9  UNL     1     -23.311  31.419 -15.416  1.00  0.00     0.131 C 
BRANCH   5   6
HETATM    6  C8  UNL     1     -23.576  32.824 -15.003  1.00  0.00     0.022 C 
BRANCH   6   7
HETATM    7  C7  UNL     1     -24.874  33.399 -15.416  1.00  0.00     0.022 C 
BRANCH   7   8
HETATM    8  C6  UNL     1     -25.686  33.935 -14.247  1.00  0.00     0.138 C 
BRANCH   8   9
HETATM    9  N5  UNL     1     -25.712  33.080 -13.114  1.00  0.00    -0.225 N 
ATOM     10  H5  UNL     1     -24.921  33.165 -12.475  1.00  0.00     0.177 HD
BRANCH   9  11
HETATM   11  C5  UNL     1     -26.593  32.224 -12.795  1.00  0.00     0.707 A 
HETATM   12  N4  UNL     1     -26.508  31.365 -11.770  1.00  0.00    -0.022 N 
HETATM   13  C4  UNL     1     -27.481  30.469 -11.471  1.00  0.00     0.705 A 
ATOM     14  H4  UNL     1     -25.670  31.385 -11.187  1.00  0.00     0.203 HD
HETATM   15  N2  UNL     1     -28.583  30.426 -12.220  1.00  0.00    -0.022 N 
HETATM   16  C3  UNL     1     -28.711  31.265 -13.250  1.00  0.00     0.707 A 
ATOM     17  H2  UNL     1     -29.323  29.758 -12.007  1.00  0.00     0.203 HD
HETATM   18  N8  UNL     1     -27.724  32.159 -13.540  1.00  0.00    -0.022 N 
ATOM     19  H8  UNL     1     -27.838  32.791 -14.332  1.00  0.00     0.203 HD
BRANCH  13  20
HETATM   20  N3  UNL     1     -27.353  29.664 -10.475  1.00  0.00    -0.234 N 
ATOM     21  H32 UNL     1     -26.455  29.554 -10.004  1.00  0.00     0.174 HD
ATOM     22  H31 UNL     1     -28.157  29.127 -10.151  1.00  0.00     0.174 HD
ENDBRANCH  13  20
BRANCH  16  23
HETATM   23  N1  UNL     1     -29.768  31.233 -13.977  1.00  0.00    -0.225 N 
ATOM     24  H1  UNL     1     -29.726  31.485 -14.965  1.00  0.00     0.177 HD
BRANCH  23  25
HETATM   25  C2  UNL     1     -31.017  30.834 -13.371  1.00  0.00     0.133 C 
HETATM   26  C1  UNL     1     -31.828  32.064 -12.964  1.00  0.00     0.027 C 
ENDBRANCH  23  25
ENDBRANCH  16  23
ENDBRANCH   9  11
ENDBRANCH   8   9
ENDBRANCH   7   8
ENDBRANCH   6   7
ENDBRANCH   5   6
ENDBRANCH   1   5
TORSDOF 9
ENDMDL
MODEL 5
REMARK VINA RESULT: -5.755963592      1.864      2.185
REMARK  9 active torsions:
REMARK  status: ('A' for Active; 'I' for Inactive)
REMARK    1  A    between atoms: C2_2  and  N1_3 
REMARK    2  A    between atoms: N1_3  and  C3_5 
REMARK    3  A    between atoms: C4_8  and  N3_9 
REMARK    4  A    between atoms: C5_14  and  N5_15 
REMARK    5  A    between atoms: N5_15  and  C6_17 
REMARK    6  A    between atoms: C6_17  and  C7_18 
REMARK    7  A    between atoms: C7_18  and  C8_19 
REMARK    8  A    between atoms: C8_19  and  C9_20 
REMARK    9  A    between atoms: C9_20  and  N6_21 
ROOT
HETATM    1  N6  UNL     1     -23.861  33.480 -15.053  1.00  0.00    -0.329 N 
ATOM      2  H6  UNL     1     -24.753  33.330 -14.582  1.00  0.00     0.171 HD
HETATM    3  C10 UNL     1     -23.649  34.705 -15.710  1.00  0.00     0.177 C 
HETATM    4  N7  UNL     1     -23.479  35.743 -16.236  1.00  0.00    -0.172 NA
ENDROOT
BRANCH   1   5
HETATM    5  C9  UNL     1     -22.882  32.429 -15.012  1.00  0.00     0.131 C 
BRANCH   5   6
HETATM    6  C8  UNL     1     -23.301  31.101 -15.536  1.00  0.00     0.022 C 
BRANCH   6   7
HETATM    7  C7  UNL     1     -24.682  31.002 -16.057  1.00  0.00     0.022 C 
BRANCH   7   8
HETATM    8  C6  UNL     1     -25.510  29.940 -15.351  1.00  0.00     0.138 C 
BRANCH   8   9
HETATM    9  N5  UNL     1     -25.579  30.095 -13.942  1.00  0.00    -0.225 N 
ATOM     10  H5  UNL     1     -24.691  30.033 -13.443  1.00  0.00     0.177 HD
BRANCH   9  11
HETATM   11  C5  UNL     1     -26.604  30.301 -13.223  1.00  0.00     0.707 A 
HETATM   12  N4  UNL     1     -26.633  30.277 -11.884  1.00  0.00    -0.022 N 
HETATM   13  C4  UNL     1     -27.759  30.506 -11.162  1.00  0.00     0.705 A 
ATOM     14  H4  UNL     1     -25.767  30.077 -11.383  1.00  0.00     0.203 HD
HETATM   15  N2  UNL     1     -28.900  30.770 -11.797  1.00  0.00    -0.022 N 
HETATM   16  C3  UNL     1     -28.918  30.804 -13.131  1.00  0.00     0.707 A 
ATOM     17  H2  UNL     1     -29.754  30.944 -11.268  1.00  0.00     0.203 HD
HETATM   18  N8  UNL     1     -27.780  30.572 -13.843  1.00  0.00    -0.022 N 
ATOM     19  H8  UNL     1     -27.812  30.601 -14.862  1.00  0.00     0.203 HD
BRANCH  13  20
HETATM   20  N3  UNL     1     -27.736  30.472  -9.876  1.00  0.00    -0.234 N 
ATOM     21  H32 UNL     1     -28.275  29.776  -9.361  1.00  0.00     0.174 HD
ATOM     22  H31 UNL     1     -27.172  31.149  -9.361  1.00  0.00     0.174 HD
ENDBRANCH  13  20
BRANCH  16  23
HETATM   23  N1  UNL     1     -30.011  31.058 -13.753  1.00  0.00    -0.225 N 
ATOM     24  H1  UNL     1     -30.142  30.754 -14.718  1.00  0.00     0.177 HD
BRANCH  23  25
HETATM   25  C2  UNL     1     -31.053  31.782 -13.062  1.00  0.00     0.133 C 
HETATM   26  C1  UNL     1     -32.425  31.214 -13.423  1.00  0.00     0.027 C 
ENDBRANCH  23  25
ENDBRANCH  16  23
ENDBRANCH   9  11
ENDBRANCH   8   9
ENDBRANCH   7   8
ENDBRANCH   6   7
ENDBRANCH   5   6
ENDBRANCH   1   5
TORSDOF 9
ENDMDL
