MODEL 1
REMARK VINA RESULT: -6.213506866      0.000      0.000
REMARK  8 active torsions:
REMARK  status: ('A' for Active; 'I' for Inactive)
REMARK    1  A    between atoms: N1_1  and  C1_5 
REMARK    2  A    between atoms: C1_5  and  C2_6 
REMARK    3  A    between atoms: C2_6  and  C3_7 
REMARK    4  A    between atoms: C3_7  and  N2_8 
REMARK    5  A    between atoms: N2_8  and  C4_10 
REMARK    6  A    between atoms: C4_10  and  C5_11 
REMARK    7  A    between atoms: C8_21  and  O1_22 
REMARK    8  A    between atoms: C9_24  and  N7_25 
ROOT
HETATM    1  C5  UNL     1      39.276  29.255  11.500  1.00  0.00     0.134 C 
HETATM    2  N3  UNL     1      38.314  28.402  10.876  1.00  0.00    -0.365 N 
ATOM      3  H3  UNL     1      38.321  28.226   9.871  1.00  0.00     0.161 HD
HETATM    4  C6  UNL     1      37.336  27.807  11.747  1.00  0.00     0.141 A 
HETATM    5  N4  UNL     1      36.655  26.629  11.700  1.00  0.00    -0.268 N 
ATOM      6  H4  UNL     1      36.726  25.910  10.980  1.00  0.00     0.186 HD
HETATM    7  N5  UNL     1      35.874  26.600  12.788  1.00  0.00    -0.021 NA
HETATM    8  N6  UNL     1      36.052  27.705  13.491  1.00  0.00    -0.282 N 
ATOM      9  H6  UNL     1      35.577  27.931  14.365  1.00  0.00     0.184 HD
HETATM   10  C7  UNL     1      36.961  28.488  12.871  1.00  0.00     0.099 A 
HETATM   11  C8  UNL     1      37.517  29.803  13.210  1.00  0.00     0.205 C 
HETATM   12  C9  UNL     1      38.688  30.245  12.435  1.00  0.00     0.242 C 
ENDROOT
BRANCH   1  13
HETATM   13  C4  UNL     1      40.112  29.941  10.408  1.00  0.00     0.146 C 
BRANCH  13  14
HETATM   14  N2  UNL     1      39.857  29.413   9.143  1.00  0.00    -0.400 N 
ATOM     15  H2  UNL     1      38.928  29.068   8.897  1.00  0.00     0.158 HD
BRANCH  14  16
HETATM   16  C3  UNL     1      40.906  29.367   8.221  1.00  0.00     0.057 C 
BRANCH  16  17
HETATM   17  C2  UNL     1      40.937  28.410   7.112  1.00  0.00     0.071 C 
BRANCH  17  18
HETATM   18  C1  UNL     1      41.603  27.103   7.244  1.00  0.00     0.234 C 
BRANCH  18  19
HETATM   19  N1  UNL     1      40.571  26.195   7.854  1.00  0.00    -0.079 N 
ATOM     20  H13 UNL     1      40.082  26.603   8.649  1.00  0.00     0.274 HD
ATOM     21  H12 UNL     1      39.748  26.055   7.268  1.00  0.00     0.274 HD
ATOM     22  H11 UNL     1      41.071  25.333   8.075  1.00  0.00     0.274 HD
ENDBRANCH  18  19
ENDBRANCH  17  18
ENDBRANCH  16  17
ENDBRANCH  14  16
ENDBRANCH  13  14
ENDBRANCH   1  13
BRANCH  12  23
HETATM   23  N7  UNL     1      39.790  30.694  13.304  1.00  0.00    -0.070 N 
ATOM     24  H73 UNL     1      39.478  31.252  14.099  1.00  0.00     0.274 HD
ATOM     25  H72 UNL     1      40.216  29.939  13.842  1.00  0.00     0.274 HD
ATOM     26  H71 UNL     1      40.449  31.183  12.699  1.00  0.00     0.274 HD
ENDBRANCH  12  23
BRANCH  11  27
HETATM   27  O1  UNL     1      37.738  29.871  14.612  1.00  0.00    -0.387 OA
ATOM     28  H1  UNL     1      38.669  29.799  14.786  1.00  0.00     0.210 HD
ENDBRANCH  11  27
TORSDOF 8
ENDMDL
MODEL 2
REMARK VINA RESULT: -6.197041089      0.915      1.055
REMARK  8 active torsions:
REMARK  status: ('A' for Active; 'I' for Inactive)
REMARK    1  A    between atoms: N1_1  and  C1_5 
REMARK    2  A    between atoms: C1_5  and  C2_6 
REMARK    3  A    between atoms: C2_6  and  C3_7 
REMARK    4  A    between atoms: C3_7  and  N2_8 
REMARK    5  A    between atoms: N2_8  and  C4_10 
REMARK    6  A    between atoms: C4_10  and  C5_11 
REMARK    7  A    between atoms: C8_21  and  O1_22 
REMARK    8  A    between atoms: C9_24  and  N7_25 
ROOT
HETATM    1  C5  UNL     1      39.239  29.250  11.508  1.00  0.00     0.134 C 
HETATM    2  N3  UNL     1      38.279  28.390  10.892  1.00  0.00    -0.365 N 
ATOM      3  H3  UNL     1      38.285  28.205   9.889  1.00  0.00     0.161 HD
HETATM    4  C6  UNL     1      37.303  27.800  11.769  1.00  0.00     0.141 A 
HETATM    5  N4  UNL     1      36.625  26.620  11.733  1.00  0.00    -0.268 N 
ATOM      6  H4  UNL     1      36.696  25.896  11.019  1.00  0.00     0.186 HD
HETATM    7  N5  UNL     1      35.844  26.599  12.822  1.00  0.00    -0.021 NA
HETATM    8  N6  UNL     1      36.021  27.710  13.515  1.00  0.00    -0.282 N 
ATOM      9  H6  UNL     1      35.546  27.943  14.388  1.00  0.00     0.184 HD
HETATM   10  C7  UNL     1      36.927  28.490  12.888  1.00  0.00     0.099 A 
HETATM   11  C8  UNL     1      37.481  29.809  13.215  1.00  0.00     0.205 C 
HETATM   12  C9  UNL     1      38.650  30.248  12.435  1.00  0.00     0.242 C 
ENDROOT
BRANCH   1  13
HETATM   13  C4  UNL     1      40.072  29.929  10.410  1.00  0.00     0.146 C 
BRANCH  13  14
HETATM   14  N2  UNL     1      41.394  29.484  10.404  1.00  0.00    -0.400 N 
ATOM     15  H2  UNL     1      41.796  29.029  11.224  1.00  0.00     0.158 HD
BRANCH  14  16
HETATM   16  C3  UNL     1      42.154  29.678   9.247  1.00  0.00     0.057 C 
BRANCH  16  17
HETATM   17  C2  UNL     1      41.553  30.063   7.968  1.00  0.00     0.071 C 
BRANCH  17  18
HETATM   18  C1  UNL     1      41.493  29.123   6.834  1.00  0.00     0.234 C 
BRANCH  18  19
HETATM   19  N1  UNL     1      40.437  28.121   7.208  1.00  0.00    -0.079 N 
ATOM     20  H13 UNL     1      40.673  27.160   6.959  1.00  0.00     0.274 HD
ATOM     21  H12 UNL     1      40.355  27.964   8.213  1.00  0.00     0.274 HD
ATOM     22  H11 UNL     1      39.579  28.460   6.772  1.00  0.00     0.274 HD
ENDBRANCH  18  19
ENDBRANCH  17  18
ENDBRANCH  16  17
ENDBRANCH  14  16
ENDBRANCH  13  14
ENDBRANCH   1  13
BRANCH  12  23
HETATM   23  N7  UNL     1      39.752  30.706  13.299  1.00  0.00    -0.070 N 
ATOM     24  H73 UNL     1      40.519  31.139  12.785  1.00  0.00     0.274 HD
ATOM     25  H72 UNL     1      39.510  31.517  13.868  1.00  0.00     0.274 HD
ATOM     26  H71 UNL     1      40.038  29.896  13.849  1.00  0.00     0.274 HD
ENDBRANCH  12  23
BRANCH  11  27
HETATM   27  O1  UNL     1      37.703  29.890  14.616  1.00  0.00    -0.387 OA
ATOM     28  H1  UNL     1      38.517  29.448  14.830  1.00  0.00     0.210 HD
ENDBRANCH  11  27
TORSDOF 8
ENDMDL
MODEL 3
REMARK VINA RESULT: -6.146527411      1.274      1.538
REMARK  8 active torsions:
REMARK  status: ('A' for Active; 'I' for Inactive)
REMARK    1  A    between atoms: N1_1  and  C1_5 
REMARK    2  A    between atoms: C1_5  and  C2_6 
REMARK    3  A    between atoms: C2_6  and  C3_7 
REMARK    4  A    between atoms: C3_7  and  N2_8 
REMARK    5  A    between atoms: N2_8  and  C4_10 
REMARK    6  A    between atoms: C4_10  and  C5_11 
REMARK    7  A    between atoms: C8_21  and  O1_22 
REMARK    8  A    between atoms: C9_24  and  N7_25 
ROOT
HETATM    1  C5  UNL     1      39.313  29.269  11.523  1.00  0.00     0.134 C 
HETATM    2  N3  UNL     1      38.339  28.423  10.908  1.00  0.00    -0.365 N 
ATOM      3  H3  UNL     1      38.347  28.229   9.907  1.00  0.00     0.161 HD
HETATM    4  C6  UNL     1      37.345  27.862  11.785  1.00  0.00     0.141 A 
HETATM    5  N4  UNL     1      36.643  26.696  11.754  1.00  0.00    -0.268 N 
ATOM      6  H4  UNL     1      36.704  25.964  11.047  1.00  0.00     0.186 HD
HETATM    7  N5  UNL     1      35.855  26.701  12.839  1.00  0.00    -0.021 NA
HETATM    8  N6  UNL     1      36.051  27.814  13.523  1.00  0.00    -0.282 N 
ATOM      9  H6  UNL     1      35.576  28.064  14.390  1.00  0.00     0.184 HD
HETATM   10  C7  UNL     1      36.977  28.569  12.895  1.00  0.00     0.099 A 
HETATM   11  C8  UNL     1      37.557  29.879  13.214  1.00  0.00     0.205 C 
HETATM   12  C9  UNL     1      38.739  30.286  12.437  1.00  0.00     0.242 C 
ENDROOT
BRANCH   1  13
HETATM   13  C4  UNL     1      40.167  29.920  10.424  1.00  0.00     0.146 C 
BRANCH  13  14
HETATM   14  N2  UNL     1      39.859  29.424   9.157  1.00  0.00    -0.400 N 
ATOM     15  H2  UNL     1      38.925  29.542   8.763  1.00  0.00     0.158 HD
BRANCH  14  16
HETATM   16  C3  UNL     1      40.861  28.763   8.442  1.00  0.00     0.057 C 
BRANCH  16  17
HETATM   17  C2  UNL     1      41.391  29.275   7.176  1.00  0.00     0.071 C 
BRANCH  17  18
HETATM   18  C1  UNL     1      42.415  30.335   7.146  1.00  0.00     0.234 C 
BRANCH  18  19
HETATM   19  N1  UNL     1      42.850  30.421   5.709  1.00  0.00    -0.079 N 
ATOM     20  H13 UNL     1      43.037  31.372   5.392  1.00  0.00     0.274 HD
ATOM     21  H12 UNL     1      43.787  30.055   5.540  1.00  0.00     0.274 HD
ATOM     22  H11 UNL     1      42.120  29.946   5.179  1.00  0.00     0.274 HD
ENDBRANCH  18  19
ENDBRANCH  17  18
ENDBRANCH  16  17
ENDBRANCH  14  16
ENDBRANCH  13  14
ENDBRANCH   1  13
BRANCH  12  23
HETATM   23  N7  UNL     1      39.845  30.729  13.305  1.00  0.00    -0.070 N 
ATOM     24  H73 UNL     1      40.172  30.007  13.946  1.00  0.00     0.274 HD
ATOM     25  H72 UNL     1      40.724  30.860  12.805  1.00  0.00     0.274 HD
ATOM     26  H71 UNL     1      39.517  31.572  13.776  1.00  0.00     0.274 HD
ENDBRANCH  12  23
BRANCH  11  27
HETATM   27  O1  UNL     1      37.772  29.968  14.615  1.00  0.00    -0.387 OA
ATOM     28  H1  UNL     1      37.325  29.249  15.047  1.00  0.00     0.210 HD
ENDBRANCH  11  27
TORSDOF 8
ENDMDL
MODEL 4
REMARK VINA RESULT: -6.033114654      1.575      2.410
REMARK  8 active torsions:
REMARK  status: ('A' for Active; 'I' for Inactive)
REMARK    1  A    between atoms: N1_1  and  C1_5 
REMARK    2  A    between atoms: C1_5  and  C2_6 
REMARK    3  A    between atoms: C2_6  and  C3_7 
REMARK    4  A    between atoms: C3_7  and  N2_8 
REMARK    5  A    between atoms: N2_8  and  C4_10 
REMARK    6  A    between atoms: C4_10  and  C5_11 
REMARK    7  A    between atoms: C8_21  and  O1_22 
REMARK    8  A    between atoms: C9_24  and  N7_25 
ROOT
HETATM    1  C5  UNL     1      39.244  29.247  11.469  1.00  0.00     0.134 C 
HETATM    2  N3  UNL     1      38.273  28.389  10.866  1.00  0.00    -0.365 N 
ATOM      3  H3  UNL     1      38.264  28.204   9.863  1.00  0.00     0.161 HD
HETATM    4  C6  UNL     1      37.308  27.801  11.757  1.00  0.00     0.141 A 
HETATM    5  N4  UNL     1      36.627  26.622  11.730  1.00  0.00    -0.268 N 
ATOM      6  H4  UNL     1      36.687  25.898  11.015  1.00  0.00     0.186 HD
HETATM    7  N5  UNL     1      35.862  26.602  12.830  1.00  0.00    -0.021 NA
HETATM    8  N6  UNL     1      36.051  27.713  13.521  1.00  0.00    -0.282 N 
ATOM      9  H6  UNL     1      35.589  27.946  14.401  1.00  0.00     0.184 HD
HETATM   10  C7  UNL     1      36.950  28.491  12.881  1.00  0.00     0.099 A 
HETATM   11  C8  UNL     1      37.511  29.809  13.201  1.00  0.00     0.205 C 
HETATM   12  C9  UNL     1      38.670  30.245  12.404  1.00  0.00     0.242 C 
ENDROOT
BRANCH   1  13
HETATM   13  C4  UNL     1      40.063  29.924  10.359  1.00  0.00     0.146 C 
BRANCH  13  14
HETATM   14  N2  UNL     1      40.922  29.030   9.721  1.00  0.00    -0.400 N 
ATOM     15  H2  UNL     1      40.570  28.373   9.024  1.00  0.00     0.158 HD
BRANCH  14  16
HETATM   16  C3  UNL     1      42.277  29.056  10.062  1.00  0.00     0.057 C 
BRANCH  16  17
HETATM   17  C2  UNL     1      42.826  30.007  11.031  1.00  0.00     0.071 C 
BRANCH  17  18
HETATM   18  C1  UNL     1      43.530  29.549  12.241  1.00  0.00     0.234 C 
BRANCH  18  19
HETATM   19  N1  UNL     1      42.573  28.612  12.924  1.00  0.00    -0.079 N 
ATOM     20  H13 UNL     1      41.770  28.354  12.351  1.00  0.00     0.274 HD
ATOM     21  H12 UNL     1      42.938  27.668  13.047  1.00  0.00     0.274 HD
ATOM     22  H11 UNL     1      42.323  29.075  13.798  1.00  0.00     0.274 HD
ENDBRANCH  18  19
ENDBRANCH  17  18
ENDBRANCH  16  17
ENDBRANCH  14  16
ENDBRANCH  13  14
ENDBRANCH   1  13
BRANCH  12  23
HETATM   23  N7  UNL     1      39.785  30.701  13.253  1.00  0.00    -0.070 N 
ATOM     24  H73 UNL     1      39.867  31.716  13.304  1.00  0.00     0.274 HD
ATOM     25  H72 UNL     1      39.629  30.539  14.248  1.00  0.00     0.274 HD
ATOM     26  H71 UNL     1      40.622  30.243  12.894  1.00  0.00     0.274 HD
ENDBRANCH  12  23
BRANCH  11  27
HETATM   27  O1  UNL     1      37.753  29.889  14.598  1.00  0.00    -0.387 OA
ATOM     28  H1  UNL     1      36.935  30.059  15.049  1.00  0.00     0.210 HD
ENDBRANCH  11  27
TORSDOF 8
ENDMDL
MODEL 5
REMARK VINA RESULT: -5.987829892      1.794      2.362
REMARK  8 active torsions:
REMARK  status: ('A' for Active; 'I' for Inactive)
REMARK    1  A    between atoms: N1_1  and  C1_5 
REMARK    2  A    between atoms: C1_5  and  C2_6 
REMARK    3  A    between atoms: C2_6  and  C3_7 
REMARK    4  A    between atoms: C3_7  and  N2_8 
REMARK    5  A    between atoms: N2_8  and  C4_10 
REMARK    6  A    between atoms: C4_10  and  C5_11 
REMARK    7  A    between atoms: C8_21  and  O1_22 
REMARK    8  A    between atoms: C9_24  and  N7_25 
ROOT
HETATM    1  C5  UNL     1      39.233  29.184  11.409  1.00  0.00     0.134 C 
HETATM    2  N3  UNL     1      38.231  28.334  10.847  1.00  0.00    -0.365 N 
ATOM      3  H3  UNL     1      38.195  28.128   9.849  1.00  0.00     0.161 HD
HETATM    4  C6  UNL     1      37.273  27.787  11.772  1.00  0.00     0.141 A 
HETATM    5  N4  UNL     1      36.567  26.623  11.786  1.00  0.00    -0.268 N 
ATOM      6  H4  UNL     1      36.595  25.882  11.086  1.00  0.00     0.186 HD
HETATM    7  N5  UNL     1      35.827  26.644  12.903  1.00  0.00    -0.021 NA
HETATM    8  N6  UNL     1      36.055  27.765  13.564  1.00  0.00    -0.282 N 
ATOM      9  H6  UNL     1      35.618  28.027  14.448  1.00  0.00     0.184 HD
HETATM   10  C7  UNL     1      36.956  28.509  12.888  1.00  0.00     0.099 A 
HETATM   11  C8  UNL     1      37.552  29.821  13.166  1.00  0.00     0.205 C 
HETATM   12  C9  UNL     1      38.701  30.214  12.334  1.00  0.00     0.242 C 
ENDROOT
BRANCH   1  13
HETATM   13  C4  UNL     1      40.041  29.818  10.266  1.00  0.00     0.146 C 
BRANCH  13  14
HETATM   14  N2  UNL     1      41.308  29.250  10.142  1.00  0.00    -0.400 N 
ATOM     15  H2  UNL     1      41.419  28.245  10.000  1.00  0.00     0.158 HD
BRANCH  14  16
HETATM   16  C3  UNL     1      42.422  30.091  10.215  1.00  0.00     0.057 C 
BRANCH  16  17
HETATM   17  C2  UNL     1      42.314  31.549  10.116  1.00  0.00     0.071 C 
BRANCH  17  18
HETATM   18  C1  UNL     1      42.932  32.290   9.003  1.00  0.00     0.234 C 
BRANCH  18  19
HETATM   19  N1  UNL     1      42.626  31.482   7.773  1.00  0.00    -0.079 N 
ATOM     20  H13 UNL     1      43.335  31.557   7.044  1.00  0.00     0.274 HD
ATOM     21  H12 UNL     1      42.707  30.474   7.912  1.00  0.00     0.274 HD
ATOM     22  H11 UNL     1      41.697  31.784   7.478  1.00  0.00     0.274 HD
ENDBRANCH  18  19
ENDBRANCH  17  18
ENDBRANCH  16  17
ENDBRANCH  14  16
ENDBRANCH  13  14
ENDBRANCH   1  13
BRANCH  12  23
HETATM   23  N7  UNL     1      39.845  30.664  13.148  1.00  0.00    -0.070 N 
ATOM     24  H73 UNL     1      40.511  29.921  13.358  1.00  0.00     0.274 HD
ATOM     25  H72 UNL     1      40.490  31.270  12.641  1.00  0.00     0.274 HD
ATOM     26  H71 UNL     1      39.448  31.100  13.980  1.00  0.00     0.274 HD
ENDBRANCH  12  23
BRANCH  11  27
HETATM   27  O1  UNL     1      37.827  29.926  14.555  1.00  0.00    -0.387 OA
ATOM     28  H1  UNL     1      37.306  29.287  15.027  1.00  0.00     0.210 HD
ENDBRANCH  11  27
TORSDOF 8
ENDMDL
