MODEL 1
REMARK VINA RESULT: -5.193430671      0.000      0.000
REMARK  2 active torsions:
REMARK  status: ('A' for Active; 'I' for Inactive)
REMARK    1  A    between atoms: C2_2  and  N1_3 
REMARK    2  A    between atoms: C5_7  and  O2_8 
ROOT
HETATM    1  N1  UNL     1      48.328  72.244  60.828  1.00  0.00    -0.192 NA
HETATM    2  O1  UNL     1      49.079  73.219  61.348  1.00  0.00    -0.303 OA
HETATM    3  C3  UNL     1      49.025  74.419  60.681  1.00  0.00     0.197 C 
HETATM    4  C4  UNL     1      48.330  74.384  59.361  1.00  0.00     0.067 C 
HETATM    5  C5  UNL     1      48.909  73.413  58.364  1.00  0.00     0.069 C 
HETATM    6  C6  UNL     1      47.832  72.416  57.952  1.00  0.00     0.026 C 
HETATM    7  C7  UNL     1      47.656  72.304  56.481  1.00  0.00     0.008 C 
HETATM    8  C8  UNL     1      48.168  71.049  55.854  1.00  0.00     0.005 C 
HETATM    9  C9  UNL     1      49.310  70.452  56.660  1.00  0.00    -0.014 C 
HETATM   10  C10 UNL     1      50.445  71.418  56.766  1.00  0.00     0.005 C 
HETATM   11  C11 UNL     1      50.850  71.792  58.139  1.00  0.00     0.010 C 
HETATM   12  C12 UNL     1      49.925  72.534  58.993  1.00  0.00     0.041 C 
HETATM   13  C13 UNL     1      49.058  71.570  59.790  1.00  0.00     0.097 C 
HETATM   14  C14 UNL     1      48.070  71.160  58.702  1.00  0.00     0.013 C 
HETATM   15  C15 UNL     1      48.713  70.041  57.968  1.00  0.00     0.011 C 
ENDROOT
BRANCH   1  16
HETATM   16  C2  UNL     1      48.018  71.263  61.843  1.00  0.00     0.116 C 
HETATM   17  C1  UNL     1      46.742  71.557  62.590  1.00  0.00     0.023 C 
ENDBRANCH   1  16
BRANCH   5  18
HETATM   18  O2  UNL     1      49.370  74.169  57.302  1.00  0.00    -0.389 OA
ATOM     19  H2  UNL     1      48.769  74.017  56.583  1.00  0.00     0.210 HD
ENDBRANCH   5  18
TORSDOF 2
ENDMDL
MODEL 2
REMARK VINA RESULT: -5.162477081      1.958      4.446
REMARK  2 active torsions:
REMARK  status: ('A' for Active; 'I' for Inactive)
REMARK    1  A    between atoms: C2_2  and  N1_3 
REMARK    2  A    between atoms: C5_7  and  O2_8 
ROOT
HETATM    1  N1  UNL     1      50.766  71.358  57.244  1.00  0.00    -0.192 NA
HETATM    2  O1  UNL     1      50.213  70.388  56.513  1.00  0.00    -0.303 OA
HETATM    3  C3  UNL     1      49.099  70.755  55.797  1.00  0.00     0.197 C 
HETATM    4  C4  UNL     1      48.546  72.102  56.126  1.00  0.00     0.067 C 
HETATM    5  C5  UNL     1      48.159  72.293  57.569  1.00  0.00     0.069 C 
HETATM    6  C6  UNL     1      48.949  73.462  58.148  1.00  0.00     0.026 C 
HETATM    7  C7  UNL     1      48.098  74.489  58.804  1.00  0.00     0.008 C 
HETATM    8  C8  UNL     1      48.155  74.531  60.296  1.00  0.00     0.005 C 
HETATM    9  C9  UNL     1      48.515  73.173  60.877  1.00  0.00    -0.014 C 
HETATM   10  C10 UNL     1      47.510  72.143  60.476  1.00  0.00     0.005 C 
HETATM   11  C11 UNL     1      48.039  70.976  59.736  1.00  0.00     0.010 C 
HETATM   12  C12 UNL     1      48.620  71.160  58.408  1.00  0.00     0.041 C 
HETATM   13  C13 UNL     1      50.111  71.437  58.521  1.00  0.00     0.097 C 
HETATM   14  C14 UNL     1      50.067  72.901  58.944  1.00  0.00     0.013 C 
HETATM   15  C15 UNL     1      49.913  72.894  60.421  1.00  0.00     0.011 C 
ENDROOT
BRANCH   1  16
HETATM   16  C2  UNL     1      52.159  71.061  57.491  1.00  0.00     0.116 C 
HETATM   17  C1  UNL     1      53.071  72.241  57.276  1.00  0.00     0.023 C 
ENDBRANCH   1  16
BRANCH   5  18
HETATM   18  O2  UNL     1      46.795  72.513  57.585  1.00  0.00    -0.389 OA
ATOM     19  H2  UNL     1      46.421  71.851  58.154  1.00  0.00     0.210 HD
ENDBRANCH   5  18
TORSDOF 2
ENDMDL
MODEL 3
REMARK VINA RESULT: -5.064795641      2.686      5.117
REMARK  2 active torsions:
REMARK  status: ('A' for Active; 'I' for Inactive)
REMARK    1  A    between atoms: C2_2  and  N1_3 
REMARK    2  A    between atoms: C5_7  and  O2_8 
ROOT
HETATM    1  N1  UNL     1      48.844  73.850  59.642  1.00  0.00    -0.192 NA
HETATM    2  O1  UNL     1      49.339  73.639  60.864  1.00  0.00    -0.303 OA
HETATM    3  C3  UNL     1      48.439  73.780  61.893  1.00  0.00     0.197 C 
HETATM    4  C4  UNL     1      47.123  74.370  61.512  1.00  0.00     0.067 C 
HETATM    5  C5  UNL     1      47.198  75.733  60.876  1.00  0.00     0.069 C 
HETATM    6  C6  UNL     1      46.565  75.675  59.490  1.00  0.00     0.026 C 
HETATM    7  C7  UNL     1      45.521  76.709  59.269  1.00  0.00     0.008 C 
HETATM    8  C8  UNL     1      45.896  77.832  58.358  1.00  0.00     0.005 C 
HETATM    9  C9  UNL     1      47.397  78.071  58.359  1.00  0.00    -0.014 C 
HETATM   10  C10 UNL     1      47.879  78.403  59.733  1.00  0.00     0.005 C 
HETATM   11  C11 UNL     1      48.918  77.506  60.289  1.00  0.00     0.010 C 
HETATM   12  C12 UNL     1      48.599  76.107  60.562  1.00  0.00     0.041 C 
HETATM   13  C13 UNL     1      48.887  75.254  59.336  1.00  0.00     0.097 C 
HETATM   14  C14 UNL     1      47.661  75.596  58.496  1.00  0.00     0.013 C 
HETATM   15  C15 UNL     1      48.004  76.840  57.763  1.00  0.00     0.011 C 
ENDROOT
BRANCH   1  16
HETATM   16  C2  UNL     1      49.651  73.169  58.656  1.00  0.00     0.116 C 
HETATM   17  C1  UNL     1      49.692  71.674  58.844  1.00  0.00     0.023 C 
ENDBRANCH   1  16
BRANCH   5  18
HETATM   18  O2  UNL     1      46.540  76.601  61.726  1.00  0.00    -0.389 OA
ATOM     19  H2  UNL     1      45.777  76.136  62.049  1.00  0.00     0.210 HD
ENDBRANCH   5  18
TORSDOF 2
ENDMDL
MODEL 4
REMARK VINA RESULT: -4.855411832      1.207      1.263
REMARK  2 active torsions:
REMARK  status: ('A' for Active; 'I' for Inactive)
REMARK    1  A    between atoms: C2_2  and  N1_3 
REMARK    2  A    between atoms: C5_7  and  O2_8 
ROOT
HETATM    1  N1  UNL     1      48.060  71.066  60.833  1.00  0.00    -0.192 NA
HETATM    2  O1  UNL     1      48.690  71.670  61.845  1.00  0.00    -0.303 OA
HETATM    3  C3  UNL     1      48.596  73.040  61.859  1.00  0.00     0.197 C 
HETATM    4  C4  UNL     1      48.014  73.652  60.629  1.00  0.00     0.067 C 
HETATM    5  C5  UNL     1      48.744  73.328  59.352  1.00  0.00     0.069 C 
HETATM    6  C6  UNL     1      47.784  72.642  58.386  1.00  0.00     0.026 C 
HETATM    7  C7  UNL     1      47.735  73.278  57.044  1.00  0.00     0.008 C 
HETATM    8  C8  UNL     1      48.391  72.519  55.937  1.00  0.00     0.005 C 
HETATM    9  C9  UNL     1      49.508  71.630  56.458  1.00  0.00    -0.014 C 
HETATM   10  C10 UNL     1      50.552  72.443  57.151  1.00  0.00     0.005 C 
HETATM   11  C11 UNL     1      50.816  72.090  58.564  1.00  0.00     0.010 C 
HETATM   12  C12 UNL     1      49.771  72.279  59.567  1.00  0.00     0.041 C 
HETATM   13  C13 UNL     1      48.920  71.023  59.683  1.00  0.00     0.097 C 
HETATM   14  C14 UNL     1      48.057  71.186  58.436  1.00  0.00     0.013 C 
HETATM   15  C15 UNL     1      48.842  70.603  57.318  1.00  0.00     0.011 C 
ENDROOT
BRANCH   1  16
HETATM   16  C2  UNL     1      47.746  69.701  61.188  1.00  0.00     0.116 C 
HETATM   17  C1  UNL     1      46.948  69.582  62.461  1.00  0.00     0.023 C 
ENDBRANCH   1  16
BRANCH   5  18
HETATM   18  O2  UNL     1      49.228  74.525  58.860  1.00  0.00    -0.389 OA
ATOM     19  H2  UNL     1      48.570  74.857  58.262  1.00  0.00     0.210 HD
ENDBRANCH   5  18
TORSDOF 2
ENDMDL
MODEL 5
REMARK VINA RESULT: -4.834722530      1.828      3.374
REMARK  2 active torsions:
REMARK  status: ('A' for Active; 'I' for Inactive)
REMARK    1  A    between atoms: C2_2  and  N1_3 
REMARK    2  A    between atoms: C5_7  and  O2_8 
ROOT
HETATM    1  N1  UNL     1      48.253  75.070  58.905  1.00  0.00    -0.192 NA
HETATM    2  O1  UNL     1      47.531  75.016  60.027  1.00  0.00    -0.303 OA
HETATM    3  C3  UNL     1      48.149  74.408  61.092  1.00  0.00     0.197 C 
HETATM    4  C4  UNL     1      49.423  73.701  60.772  1.00  0.00     0.067 C 
HETATM    5  C5  UNL     1      49.305  72.622  59.727  1.00  0.00     0.069 C 
HETATM    6  C6  UNL     1      50.234  72.948  58.563  1.00  0.00     0.026 C 
HETATM    7  C7  UNL     1      51.148  71.833  58.201  1.00  0.00     0.008 C 
HETATM    8  C8  UNL     1      50.835  71.118  56.928  1.00  0.00     0.005 C 
HETATM    9  C9  UNL     1      49.353  71.195  56.597  1.00  0.00    -0.014 C 
HETATM   10  C10 UNL     1      48.535  70.586  57.688  1.00  0.00     0.005 C 
HETATM   11  C11 UNL     1      47.533  71.475  58.318  1.00  0.00     0.010 C 
HETATM   12  C12 UNL     1      47.972  72.643  59.077  1.00  0.00     0.041 C 
HETATM   13  C13 UNL     1      48.086  73.852  58.161  1.00  0.00     0.097 C 
HETATM   14  C14 UNL     1      49.410  73.527  57.476  1.00  0.00     0.013 C 
HETATM   15  C15 UNL     1      49.071  72.640  56.334  1.00  0.00     0.011 C 
ENDROOT
BRANCH   1  16
HETATM   16  C2  UNL     1      47.788  76.153  58.068  1.00  0.00     0.116 C 
HETATM   17  C1  UNL     1      46.461  75.874  57.410  1.00  0.00     0.023 C 
ENDBRANCH   1  16
BRANCH   5  18
HETATM   18  O2  UNL     1      49.630  71.433  60.352  1.00  0.00    -0.389 OA
ATOM     19  H2  UNL     1      50.202  70.963  59.757  1.00  0.00     0.210 HD
ENDBRANCH   5  18
TORSDOF 2
ENDMDL
