MODEL 1
REMARK VINA RESULT: -10.376142908      0.000      0.000
REMARK  11 active torsions:
REMARK  status: ('A' for Active; 'I' for Inactive)
REMARK    1  A    between atoms: C3_3  and  C4_4 
REMARK    2  A    between atoms: C4_4  and  N1_5 
REMARK       I    between atoms: N1_5  and  C5_7 
REMARK    3  A    between atoms: C5_7  and  C6_9 
REMARK    4  A    between atoms: C8_11  and  C9_12 
REMARK    5  A    between atoms: C11_14  and  C12_15 
REMARK    6  A    between atoms: C12_15  and  N2_16 
REMARK    7  A    between atoms: C15_19  and  C16_20 
REMARK    8  A    between atoms: C15_19  and  C21_27 
REMARK       I    between atoms: C16_20  and  N3_22 
REMARK    9  A    between atoms: C33_44  and  C34_45 
REMARK   10  A    between atoms: C34_45  and  O3_46 
REMARK   11  A    between atoms: C36_51  and  C37_52 
ROOT
HETATM    1  C6  UNL     1      19.845  25.667  15.793  1.00  0.00     0.071 A 
HETATM    2  C7  UNL     1      21.148  26.088  16.105  1.00  0.00     0.035 A 
HETATM    3  C8  UNL     1      21.836  26.987  15.331  1.00  0.00     0.015 A 
HETATM    4  C28 UNL     1      21.176  27.468  14.206  1.00  0.00     0.130 A 
HETATM    5  F1  UNL     1      21.853  28.360  13.431  1.00  0.00    -0.205 F 
HETATM    6  C29 UNL     1      19.903  27.065  13.888  1.00  0.00     0.086 A 
HETATM    7  C30 UNL     1      19.205  26.148  14.683  1.00  0.00     0.135 A 
HETATM    8  F2  UNL     1      17.953  25.773  14.298  1.00  0.00    -0.205 F 
ENDROOT
BRANCH   1   9
HETATM    9  C5  UNL     1      19.197  24.730  16.706  1.00  0.00     0.255 C 
HETATM   10  N1  UNL     1      18.355  25.118  17.769  1.00  0.00    -0.353 N 
ATOM     11  H1  UNL     1      18.164  26.103  17.948  1.00  0.00     0.163 HD
HETATM   12  O1  UNL     1      19.447  23.495  16.475  1.00  0.00    -0.268 OA
BRANCH  10  13
HETATM   13  C4  UNL     1      17.770  24.094  18.596  1.00  0.00     0.162 C 
BRANCH  13  14
HETATM   14  C3  UNL     1      16.637  23.361  18.045  1.00  0.00    -0.031 A 
HETATM   15  C2  UNL     1      16.287  22.144  18.655  1.00  0.00    -0.036 A 
HETATM   16  C1  UNL     1      17.106  21.708  19.842  1.00  0.00     0.050 C 
HETATM   17  C36 UNL     1      15.253  21.395  18.196  1.00  0.00     0.064 A 
HETATM   18  C35 UNL     1      14.499  21.835  17.081  1.00  0.00     0.076 A 
HETATM   19  C32 UNL     1      14.837  23.023  16.481  1.00  0.00     0.062 A 
HETATM   20  N6  UNL     1      13.455  21.345  16.407  1.00  0.00    -0.341 N 
HETATM   21  C31 UNL     1      15.897  23.770  16.968  1.00  0.00     0.041 A 
HETATM   22  N5  UNL     1      13.974  23.206  15.459  1.00  0.00    -0.342 N 
HETATM   23  C33 UNL     1      13.118  22.200  15.386  1.00  0.00     0.106 A 
ATOM     24  H5  UNL     1      13.981  24.010  14.830  1.00  0.00     0.167 HD
ATOM     25  H6  UNL     1      12.980  20.468  16.619  1.00  0.00     0.167 HD
BRANCH  17  26
HETATM   26  C37 UNL     1      14.877  20.135  18.783  1.00  0.00     0.267 C 
HETATM   27  N7  UNL     1      15.186  18.887  18.207  1.00  0.00    -0.057 NA
HETATM   28  O4  UNL     1      14.220  20.074  19.889  1.00  0.00    -0.271 OA
ENDBRANCH  17  26
BRANCH  23  29
HETATM   29  C34 UNL     1      11.975  21.936  14.444  1.00  0.00     0.240 C 
BRANCH  29  30
HETATM   30  O3  UNL     1      10.873  21.570  15.175  1.00  0.00    -0.393 OA
ATOM     31  H3  UNL     1      10.252  21.138  14.600  1.00  0.00     0.209 HD
ENDBRANCH  29  30
ENDBRANCH  23  29
ENDBRANCH  13  14
ENDBRANCH  10  13
ENDBRANCH   1   9
BRANCH   3  32
HETATM   32  C9  UNL     1      23.188  27.434  15.635  1.00  0.00    -0.005 A 
HETATM   33  C10 UNL     1      24.371  26.739  15.730  1.00  0.00     0.040 A 
HETATM   34  C11 UNL     1      25.431  27.617  16.013  1.00  0.00     0.040 A 
HETATM   35  N4  UNL     1      24.885  28.831  16.087  1.00  0.00    -0.362 N 
HETATM   36  C26 UNL     1      25.556  30.090  16.338  1.00  0.00     0.155 C 
HETATM   37  C27 UNL     1      23.549  28.758  15.867  1.00  0.00     0.102 A 
BRANCH  34  38
HETATM   38  C12 UNL     1      26.844  27.206  16.173  1.00  0.00     0.329 C 
BRANCH  38  39
HETATM   39  N2  UNL     1      27.219  26.821  17.497  1.00  0.00     0.094 N 
HETATM   40  C13 UNL     1      26.405  27.569  18.438  1.00  0.00     0.274 C 
HETATM   41  C14 UNL     1      25.860  26.767  19.565  1.00  0.00     0.050 C 
HETATM   42  C15 UNL     1      25.124  25.514  19.139  1.00  0.00     0.048 C 
HETATM   43  C24 UNL     1      25.889  24.813  18.074  1.00  0.00     0.050 C 
HETATM   44  C25 UNL     1      27.242  25.424  17.767  1.00  0.00     0.274 C 
BRANCH  42  45
HETATM   45  C16 UNL     1      25.064  24.617  20.345  1.00  0.00     0.229 C 
HETATM   46  O2  UNL     1      25.074  23.353  20.078  1.00  0.00    -0.272 OA
HETATM   47  N3  UNL     1      25.002  25.032  21.676  1.00  0.00    -0.351 N 
HETATM   48  C17 UNL     1      24.959  26.360  22.222  1.00  0.00     0.126 C 
HETATM   49  C20 UNL     1      24.986  24.087  22.815  1.00  0.00     0.126 C 
HETATM   50  C18 UNL     1      25.732  26.266  23.530  1.00  0.00     0.021 C 
HETATM   51  C19 UNL     1      25.594  24.844  23.958  1.00  0.00     0.021 C 
ENDBRANCH  42  45
BRANCH  42  52
HETATM   52  C21 UNL     1      23.699  25.815  18.715  1.00  0.00     0.003 A 
HETATM   53  C22 UNL     1      22.544  25.618  19.607  1.00  0.00     0.006 A 
HETATM   54  C23 UNL     1      23.001  26.992  19.308  1.00  0.00     0.006 A 
ENDBRANCH  42  52
ENDBRANCH  38  39
ENDBRANCH  34  38
ENDBRANCH   3  32
TORSDOF 11
ENDMDL
MODEL 2
REMARK VINA RESULT: -10.267143624      6.259     15.210
REMARK  11 active torsions:
REMARK  status: ('A' for Active; 'I' for Inactive)
REMARK    1  A    between atoms: C3_3  and  C4_4 
REMARK    2  A    between atoms: C4_4  and  N1_5 
REMARK       I    between atoms: N1_5  and  C5_7 
REMARK    3  A    between atoms: C5_7  and  C6_9 
REMARK    4  A    between atoms: C8_11  and  C9_12 
REMARK    5  A    between atoms: C11_14  and  C12_15 
REMARK    6  A    between atoms: C12_15  and  N2_16 
REMARK    7  A    between atoms: C15_19  and  C16_20 
REMARK    8  A    between atoms: C15_19  and  C21_27 
REMARK       I    between atoms: C16_20  and  N3_22 
REMARK    9  A    between atoms: C33_44  and  C34_45 
REMARK   10  A    between atoms: C34_45  and  O3_46 
REMARK   11  A    between atoms: C36_51  and  C37_52 
ROOT
HETATM    1  C6  UNL     1      15.522  21.468  17.581  1.00  0.00     0.071 A 
HETATM    2  C7  UNL     1      14.406  20.823  17.022  1.00  0.00     0.035 A 
HETATM    3  C8  UNL     1      13.549  20.056  17.768  1.00  0.00     0.015 A 
HETATM    4  C28 UNL     1      13.840  19.943  19.124  1.00  0.00     0.130 A 
HETATM    5  F1  UNL     1      12.993  19.182  19.872  1.00  0.00    -0.205 F 
HETATM    6  C29 UNL     1      14.926  20.568  19.684  1.00  0.00     0.086 A 
HETATM    7  C30 UNL     1      15.797  21.350  18.917  1.00  0.00     0.135 A 
HETATM    8  F2  UNL     1      16.869  21.923  19.531  1.00  0.00    -0.205 F 
ENDROOT
BRANCH   1   9
HETATM    9  C5  UNL     1      16.348  22.285  16.697  1.00  0.00     0.255 C 
HETATM   10  N1  UNL     1      16.182  23.674  16.520  1.00  0.00    -0.353 N 
ATOM     11  H1  UNL     1      15.448  24.177  17.019  1.00  0.00     0.163 HD
HETATM   12  O1  UNL     1      17.263  21.642  16.072  1.00  0.00    -0.268 OA
BRANCH  10  13
HETATM   13  C4  UNL     1      17.068  24.368  15.622  1.00  0.00     0.162 C 
BRANCH  13  14
HETATM   14  C3  UNL     1      18.245  24.999  16.206  1.00  0.00    -0.031 A 
HETATM   15  C2  UNL     1      18.989  25.872  15.393  1.00  0.00    -0.036 A 
HETATM   16  C1  UNL     1      18.494  26.094  13.987  1.00  0.00     0.050 C 
HETATM   17  C36 UNL     1      20.104  26.491  15.855  1.00  0.00     0.064 A 
HETATM   18  C35 UNL     1      20.540  26.266  17.184  1.00  0.00     0.076 A 
HETATM   19  C32 UNL     1      19.817  25.414  17.983  1.00  0.00     0.062 A 
HETATM   20  N6  UNL     1      21.564  26.709  17.918  1.00  0.00    -0.341 N 
HETATM   21  C31 UNL     1      18.683  24.793  17.487  1.00  0.00     0.041 A 
HETATM   22  N5  UNL     1      20.438  25.377  19.180  1.00  0.00    -0.342 N 
HETATM   23  C33 UNL     1      21.509  26.156  19.175  1.00  0.00     0.106 A 
ATOM     24  H5  UNL     1      20.126  24.824  19.979  1.00  0.00     0.167 HD
ATOM     25  H6  UNL     1      22.279  27.360  17.595  1.00  0.00     0.167 HD
BRANCH  17  26
HETATM   26  C37 UNL     1      20.902  27.377  15.047  1.00  0.00     0.267 C 
HETATM   27  N7  UNL     1      20.538  28.708  14.763  1.00  0.00    -0.057 NA
HETATM   28  O4  UNL     1      22.016  26.995  14.525  1.00  0.00    -0.271 OA
ENDBRANCH  17  26
BRANCH  23  29
HETATM   29  C34 UNL     1      22.519  26.460  20.246  1.00  0.00     0.240 C 
BRANCH  29  30
HETATM   30  O3  UNL     1      22.533  27.814  20.472  1.00  0.00    -0.393 OA
ATOM     31  H3  UNL     1      22.078  27.995  21.286  1.00  0.00     0.209 HD
ENDBRANCH  29  30
ENDBRANCH  23  29
ENDBRANCH  13  14
ENDBRANCH  10  13
ENDBRANCH   1   9
BRANCH   3  32
HETATM   32  C9  UNL     1      12.389  19.376  17.209  1.00  0.00    -0.005 A 
HETATM   33  C10 UNL     1      11.640  18.327  17.686  1.00  0.00     0.040 A 
HETATM   34  C11 UNL     1      10.586  18.039  16.801  1.00  0.00     0.040 A 
HETATM   35  N4  UNL     1      10.705  18.913  15.801  1.00  0.00    -0.362 N 
HETATM   36  C26 UNL     1       9.850  19.051  14.639  1.00  0.00     0.155 C 
HETATM   37  C27 UNL     1      11.771  19.723  16.012  1.00  0.00     0.102 A 
BRANCH  34  38
HETATM   38  C12 UNL     1       9.579  16.975  17.010  1.00  0.00     0.329 C 
BRANCH  38  39
HETATM   39  N2  UNL     1       9.983  15.667  16.599  1.00  0.00     0.094 N 
HETATM   40  C13 UNL     1      10.169  14.852  17.786  1.00  0.00     0.274 C 
HETATM   41  C14 UNL     1       9.597  13.482  17.699  1.00  0.00     0.050 C 
HETATM   42  C15 UNL     1       8.144  13.441  17.274  1.00  0.00     0.048 C 
HETATM   43  C24 UNL     1       7.917  14.378  16.143  1.00  0.00     0.050 C 
HETATM   44  C25 UNL     1       9.176  15.036  15.612  1.00  0.00     0.274 C 
BRANCH  42  45
HETATM   45  C16 UNL     1       7.875  12.043  16.789  1.00  0.00     0.229 C 
HETATM   46  O2  UNL     1       6.882  11.452  17.367  1.00  0.00    -0.272 OA
HETATM   47  N3  UNL     1       8.587  11.366  15.799  1.00  0.00    -0.351 N 
HETATM   48  C17 UNL     1       9.725  11.791  15.032  1.00  0.00     0.126 C 
HETATM   49  C20 UNL     1       8.237  10.001  15.344  1.00  0.00     0.126 C 
HETATM   50  C18 UNL     1       9.536  11.147  13.666  1.00  0.00     0.021 C 
HETATM   51  C19 UNL     1       8.718   9.927  13.926  1.00  0.00     0.021 C 
ENDBRANCH  42  45
BRANCH  42  52
HETATM   52  C21 UNL     1       7.210  13.713  18.438  1.00  0.00     0.003 A 
HETATM   53  C22 UNL     1       7.183  14.999  19.155  1.00  0.00     0.006 A 
HETATM   54  C23 UNL     1       6.069  14.653  18.246  1.00  0.00     0.006 A 
ENDBRANCH  42  52
ENDBRANCH  38  39
ENDBRANCH  34  38
ENDBRANCH   3  32
TORSDOF 11
ENDMDL
MODEL 3
REMARK VINA RESULT: -10.100473734      2.424      4.839
REMARK  11 active torsions:
REMARK  status: ('A' for Active; 'I' for Inactive)
REMARK    1  A    between atoms: C3_3  and  C4_4 
REMARK    2  A    between atoms: C4_4  and  N1_5 
REMARK       I    between atoms: N1_5  and  C5_7 
REMARK    3  A    between atoms: C5_7  and  C6_9 
REMARK    4  A    between atoms: C8_11  and  C9_12 
REMARK    5  A    between atoms: C11_14  and  C12_15 
REMARK    6  A    between atoms: C12_15  and  N2_16 
REMARK    7  A    between atoms: C15_19  and  C16_20 
REMARK    8  A    between atoms: C15_19  and  C21_27 
REMARK       I    between atoms: C16_20  and  N3_22 
REMARK    9  A    between atoms: C33_44  and  C34_45 
REMARK   10  A    between atoms: C34_45  and  O3_46 
REMARK   11  A    between atoms: C36_51  and  C37_52 
ROOT
HETATM    1  C6  UNL     1      18.246  22.631  17.805  1.00  0.00     0.071 A 
HETATM    2  C7  UNL     1      19.105  22.969  18.864  1.00  0.00     0.035 A 
HETATM    3  C8  UNL     1      19.840  24.127  18.875  1.00  0.00     0.015 A 
HETATM    4  C28 UNL     1      19.693  24.964  17.774  1.00  0.00     0.130 A 
HETATM    5  F1  UNL     1      20.419  26.116  17.778  1.00  0.00    -0.205 F 
HETATM    6  C29 UNL     1      18.857  24.647  16.733  1.00  0.00     0.086 A 
HETATM    7  C30 UNL     1      18.110  23.464  16.727  1.00  0.00     0.135 A 
HETATM    8  F2  UNL     1      17.317  23.200  15.651  1.00  0.00    -0.205 F 
ENDROOT
BRANCH   1   9
HETATM    9  C5  UNL     1      17.490  21.388  17.914  1.00  0.00     0.255 C 
HETATM   10  N1  UNL     1      16.405  21.197  18.794  1.00  0.00    -0.353 N 
ATOM     11  H1  UNL     1      16.099  21.948  19.413  1.00  0.00     0.163 HD
HETATM   12  O1  UNL     1      17.885  20.449  17.136  1.00  0.00    -0.268 OA
BRANCH  10  13
HETATM   13  C4  UNL     1      15.736  19.922  18.802  1.00  0.00     0.162 C 
BRANCH  13  14
HETATM   14  C3  UNL     1      14.414  19.861  18.190  1.00  0.00    -0.031 A 
HETATM   15  C2  UNL     1      13.444  19.053  18.809  1.00  0.00    -0.036 A 
HETATM   16  C1  UNL     1      13.851  18.332  20.068  1.00  0.00     0.050 C 
HETATM   17  C36 UNL     1      12.194  18.932  18.297  1.00  0.00     0.064 A 
HETATM   18  C35 UNL     1      11.842  19.628  17.115  1.00  0.00     0.076 A 
HETATM   19  C32 UNL     1      12.785  20.418  16.505  1.00  0.00     0.062 A 
HETATM   20  N6  UNL     1      10.730  19.718  16.380  1.00  0.00    -0.341 N 
HETATM   21  C31 UNL     1      14.055  20.525  17.048  1.00  0.00     0.041 A 
HETATM   22  N5  UNL     1      12.200  20.960  15.417  1.00  0.00    -0.342 N 
HETATM   23  C33 UNL     1      10.945  20.552  15.310  1.00  0.00     0.106 A 
ATOM     24  H5  UNL     1      12.662  21.595  14.765  1.00  0.00     0.167 HD
ATOM     25  H6  UNL     1       9.853  19.239  16.583  1.00  0.00     0.167 HD
BRANCH  17  26
HETATM   26  C37 UNL     1      11.179  18.102  18.893  1.00  0.00     0.267 C 
HETATM   27  N7  UNL     1      10.400  17.184  18.162  1.00  0.00    -0.057 NA
HETATM   28  O4  UNL     1      10.920  18.151  20.153  1.00  0.00    -0.271 OA
ENDBRANCH  17  26
BRANCH  23  29
HETATM   29  C34 UNL     1       9.883  20.868  14.294  1.00  0.00     0.240 C 
BRANCH  29  30
HETATM   30  O3  UNL     1       8.838  21.497  14.924  1.00  0.00    -0.393 OA
ATOM     31  H3  UNL     1       8.859  22.421  14.706  1.00  0.00     0.209 HD
ENDBRANCH  29  30
ENDBRANCH  23  29
ENDBRANCH  13  14
ENDBRANCH  10  13
ENDBRANCH   1   9
BRANCH   3  32
HETATM   32  C9  UNL     1      20.739  24.494  19.960  1.00  0.00    -0.005 A 
HETATM   33  C10 UNL     1      21.951  23.972  20.345  1.00  0.00     0.040 A 
HETATM   34  C11 UNL     1      22.464  24.688  21.441  1.00  0.00     0.040 A 
HETATM   35  N4  UNL     1      21.562  25.633  21.709  1.00  0.00    -0.362 N 
HETATM   36  C26 UNL     1      21.626  26.651  22.738  1.00  0.00     0.155 C 
HETATM   37  C27 UNL     1      20.521  25.545  20.846  1.00  0.00     0.102 A 
BRANCH  34  38
HETATM   38  C12 UNL     1      23.755  24.401  22.104  1.00  0.00     0.329 C 
BRANCH  38  39
HETATM   39  N2  UNL     1      24.831  25.268  21.741  1.00  0.00     0.094 N 
HETATM   40  C13 UNL     1      26.062  24.498  21.752  1.00  0.00     0.274 C 
HETATM   41  C14 UNL     1      26.960  24.739  20.592  1.00  0.00     0.050 C 
HETATM   42  C15 UNL     1      26.284  24.600  19.244  1.00  0.00     0.048 C 
HETATM   43  C24 UNL     1      24.958  25.272  19.267  1.00  0.00     0.050 C 
HETATM   44  C25 UNL     1      24.659  26.025  20.548  1.00  0.00     0.274 C 
BRANCH  42  45
HETATM   45  C16 UNL     1      27.157  25.313  18.247  1.00  0.00     0.229 C 
HETATM   46  O2  UNL     1      28.396  24.949  18.255  1.00  0.00    -0.272 OA
HETATM   47  N3  UNL     1      26.741  26.298  17.348  1.00  0.00    -0.351 N 
HETATM   48  C17 UNL     1      25.442  26.881  17.160  1.00  0.00     0.126 C 
HETATM   49  C20 UNL     1      27.652  26.928  16.366  1.00  0.00     0.126 C 
HETATM   50  C18 UNL     1      25.355  27.162  15.667  1.00  0.00     0.021 C 
HETATM   51  C19 UNL     1      26.770  27.343  15.227  1.00  0.00     0.021 C 
ENDBRANCH  42  45
BRANCH  42  52
HETATM   52  C21 UNL     1      26.183  23.149  18.813  1.00  0.00     0.003 A 
HETATM   53  C22 UNL     1      26.501  22.026  19.710  1.00  0.00     0.006 A 
HETATM   54  C23 UNL     1      25.089  22.304  19.371  1.00  0.00     0.006 A 
ENDBRANCH  42  52
ENDBRANCH  38  39
ENDBRANCH  34  38
ENDBRANCH   3  32
TORSDOF 11
ENDMDL
MODEL 4
REMARK VINA RESULT: -10.082128028      5.408     14.509
REMARK  11 active torsions:
REMARK  status: ('A' for Active; 'I' for Inactive)
REMARK    1  A    between atoms: C3_3  and  C4_4 
REMARK    2  A    between atoms: C4_4  and  N1_5 
REMARK       I    between atoms: N1_5  and  C5_7 
REMARK    3  A    between atoms: C5_7  and  C6_9 
REMARK    4  A    between atoms: C8_11  and  C9_12 
REMARK    5  A    between atoms: C11_14  and  C12_15 
REMARK    6  A    between atoms: C12_15  and  N2_16 
REMARK    7  A    between atoms: C15_19  and  C16_20 
REMARK    8  A    between atoms: C15_19  and  C21_27 
REMARK       I    between atoms: C16_20  and  N3_22 
REMARK    9  A    between atoms: C33_44  and  C34_45 
REMARK   10  A    between atoms: C34_45  and  O3_46 
REMARK   11  A    between atoms: C36_51  and  C37_52 
ROOT
HETATM    1  C6  UNL     1      15.991  21.280  17.089  1.00  0.00     0.071 A 
HETATM    2  C7  UNL     1      14.964  21.038  16.162  1.00  0.00     0.035 A 
HETATM    3  C8  UNL     1      13.726  20.583  16.537  1.00  0.00     0.015 A 
HETATM    4  C28 UNL     1      13.531  20.369  17.898  1.00  0.00     0.130 A 
HETATM    5  F1  UNL     1      12.304  19.917  18.278  1.00  0.00    -0.205 F 
HETATM    6  C29 UNL     1      14.525  20.602  18.815  1.00  0.00     0.086 A 
HETATM    7  C30 UNL     1      15.787  21.066  18.426  1.00  0.00     0.135 A 
HETATM    8  F2  UNL     1      16.735  21.254  19.385  1.00  0.00    -0.205 F 
ENDROOT
BRANCH   1   9
HETATM    9  C5  UNL     1      17.259  21.793  16.580  1.00  0.00     0.255 C 
HETATM   10  N1  UNL     1      17.425  23.077  16.021  1.00  0.00    -0.353 N 
ATOM     11  H1  UNL     1      16.635  23.717  15.945  1.00  0.00     0.163 HD
HETATM   12  O1  UNL     1      18.245  20.979  16.676  1.00  0.00    -0.268 OA
BRANCH  10  13
HETATM   13  C4  UNL     1      18.732  23.466  15.559  1.00  0.00     0.162 C 
BRANCH  13  14
HETATM   14  C3  UNL     1      19.422  24.504  16.316  1.00  0.00    -0.031 A 
HETATM   15  C2  UNL     1      19.931  25.604  15.603  1.00  0.00    -0.036 A 
HETATM   16  C1  UNL     1      19.702  25.624  14.113  1.00  0.00     0.050 C 
HETATM   17  C36 UNL     1      20.596  26.606  16.230  1.00  0.00     0.064 A 
HETATM   18  C35 UNL     1      20.790  26.559  17.632  1.00  0.00     0.076 A 
HETATM   19  C32 UNL     1      20.296  25.487  18.333  1.00  0.00     0.062 A 
HETATM   20  N6  UNL     1      21.383  27.362  18.520  1.00  0.00    -0.341 N 
HETATM   21  C31 UNL     1      19.621  24.476  17.670  1.00  0.00     0.041 A 
HETATM   22  N5  UNL     1      20.612  25.687  19.630  1.00  0.00    -0.342 N 
HETATM   23  C33 UNL     1      21.276  26.822  19.779  1.00  0.00     0.106 A 
ATOM     24  H5  UNL     1      20.372  25.050  20.390  1.00  0.00     0.167 HD
ATOM     25  H6  UNL     1      21.845  28.243  18.296  1.00  0.00     0.167 HD
BRANCH  17  26
HETATM   26  C37 UNL     1      21.147  27.739  15.531  1.00  0.00     0.267 C 
HETATM   27  N7  UNL     1      22.526  27.920  15.313  1.00  0.00    -0.057 NA
HETATM   28  O4  UNL     1      20.395  28.671  15.058  1.00  0.00    -0.271 OA
ENDBRANCH  17  26
BRANCH  23  29
HETATM   29  C34 UNL     1      21.838  27.490  21.003  1.00  0.00     0.240 C 
BRANCH  29  30
HETATM   30  O3  UNL     1      20.903  28.363  21.501  1.00  0.00    -0.393 OA
ATOM     31  H3  UNL     1      21.294  28.861  22.209  1.00  0.00     0.209 HD
ENDBRANCH  29  30
ENDBRANCH  23  29
ENDBRANCH  13  14
ENDBRANCH  10  13
ENDBRANCH   1   9
BRANCH   3  32
HETATM   32  C9  UNL     1      12.649  20.322  15.593  1.00  0.00    -0.005 A 
HETATM   33  C10 UNL     1      12.460  19.296  14.698  1.00  0.00     0.040 A 
HETATM   34  C11 UNL     1      11.240  19.458  14.020  1.00  0.00     0.040 A 
HETATM   35  N4  UNL     1      10.702  20.576  14.508  1.00  0.00    -0.362 N 
HETATM   36  C26 UNL     1       9.431  21.175  14.153  1.00  0.00     0.155 C 
HETATM   37  C27 UNL     1      11.516  21.117  15.446  1.00  0.00     0.102 A 
BRANCH  34  38
HETATM   38  C12 UNL     1      10.718  18.529  12.993  1.00  0.00     0.329 C 
BRANCH  38  39
HETATM   39  N2  UNL     1       9.950  17.434  13.498  1.00  0.00     0.094 N 
HETATM   40  C13 UNL     1       8.976  17.057  12.489  1.00  0.00     0.274 C 
HETATM   41  C14 UNL     1       8.839  15.593  12.270  1.00  0.00     0.050 C 
HETATM   42  C15 UNL     1      10.149  14.880  12.005  1.00  0.00     0.048 C 
HETATM   43  C24 UNL     1      11.191  15.362  12.948  1.00  0.00     0.050 C 
HETATM   44  C25 UNL     1      10.685  16.326  14.004  1.00  0.00     0.274 C 
BRANCH  42  45
HETATM   45  C16 UNL     1       9.908  13.419  12.275  1.00  0.00     0.229 C 
HETATM   46  O2  UNL     1      10.027  12.653  11.242  1.00  0.00    -0.272 OA
HETATM   47  N3  UNL     1       9.583  12.855  13.509  1.00  0.00    -0.351 N 
HETATM   48  C17 UNL     1       9.377  13.486  14.782  1.00  0.00     0.126 C 
HETATM   49  C20 UNL     1       9.400  11.399  13.706  1.00  0.00     0.126 C 
HETATM   50  C18 UNL     1       9.899  12.484  15.802  1.00  0.00     0.021 C 
HETATM   51  C19 UNL     1       9.751  11.153  15.143  1.00  0.00     0.021 C 
ENDBRANCH  42  45
BRANCH  42  52
HETATM   52  C21 UNL     1      10.581  15.017  10.558  1.00  0.00     0.003 A 
HETATM   53  C22 UNL     1      11.010  16.297   9.971  1.00  0.00     0.006 A 
HETATM   54  C23 UNL     1      12.020  15.254  10.252  1.00  0.00     0.006 A 
ENDBRANCH  42  52
ENDBRANCH  38  39
ENDBRANCH  34  38
ENDBRANCH   3  32
TORSDOF 11
ENDMDL
MODEL 5
REMARK VINA RESULT: -10.028729657      4.859     14.316
REMARK  11 active torsions:
REMARK  status: ('A' for Active; 'I' for Inactive)
REMARK    1  A    between atoms: C3_3  and  C4_4 
REMARK    2  A    between atoms: C4_4  and  N1_5 
REMARK       I    between atoms: N1_5  and  C5_7 
REMARK    3  A    between atoms: C5_7  and  C6_9 
REMARK    4  A    between atoms: C8_11  and  C9_12 
REMARK    5  A    between atoms: C11_14  and  C12_15 
REMARK    6  A    between atoms: C12_15  and  N2_16 
REMARK    7  A    between atoms: C15_19  and  C16_20 
REMARK    8  A    between atoms: C15_19  and  C21_27 
REMARK       I    between atoms: C16_20  and  N3_22 
REMARK    9  A    between atoms: C33_44  and  C34_45 
REMARK   10  A    between atoms: C34_45  and  O3_46 
REMARK   11  A    between atoms: C36_51  and  C37_52 
ROOT
HETATM    1  C6  UNL     1      15.689  21.345  17.719  1.00  0.00     0.071 A 
HETATM    2  C7  UNL     1      14.551  20.736  17.166  1.00  0.00     0.035 A 
HETATM    3  C8  UNL     1      13.658  20.020  17.921  1.00  0.00     0.015 A 
HETATM    4  C28 UNL     1      13.935  19.923  19.281  1.00  0.00     0.130 A 
HETATM    5  F1  UNL     1      13.054  19.213  20.038  1.00  0.00    -0.205 F 
HETATM    6  C29 UNL     1      15.044  20.513  19.836  1.00  0.00     0.086 A 
HETATM    7  C30 UNL     1      15.951  21.243  19.058  1.00  0.00     0.135 A 
HETATM    8  F2  UNL     1      17.042  21.784  19.669  1.00  0.00    -0.205 F 
ENDROOT
BRANCH   1   9
HETATM    9  C5  UNL     1      16.553  22.109  16.825  1.00  0.00     0.255 C 
HETATM   10  N1  UNL     1      16.339  23.460  16.482  1.00  0.00    -0.353 N 
ATOM     11  H1  UNL     1      15.541  23.971  16.856  1.00  0.00     0.163 HD
HETATM   12  O1  UNL     1      17.551  21.456  16.355  1.00  0.00    -0.268 OA
BRANCH  10  13
HETATM   13  C4  UNL     1      17.271  24.104  15.591  1.00  0.00     0.162 C 
BRANCH  13  14
HETATM   14  C3  UNL     1      18.371  24.841  16.201  1.00  0.00    -0.031 A 
HETATM   15  C2  UNL     1      19.021  25.810  15.417  1.00  0.00    -0.036 A 
HETATM   16  C1  UNL     1      18.511  26.016  14.014  1.00  0.00     0.050 C 
HETATM   17  C36 UNL     1      20.061  26.532  15.904  1.00  0.00     0.064 A 
HETATM   18  C35 UNL     1      20.514  26.317  17.229  1.00  0.00     0.076 A 
HETATM   19  C32 UNL     1      19.882  25.372  18.000  1.00  0.00     0.062 A 
HETATM   20  N6  UNL     1      21.481  26.847  17.983  1.00  0.00    -0.341 N 
HETATM   21  C31 UNL     1      18.823  24.648  17.479  1.00  0.00     0.041 A 
HETATM   22  N5  UNL     1      20.498  25.368  19.200  1.00  0.00    -0.342 N 
HETATM   23  C33 UNL     1      21.479  26.257  19.224  1.00  0.00     0.106 A 
ATOM     24  H5  UNL     1      20.243  24.764  19.982  1.00  0.00     0.167 HD
ATOM     25  H6  UNL     1      22.124  27.579  17.683  1.00  0.00     0.167 HD
BRANCH  17  26
HETATM   26  C37 UNL     1      20.764  27.519  15.126  1.00  0.00     0.267 C 
HETATM   27  N7  UNL     1      22.042  27.308  14.575  1.00  0.00    -0.057 NA
HETATM   28  O4  UNL     1      20.254  28.678  14.886  1.00  0.00    -0.271 OA
ENDBRANCH  17  26
BRANCH  23  29
HETATM   29  C34 UNL     1      22.446  26.638  20.310  1.00  0.00     0.240 C 
BRANCH  29  30
HETATM   30  O3  UNL     1      22.345  27.987  20.542  1.00  0.00    -0.393 OA
ATOM     31  H3  UNL     1      21.688  28.135  21.212  1.00  0.00     0.209 HD
ENDBRANCH  29  30
ENDBRANCH  23  29
ENDBRANCH  13  14
ENDBRANCH  10  13
ENDBRANCH   1   9
BRANCH   3  32
HETATM   32  C9  UNL     1      12.474  19.378  17.367  1.00  0.00    -0.005 A 
HETATM   33  C10 UNL     1      11.717  19.680  16.260  1.00  0.00     0.040 A 
HETATM   34  C11 UNL     1      10.681  18.742  16.108  1.00  0.00     0.040 A 
HETATM   35  N4  UNL     1      10.819  17.885  17.119  1.00  0.00    -0.362 N 
HETATM   36  C26 UNL     1      10.011  16.716  17.405  1.00  0.00     0.155 C 
HETATM   37  C27 UNL     1      11.877  18.235  17.890  1.00  0.00     0.102 A 
BRANCH  34  38
HETATM   38  C12 UNL     1       9.684  18.761  15.015  1.00  0.00     0.329 C 
BRANCH  38  39
HETATM   39  N2  UNL     1      10.204  19.075  13.722  1.00  0.00     0.094 N 
HETATM   40  C13 UNL     1      11.456  18.360  13.548  1.00  0.00     0.274 C 
HETATM   41  C14 UNL     1      11.623  17.708  12.222  1.00  0.00     0.050 C 
HETATM   42  C15 UNL     1      10.468  16.817  11.818  1.00  0.00     0.048 C 
HETATM   43  C24 UNL     1       9.177  17.488  12.121  1.00  0.00     0.050 C 
HETATM   44  C25 UNL     1       9.313  18.912  12.625  1.00  0.00     0.274 C 
BRANCH  42  45
HETATM   45  C16 UNL     1      10.565  16.631  10.328  1.00  0.00     0.229 C 
HETATM   46  O2  UNL     1       9.725  17.332   9.641  1.00  0.00    -0.272 OA
HETATM   47  N3  UNL     1      11.461  15.794   9.662  1.00  0.00    -0.351 N 
HETATM   48  C17 UNL     1      12.463  14.912  10.192  1.00  0.00     0.126 C 
HETATM   49  C20 UNL     1      11.525  15.694   8.187  1.00  0.00     0.126 C 
HETATM   50  C18 UNL     1      13.597  14.958   9.178  1.00  0.00     0.021 C 
HETATM   51  C19 UNL     1      12.940  15.302   7.883  1.00  0.00     0.021 C 
ENDBRANCH  42  45
BRANCH  42  52
HETATM   52  C21 UNL     1      10.563  15.446  12.461  1.00  0.00     0.003 A 
HETATM   53  C22 UNL     1      11.080  15.238  13.823  1.00  0.00     0.006 A 
HETATM   54  C23 UNL     1       9.630  15.101  13.571  1.00  0.00     0.006 A 
ENDBRANCH  42  52
ENDBRANCH  38  39
ENDBRANCH  34  38
ENDBRANCH   3  32
TORSDOF 11
ENDMDL
