MODEL 1
REMARK VINA RESULT: -9.377718718      0.000      0.000
REMARK  9 active torsions:
REMARK  status: ('A' for Active; 'I' for Inactive)
REMARK    1  A    between atoms: C2_2  and  C3_3 
REMARK    2  A    between atoms: C3_3  and  C4_4 
REMARK    3  A    between atoms: C4_4  and  C5_5 
REMARK       I    between atoms: C5_5  and  N1_7 
REMARK    4  A    between atoms: C9_11  and  C10_12 
REMARK    5  A    between atoms: C12_15  and  N2_16 
REMARK    6  A    between atoms: N2_16  and  C13_18 
REMARK    7  A    between atoms: C13_18  and  C14_19 
REMARK    8  A    between atoms: N5_28  and  O2_30 
REMARK    9  A    between atoms: O2_30  and  C19_31 
ROOT
HETATM    1  C5  UNL     1      44.789  25.043  19.918  1.00  0.00     0.220 C 
HETATM    2  O1  UNL     1      45.359  25.018  21.056  1.00  0.00    -0.273 OA
HETATM    3  N1  UNL     1      43.936  23.974  19.595  1.00  0.00    -0.342 N 
HETATM    4  C6  UNL     1      43.209  23.838  18.356  1.00  0.00     0.127 C 
HETATM    5  C7  UNL     1      41.946  23.100  18.748  1.00  0.00     0.022 C 
HETATM    6  C8  UNL     1      42.149  22.636  20.181  1.00  0.00     0.033 C 
HETATM    7  C9  UNL     1      43.609  22.802  20.422  1.00  0.00     0.137 C 
ENDROOT
BRANCH   7   8
HETATM    8  C10 UNL     1      44.412  21.617  19.912  1.00  0.00     0.041 A 
HETATM    9  C11 UNL     1      45.757  21.544  20.139  1.00  0.00     0.080 A 
HETATM   10  S1  UNL     1      46.163  20.056  19.399  1.00  0.00    -0.064 SA
HETATM   11  C12 UNL     1      44.607  19.623  18.850  1.00  0.00     0.144 A 
HETATM   12  N4  UNL     1      43.851  20.636  19.258  1.00  0.00    -0.338 N 
ATOM     13  H4  UNL     1      42.850  20.648  19.063  1.00  0.00     0.168 HD
BRANCH  11  14
HETATM   14  N2  UNL     1      44.221  18.550  18.182  1.00  0.00    -0.370 N 
ATOM     15  H2  UNL     1      43.237  18.310  18.067  1.00  0.00     0.161 HD
BRANCH  14  16
HETATM   16  C13 UNL     1      45.281  17.739  17.624  1.00  0.00     0.126 C 
BRANCH  16  17
HETATM   17  C14 UNL     1      45.443  17.984  16.138  1.00  0.00     0.006 C 
HETATM   18  C15 UNL     1      45.902  16.742  15.432  1.00  0.00     0.025 C 
HETATM   19  C16 UNL     1      47.383  16.493  15.617  1.00  0.00     0.114 C 
HETATM   20  N3  UNL     1      48.181  17.628  15.269  1.00  0.00    -0.421 N 
HETATM   21  C17 UNL     1      47.797  18.852  15.898  1.00  0.00     0.114 C 
ATOM     22  H3  UNL     1      48.966  17.569  14.621  1.00  0.00     0.153 HD
HETATM   23  C18 UNL     1      46.332  19.145  15.825  1.00  0.00     0.025 C 
ENDBRANCH  16  17
ENDBRANCH  14  16
ENDBRANCH  11  14
ENDBRANCH   7   8
BRANCH   1  24
HETATM   24  C4  UNL     1      45.077  26.185  19.048  1.00  0.00     0.108 C 
BRANCH  24  25
HETATM   25  C3  UNL     1      46.210  27.019  19.548  1.00  0.00     0.063 C 
BRANCH  25  26
HETATM   26  C2  UNL     1      46.866  27.703  18.421  1.00  0.00     0.006 C 
HETATM   27  C1  UNL     1      46.934  27.028  17.109  1.00  0.00     0.065 C 
HETATM   28  N5  UNL     1      47.377  28.868  18.552  1.00  0.00    -0.275 N 
ATOM     29  H5  UNL     1      47.331  29.336  19.458  1.00  0.00     0.193 HD
BRANCH  28  30
HETATM   30  O2  UNL     1      47.981  29.494  17.507  1.00  0.00    -0.271 OA
BRANCH  30  31
HETATM   31  C19 UNL     1      49.349  29.741  17.373  1.00  0.00     0.078 C 
HETATM   32  C20 UNL     1      49.561  30.811  16.323  1.00  0.00     0.048 C 
HETATM   33  C21 UNL     1      49.984  30.252  18.653  1.00  0.00     0.048 C 
HETATM   34  C22 UNL     1      50.069  28.497  16.936  1.00  0.00     0.048 C 
ENDBRANCH  30  31
ENDBRANCH  28  30
ENDBRANCH  25  26
ENDBRANCH  24  25
ENDBRANCH   1  24
TORSDOF 9
ENDMDL
MODEL 2
REMARK VINA RESULT: -9.190362038      1.995      3.324
REMARK  9 active torsions:
REMARK  status: ('A' for Active; 'I' for Inactive)
REMARK    1  A    between atoms: C2_2  and  C3_3 
REMARK    2  A    between atoms: C3_3  and  C4_4 
REMARK    3  A    between atoms: C4_4  and  C5_5 
REMARK       I    between atoms: C5_5  and  N1_7 
REMARK    4  A    between atoms: C9_11  and  C10_12 
REMARK    5  A    between atoms: C12_15  and  N2_16 
REMARK    6  A    between atoms: N2_16  and  C13_18 
REMARK    7  A    between atoms: C13_18  and  C14_19 
REMARK    8  A    between atoms: N5_28  and  O2_30 
REMARK    9  A    between atoms: O2_30  and  C19_31 
ROOT
HETATM    1  C5  UNL     1      46.971  26.487  18.622  1.00  0.00     0.220 C 
HETATM    2  O1  UNL     1      47.930  25.651  18.580  1.00  0.00    -0.273 OA
HETATM    3  N1  UNL     1      45.937  26.243  19.541  1.00  0.00    -0.342 N 
HETATM    4  C6  UNL     1      44.777  27.082  19.726  1.00  0.00     0.127 C 
HETATM    5  C7  UNL     1      44.437  26.922  21.193  1.00  0.00     0.022 C 
HETATM    6  C8  UNL     1      45.301  25.784  21.711  1.00  0.00     0.033 C 
HETATM    7  C9  UNL     1      45.816  25.119  20.483  1.00  0.00     0.137 C 
ENDROOT
BRANCH   7   8
HETATM    8  C10 UNL     1      44.823  24.121  19.913  1.00  0.00     0.041 A 
HETATM    9  C11 UNL     1      43.897  24.517  18.991  1.00  0.00     0.080 A 
HETATM   10  S1  UNL     1      43.063  23.057  18.672  1.00  0.00    -0.064 SA
HETATM   11  C12 UNL     1      43.939  22.042  19.726  1.00  0.00     0.144 A 
HETATM   12  N4  UNL     1      44.826  22.866  20.271  1.00  0.00    -0.338 N 
ATOM     13  H4  UNL     1      45.498  22.524  20.958  1.00  0.00     0.168 HD
BRANCH  11  14
HETATM   14  N2  UNL     1      43.792  20.749  19.961  1.00  0.00    -0.370 N 
ATOM     15  H2  UNL     1      43.534  20.392  20.880  1.00  0.00     0.161 HD
BRANCH  14  16
HETATM   16  C13 UNL     1      44.022  19.873  18.832  1.00  0.00     0.126 C 
BRANCH  16  17
HETATM   17  C14 UNL     1      45.489  19.825  18.458  1.00  0.00     0.006 C 
HETATM   18  C15 UNL     1      45.674  19.316  17.058  1.00  0.00     0.025 C 
HETATM   19  C16 UNL     1      45.538  17.812  16.974  1.00  0.00     0.114 C 
HETATM   20  N3  UNL     1      46.383  17.128  17.904  1.00  0.00    -0.421 N 
HETATM   21  C17 UNL     1      46.268  17.566  19.259  1.00  0.00     0.114 C 
ATOM     22  H3  UNL     1      47.020  16.383  17.621  1.00  0.00     0.153 HD
HETATM   23  C18 UNL     1      46.321  19.051  19.429  1.00  0.00     0.025 C 
ENDBRANCH  16  17
ENDBRANCH  14  16
ENDBRANCH  11  14
ENDBRANCH   7   8
BRANCH   1  24
HETATM   24  C4  UNL     1      47.035  27.627  17.706  1.00  0.00     0.108 C 
BRANCH  24  25
HETATM   25  C3  UNL     1      47.415  28.897  18.392  1.00  0.00     0.063 C 
BRANCH  25  26
HETATM   26  C2  UNL     1      48.725  29.361  17.906  1.00  0.00     0.006 C 
HETATM   27  C1  UNL     1      49.417  28.587  16.854  1.00  0.00     0.065 C 
HETATM   28  N5  UNL     1      49.277  30.416  18.371  1.00  0.00    -0.275 N 
ATOM     29  H5  UNL     1      48.800  30.951  19.096  1.00  0.00     0.193 HD
BRANCH  28  30
HETATM   30  O2  UNL     1      50.487  30.837  17.916  1.00  0.00    -0.271 OA
BRANCH  30  31
HETATM   31  C19 UNL     1      50.742  32.027  17.231  1.00  0.00     0.078 C 
HETATM   32  C20 UNL     1      51.767  32.834  18.000  1.00  0.00     0.048 C 
HETATM   33  C21 UNL     1      51.313  31.800  15.844  1.00  0.00     0.048 C 
HETATM   34  C22 UNL     1      49.486  32.844  17.112  1.00  0.00     0.048 C 
ENDBRANCH  30  31
ENDBRANCH  28  30
ENDBRANCH  25  26
ENDBRANCH  24  25
ENDBRANCH   1  24
TORSDOF 9
ENDMDL
MODEL 3
REMARK VINA RESULT: -9.146977386      1.340      1.499
REMARK  9 active torsions:
REMARK  status: ('A' for Active; 'I' for Inactive)
REMARK    1  A    between atoms: C2_2  and  C3_3 
REMARK    2  A    between atoms: C3_3  and  C4_4 
REMARK    3  A    between atoms: C4_4  and  C5_5 
REMARK       I    between atoms: C5_5  and  N1_7 
REMARK    4  A    between atoms: C9_11  and  C10_12 
REMARK    5  A    between atoms: C12_15  and  N2_16 
REMARK    6  A    between atoms: N2_16  and  C13_18 
REMARK    7  A    between atoms: C13_18  and  C14_19 
REMARK    8  A    between atoms: N5_28  and  O2_30 
REMARK    9  A    between atoms: O2_30  and  C19_31 
ROOT
HETATM    1  C5  UNL     1      46.163  24.975  19.318  1.00  0.00     0.220 C 
HETATM    2  O1  UNL     1      47.181  24.671  20.019  1.00  0.00    -0.273 OA
HETATM    3  N1  UNL     1      44.947  24.343  19.628  1.00  0.00    -0.342 N 
HETATM    4  C6  UNL     1      43.697  24.566  18.943  1.00  0.00     0.127 C 
HETATM    5  C7  UNL     1      42.647  24.359  20.014  1.00  0.00     0.022 C 
HETATM    6  C8  UNL     1      43.372  23.779  21.217  1.00  0.00     0.033 C 
HETATM    7  C9  UNL     1      44.694  23.349  20.684  1.00  0.00     0.137 C 
ENDROOT
BRANCH   7   8
HETATM    8  C10 UNL     1      44.632  21.973  20.042  1.00  0.00     0.041 A 
HETATM    9  C11 UNL     1      43.429  21.357  19.844  1.00  0.00     0.080 A 
HETATM   10  S1  UNL     1      43.899  19.889  19.099  1.00  0.00    -0.064 SA
HETATM   11  C12 UNL     1      45.585  20.151  19.088  1.00  0.00     0.144 A 
HETATM   12  N4  UNL     1      45.709  21.346  19.654  1.00  0.00    -0.338 N 
ATOM     13  H4  UNL     1      46.629  21.766  19.783  1.00  0.00     0.168 HD
BRANCH  11  14
HETATM   14  N2  UNL     1      46.552  19.372  18.634  1.00  0.00    -0.370 N 
ATOM     15  H2  UNL     1      47.529  19.663  18.643  1.00  0.00     0.161 HD
BRANCH  14  16
HETATM   16  C13 UNL     1      46.137  18.083  18.125  1.00  0.00     0.126 C 
BRANCH  16  17
HETATM   17  C14 UNL     1      45.760  18.163  16.659  1.00  0.00     0.006 C 
HETATM   18  C15 UNL     1      45.753  16.801  16.029  1.00  0.00     0.025 C 
HETATM   19  C16 UNL     1      47.149  16.312  15.708  1.00  0.00     0.114 C 
HETATM   20  N3  UNL     1      47.899  17.253  14.935  1.00  0.00    -0.421 N 
HETATM   21  C17 UNL     1      47.943  18.577  15.471  1.00  0.00     0.114 C 
ATOM     22  H3  UNL     1      48.368  16.998  14.066  1.00  0.00     0.153 HD
HETATM   23  C18 UNL     1      46.610  19.116  15.882  1.00  0.00     0.025 C 
ENDBRANCH  16  17
ENDBRANCH  14  16
ENDBRANCH  11  14
ENDBRANCH   7   8
BRANCH   1  24
HETATM   24  C4  UNL     1      46.354  25.958  18.250  1.00  0.00     0.108 C 
BRANCH  24  25
HETATM   25  C3  UNL     1      46.823  27.280  18.760  1.00  0.00     0.063 C 
BRANCH  25  26
HETATM   26  C2  UNL     1      47.703  27.920  17.768  1.00  0.00     0.006 C 
HETATM   27  C1  UNL     1      48.227  27.116  16.646  1.00  0.00     0.065 C 
HETATM   28  N5  UNL     1      48.023  29.155  17.855  1.00  0.00    -0.275 N 
ATOM     29  H5  UNL     1      47.662  29.712  18.629  1.00  0.00     0.193 HD
BRANCH  28  30
HETATM   30  O2  UNL     1      48.836  29.738  16.933  1.00  0.00    -0.271 OA
BRANCH  30  31
HETATM   31  C19 UNL     1      49.787  30.729  17.184  1.00  0.00     0.078 C 
HETATM   32  C20 UNL     1      50.803  30.740  16.061  1.00  0.00     0.048 C 
HETATM   33  C21 UNL     1      49.187  32.122  17.245  1.00  0.00     0.048 C 
HETATM   34  C22 UNL     1      50.506  30.453  18.474  1.00  0.00     0.048 C 
ENDBRANCH  30  31
ENDBRANCH  28  30
ENDBRANCH  25  26
ENDBRANCH  24  25
ENDBRANCH   1  24
TORSDOF 9
ENDMDL
MODEL 4
REMARK VINA RESULT: -9.066830091      1.008      1.217
REMARK  9 active torsions:
REMARK  status: ('A' for Active; 'I' for Inactive)
REMARK    1  A    between atoms: C2_2  and  C3_3 
REMARK    2  A    between atoms: C3_3  and  C4_4 
REMARK    3  A    between atoms: C4_4  and  C5_5 
REMARK       I    between atoms: C5_5  and  N1_7 
REMARK    4  A    between atoms: C9_11  and  C10_12 
REMARK    5  A    between atoms: C12_15  and  N2_16 
REMARK    6  A    between atoms: N2_16  and  C13_18 
REMARK    7  A    between atoms: C13_18  and  C14_19 
REMARK    8  A    between atoms: N5_28  and  O2_30 
REMARK    9  A    between atoms: O2_30  and  C19_31 
ROOT
HETATM    1  C5  UNL     1      45.063  24.738  19.526  1.00  0.00     0.220 C 
HETATM    2  O1  UNL     1      45.686  24.647  20.633  1.00  0.00    -0.273 OA
HETATM    3  N1  UNL     1      43.948  23.904  19.338  1.00  0.00    -0.342 N 
HETATM    4  C6  UNL     1      43.126  23.873  18.153  1.00  0.00     0.127 C 
HETATM    5  C7  UNL     1      41.748  23.513  18.668  1.00  0.00     0.022 C 
HETATM    6  C8  UNL     1      41.927  23.114  20.124  1.00  0.00     0.033 C 
HETATM    7  C9  UNL     1      43.395  22.916  20.277  1.00  0.00     0.137 C 
ENDROOT
BRANCH   7   8
HETATM    8  C10 UNL     1      43.836  21.532  19.831  1.00  0.00     0.041 A 
HETATM    9  C11 UNL     1      42.916  20.538  19.651  1.00  0.00     0.080 A 
HETATM   10  S1  UNL     1      43.898  19.230  19.147  1.00  0.00    -0.064 SA
HETATM   11  C12 UNL     1      45.406  20.025  19.198  1.00  0.00     0.144 A 
HETATM   12  N4  UNL     1      45.089  21.251  19.598  1.00  0.00    -0.338 N 
ATOM     13  H4  UNL     1      45.812  21.960  19.721  1.00  0.00     0.168 HD
BRANCH  11  14
HETATM   14  N2  UNL     1      46.610  19.558  18.914  1.00  0.00    -0.370 N 
ATOM     15  H2  UNL     1      47.455  19.954  19.327  1.00  0.00     0.161 HD
BRANCH  14  16
HETATM   16  C13 UNL     1      46.655  18.453  17.982  1.00  0.00     0.126 C 
BRANCH  16  17
HETATM   17  C14 UNL     1      46.519  18.930  16.550  1.00  0.00     0.006 C 
HETATM   18  C15 UNL     1      45.476  18.142  15.815  1.00  0.00     0.025 C 
HETATM   19  C16 UNL     1      45.985  16.784  15.381  1.00  0.00     0.114 C 
HETATM   20  N3  UNL     1      47.209  16.863  14.645  1.00  0.00    -0.421 N 
HETATM   21  C17 UNL     1      48.249  17.608  15.282  1.00  0.00     0.114 C 
ATOM     22  H3  UNL     1      47.331  16.421  13.734  1.00  0.00     0.153 HD
HETATM   23  C18 UNL     1      47.816  18.940  15.806  1.00  0.00     0.025 C 
ENDBRANCH  16  17
ENDBRANCH  14  16
ENDBRANCH  11  14
ENDBRANCH   7   8
BRANCH   1  24
HETATM   24  C4  UNL     1      45.568  25.705  18.550  1.00  0.00     0.108 C 
BRANCH  24  25
HETATM   25  C3  UNL     1      46.462  26.731  19.164  1.00  0.00     0.063 C 
BRANCH  25  26
HETATM   26  C2  UNL     1      47.131  27.511  18.110  1.00  0.00     0.006 C 
HETATM   27  C1  UNL     1      47.360  26.890  16.790  1.00  0.00     0.065 C 
HETATM   28  N5  UNL     1      47.518  28.713  18.310  1.00  0.00    -0.275 N 
ATOM     29  H5  UNL     1      47.360  29.144  19.221  1.00  0.00     0.193 HD
BRANCH  28  30
HETATM   30  O2  UNL     1      48.135  29.427  17.331  1.00  0.00    -0.271 OA
BRANCH  30  31
HETATM   31  C19 UNL     1      49.481  29.796  17.304  1.00  0.00     0.078 C 
HETATM   32  C20 UNL     1      49.669  30.925  16.313  1.00  0.00     0.048 C 
HETATM   33  C21 UNL     1      49.982  30.301  18.645  1.00  0.00     0.048 C 
HETATM   34  C22 UNL     1      50.336  28.637  16.872  1.00  0.00     0.048 C 
ENDBRANCH  30  31
ENDBRANCH  28  30
ENDBRANCH  25  26
ENDBRANCH  24  25
ENDBRANCH   1  24
TORSDOF 9
ENDMDL
MODEL 5
REMARK VINA RESULT: -8.605620647      2.631      8.812
REMARK  9 active torsions:
REMARK  status: ('A' for Active; 'I' for Inactive)
REMARK    1  A    between atoms: C2_2  and  C3_3 
REMARK    2  A    between atoms: C3_3  and  C4_4 
REMARK    3  A    between atoms: C4_4  and  C5_5 
REMARK       I    between atoms: C5_5  and  N1_7 
REMARK    4  A    between atoms: C9_11  and  C10_12 
REMARK    5  A    between atoms: C12_15  and  N2_16 
REMARK    6  A    between atoms: N2_16  and  C13_18 
REMARK    7  A    between atoms: C13_18  and  C14_19 
REMARK    8  A    between atoms: N5_28  and  O2_30 
REMARK    9  A    between atoms: O2_30  and  C19_31 
ROOT
HETATM    1  C5  UNL     1      44.076  20.712  18.945  1.00  0.00     0.220 C 
HETATM    2  O1  UNL     1      45.108  20.936  18.234  1.00  0.00    -0.273 OA
HETATM    3  N1  UNL     1      43.179  21.775  19.139  1.00  0.00    -0.342 N 
HETATM    4  C6  UNL     1      41.963  21.703  19.912  1.00  0.00     0.127 C 
HETATM    5  C7  UNL     1      41.030  22.678  19.224  1.00  0.00     0.022 C 
HETATM    6  C8  UNL     1      41.877  23.444  18.221  1.00  0.00     0.033 C 
HETATM    7  C9  UNL     1      43.281  23.146  18.615  1.00  0.00     0.137 C 
ENDROOT
BRANCH   7   8
HETATM    8  C10 UNL     1      43.766  24.053  19.735  1.00  0.00     0.041 A 
HETATM    9  C11 UNL     1      43.376  23.827  21.024  1.00  0.00     0.080 A 
HETATM   10  S1  UNL     1      44.187  25.077  21.866  1.00  0.00    -0.064 SA
HETATM   11  C12 UNL     1      44.965  25.803  20.533  1.00  0.00     0.144 A 
HETATM   12  N4  UNL     1      44.568  25.057  19.508  1.00  0.00    -0.338 N 
ATOM     13  H4  UNL     1      44.885  25.265  18.561  1.00  0.00     0.168 HD
BRANCH  11  14
HETATM   14  N2  UNL     1      45.770  26.851  20.500  1.00  0.00    -0.370 N 
ATOM     15  H2  UNL     1      45.645  27.650  21.121  1.00  0.00     0.161 HD
BRANCH  14  16
HETATM   16  C13 UNL     1      46.840  26.794  19.527  1.00  0.00     0.126 C 
BRANCH  16  17
HETATM   17  C14 UNL     1      46.561  27.698  18.344  1.00  0.00     0.006 C 
HETATM   18  C15 UNL     1      46.740  26.963  17.048  1.00  0.00     0.025 C 
HETATM   19  C16 UNL     1      48.198  26.814  16.672  1.00  0.00     0.114 C 
HETATM   20  N3  UNL     1      48.900  28.061  16.677  1.00  0.00    -0.421 N 
HETATM   21  C17 UNL     1      48.768  28.822  17.879  1.00  0.00     0.114 C 
ATOM     22  H3  UNL     1      49.453  28.382  15.883  1.00  0.00     0.153 HD
HETATM   23  C18 UNL     1      47.361  28.961  18.365  1.00  0.00     0.025 C 
ENDBRANCH  16  17
ENDBRANCH  14  16
ENDBRANCH  11  14
ENDBRANCH   7   8
BRANCH   1  24
HETATM   24  C4  UNL     1      43.921  19.365  19.496  1.00  0.00     0.108 C 
BRANCH  24  25
HETATM   25  C3  UNL     1      43.688  18.334  18.441  1.00  0.00     0.063 C 
BRANCH  25  26
HETATM   26  C2  UNL     1      44.963  17.698  18.069  1.00  0.00     0.006 C 
HETATM   27  C1  UNL     1      46.046  17.617  19.069  1.00  0.00     0.065 C 
HETATM   28  N5  UNL     1      45.153  17.214  16.901  1.00  0.00    -0.275 N 
ATOM     29  H5  UNL     1      44.406  17.269  16.209  1.00  0.00     0.193 HD
BRANCH  28  30
HETATM   30  O2  UNL     1      46.334  16.628  16.565  1.00  0.00    -0.271 OA
BRANCH  30  31
HETATM   31  C19 UNL     1      47.110  16.923  15.443  1.00  0.00     0.078 C 
HETATM   32  C20 UNL     1      46.247  16.834  14.202  1.00  0.00     0.048 C 
HETATM   33  C21 UNL     1      47.685  18.327  15.476  1.00  0.00     0.048 C 
HETATM   34  C22 UNL     1      48.238  15.939  15.310  1.00  0.00     0.048 C 
ENDBRANCH  30  31
ENDBRANCH  28  30
ENDBRANCH  25  26
ENDBRANCH  24  25
ENDBRANCH   1  24
TORSDOF 9
ENDMDL
