MODEL 1
REMARK VINA RESULT: -7.817671679      0.000      0.000
REMARK  9 active torsions:
REMARK  status: ('A' for Active; 'I' for Inactive)
REMARK    1  A    between atoms: C2_2  and  C3_3 
REMARK    2  A    between atoms: C3_3  and  N1_4 
REMARK    3  A    between atoms: N1_4  and  C5_6 
REMARK    4  A    between atoms: C5_6  and  C6_7 
REMARK    5  A    between atoms: C6_7  and  C7_8 
REMARK    6  A    between atoms: C7_8  and  O1_9 
REMARK    7  A    between atoms: O1_9  and  C8_10 
REMARK    8  A    between atoms: C11_13  and  O2_14 
REMARK    9  A    between atoms: C17_23  and  O4_24 
ROOT
HETATM    1  C8  UNL     1      43.664  19.318  19.174  1.00  0.00     0.095 A 
HETATM    2  C9  UNL     1      42.387  19.814  18.960  1.00  0.00     0.007 A 
HETATM    3  C10 UNL     1      41.254  18.877  18.755  1.00  0.00     0.054 C 
HETATM    4  C11 UNL     1      42.183  21.174  18.941  1.00  0.00     0.089 A 
HETATM    5  C12 UNL     1      43.261  22.028  19.137  1.00  0.00     0.064 A 
HETATM    6  C13 UNL     1      44.528  21.551  19.349  1.00  0.00     0.052 A 
HETATM    7  C14 UNL     1      44.721  20.185  19.365  1.00  0.00     0.060 A 
HETATM    8 BR1  UNL     1      46.446  19.490  19.653  1.00  0.00    -0.047 Br
HETATM    9  C15 UNL     1      45.696  22.438  19.559  1.00  0.00     0.198 A 
HETATM   10  O3  UNL     1      46.819  21.908  19.745  1.00  0.00    -0.286 OA
HETATM   11  C16 UNL     1      45.526  23.883  19.547  1.00  0.00     0.062 A 
HETATM   12  C17 UNL     1      46.605  24.743  19.741  1.00  0.00     0.080 A 
HETATM   13  C18 UNL     1      46.333  26.134  19.710  1.00  0.00     0.037 A 
HETATM   14  C19 UNL     1      45.072  26.623  19.499  1.00  0.00     0.004 A 
HETATM   15  C20 UNL     1      44.044  25.727  19.312  1.00  0.00     0.017 A 
HETATM   16  C21 UNL     1      44.242  24.361  19.332  1.00  0.00     0.032 A 
HETATM   17  C22 UNL     1      43.085  23.472  19.124  1.00  0.00     0.197 A 
HETATM   18  O5  UNL     1      41.938  23.940  18.932  1.00  0.00    -0.286 OA
ENDROOT
BRANCH   1  19
HETATM   19  O1  UNL     1      43.802  17.939  19.180  1.00  0.00    -0.349 OA
BRANCH  19  20
HETATM   20  C7  UNL     1      44.227  17.316  17.991  1.00  0.00     0.177 C 
BRANCH  20  21
HETATM   21  C6  UNL     1      45.521  16.532  18.201  1.00  0.00     0.057 C 
BRANCH  21  22
HETATM   22  C5  UNL     1      45.729  15.738  16.931  1.00  0.00     0.274 C 
BRANCH  22  23
HETATM   23  N1  UNL     1      46.887  16.125  16.199  1.00  0.00     0.087 N 
HETATM   24  C4  UNL     1      47.655  15.012  15.694  1.00  0.00     0.310 C 
BRANCH  23  25
HETATM   25  C3  UNL     1      46.705  17.128  15.206  1.00  0.00     0.298 C 
BRANCH  25  26
HETATM   26  C2  UNL     1      47.229  18.436  15.620  1.00  0.00    -0.007 C 
HETATM   27  C1  UNL     1      46.442  19.463  15.937  1.00  0.00     0.008 C 
ENDBRANCH  25  26
ENDBRANCH  23  25
ENDBRANCH  22  23
ENDBRANCH  21  22
ENDBRANCH  20  21
ENDBRANCH  19  20
ENDBRANCH   1  19
BRANCH   4  28
HETATM   28  O2  UNL     1      40.909  21.710  18.729  1.00  0.00    -0.359 OA
ATOM     29  H2  UNL     1      40.641  22.520  19.149  1.00  0.00     0.217 HD
ENDBRANCH   4  28
BRANCH  12  30
HETATM   30  O4  UNL     1      47.874  24.332  19.955  1.00  0.00    -0.360 OA
ATOM     31  H4  UNL     1      48.626  24.912  19.980  1.00  0.00     0.217 HD
ENDBRANCH  12  30
TORSDOF 9
ENDMDL
MODEL 2
REMARK VINA RESULT: -7.515592153      0.763      1.387
REMARK  9 active torsions:
REMARK  status: ('A' for Active; 'I' for Inactive)
REMARK    1  A    between atoms: C2_2  and  C3_3 
REMARK    2  A    between atoms: C3_3  and  N1_4 
REMARK    3  A    between atoms: N1_4  and  C5_6 
REMARK    4  A    between atoms: C5_6  and  C6_7 
REMARK    5  A    between atoms: C6_7  and  C7_8 
REMARK    6  A    between atoms: C7_8  and  O1_9 
REMARK    7  A    between atoms: O1_9  and  C8_10 
REMARK    8  A    between atoms: C11_13  and  O2_14 
REMARK    9  A    between atoms: C17_23  and  O4_24 
ROOT
HETATM    1  C8  UNL     1      43.527  19.280  19.265  1.00  0.00     0.095 A 
HETATM    2  C9  UNL     1      42.273  19.803  18.986  1.00  0.00     0.007 A 
HETATM    3  C10 UNL     1      41.120  18.890  18.781  1.00  0.00     0.054 C 
HETATM    4  C11 UNL     1      42.110  21.166  18.903  1.00  0.00     0.089 A 
HETATM    5  C12 UNL     1      43.205  21.997  19.100  1.00  0.00     0.064 A 
HETATM    6  C13 UNL     1      44.449  21.494  19.376  1.00  0.00     0.052 A 
HETATM    7  C14 UNL     1      44.602  20.125  19.457  1.00  0.00     0.060 A 
HETATM    8 BR1  UNL     1      46.295  19.394  19.834  1.00  0.00    -0.047 Br
HETATM    9  C15 UNL     1      45.636  22.356  19.590  1.00  0.00     0.198 A 
HETATM   10  O3  UNL     1      46.736  21.804  19.837  1.00  0.00    -0.286 OA
HETATM   11  C16 UNL     1      45.509  23.803  19.511  1.00  0.00     0.062 A 
HETATM   12  C17 UNL     1      46.606  24.640  19.706  1.00  0.00     0.080 A 
HETATM   13  C18 UNL     1      46.376  26.036  19.606  1.00  0.00     0.037 A 
HETATM   14  C19 UNL     1      45.138  26.550  19.331  1.00  0.00     0.004 A 
HETATM   15  C20 UNL     1      44.090  25.676  19.147  1.00  0.00     0.017 A 
HETATM   16  C21 UNL     1      44.248  24.308  19.231  1.00  0.00     0.032 A 
HETATM   17  C22 UNL     1      43.073  23.443  19.020  1.00  0.00     0.197 A 
HETATM   18  O5  UNL     1      41.947  23.934  18.769  1.00  0.00    -0.286 OA
ENDROOT
BRANCH   1  19
HETATM   19  O1  UNL     1      43.623  17.899  19.334  1.00  0.00    -0.349 OA
BRANCH  19  20
HETATM   20  C7  UNL     1      44.725  17.286  18.708  1.00  0.00     0.177 C 
BRANCH  20  21
HETATM   21  C6  UNL     1      44.740  17.563  17.206  1.00  0.00     0.057 C 
BRANCH  21  22
HETATM   22  C5  UNL     1      46.111  17.142  16.725  1.00  0.00     0.274 C 
BRANCH  22  23
HETATM   23  N1  UNL     1      46.665  18.015  15.747  1.00  0.00     0.087 N 
HETATM   24  C4  UNL     1      46.394  19.411  15.994  1.00  0.00     0.310 C 
BRANCH  23  25
HETATM   25  C3  UNL     1      48.030  17.801  15.404  1.00  0.00     0.298 C 
BRANCH  25  26
HETATM   26  C2  UNL     1      48.226  16.590  14.595  1.00  0.00    -0.007 C 
HETATM   27  C1  UNL     1      47.660  16.419  13.401  1.00  0.00     0.008 C 
ENDBRANCH  25  26
ENDBRANCH  23  25
ENDBRANCH  22  23
ENDBRANCH  21  22
ENDBRANCH  20  21
ENDBRANCH  19  20
ENDBRANCH   1  19
BRANCH   4  28
HETATM   28  O2  UNL     1      40.860  21.728  18.624  1.00  0.00    -0.359 OA
ATOM     29  H2  UNL     1      40.661  22.080  17.764  1.00  0.00     0.217 HD
ENDBRANCH   4  28
BRANCH  12  30
HETATM   30  O4  UNL     1      47.854  24.203  19.981  1.00  0.00    -0.360 OA
ATOM     31  H4  UNL     1      48.051  23.355  20.361  1.00  0.00     0.217 HD
ENDBRANCH  12  30
TORSDOF 9
ENDMDL
MODEL 3
REMARK VINA RESULT: -7.210051047      0.864      1.271
REMARK  9 active torsions:
REMARK  status: ('A' for Active; 'I' for Inactive)
REMARK    1  A    between atoms: C2_2  and  C3_3 
REMARK    2  A    between atoms: C3_3  and  N1_4 
REMARK    3  A    between atoms: N1_4  and  C5_6 
REMARK    4  A    between atoms: C5_6  and  C6_7 
REMARK    5  A    between atoms: C6_7  and  C7_8 
REMARK    6  A    between atoms: C7_8  and  O1_9 
REMARK    7  A    between atoms: O1_9  and  C8_10 
REMARK    8  A    between atoms: C11_13  and  O2_14 
REMARK    9  A    between atoms: C17_23  and  O4_24 
ROOT
HETATM    1  C8  UNL     1      43.661  19.311  19.156  1.00  0.00     0.095 A 
HETATM    2  C9  UNL     1      42.380  19.803  18.957  1.00  0.00     0.007 A 
HETATM    3  C10 UNL     1      41.249  18.862  18.752  1.00  0.00     0.054 C 
HETATM    4  C11 UNL     1      42.169  21.162  18.952  1.00  0.00     0.089 A 
HETATM    5  C12 UNL     1      43.244  22.020  19.148  1.00  0.00     0.064 A 
HETATM    6  C13 UNL     1      44.515  21.547  19.345  1.00  0.00     0.052 A 
HETATM    7  C14 UNL     1      44.715  20.182  19.347  1.00  0.00     0.060 A 
HETATM    8 BR1  UNL     1      46.445  19.492  19.615  1.00  0.00    -0.047 Br
HETATM    9  C15 UNL     1      45.680  22.437  19.554  1.00  0.00     0.198 A 
HETATM   10  O3  UNL     1      46.808  21.912  19.727  1.00  0.00    -0.286 OA
HETATM   11  C16 UNL     1      45.503  23.881  19.557  1.00  0.00     0.062 A 
HETATM   12  C17 UNL     1      46.579  24.745  19.750  1.00  0.00     0.080 A 
HETATM   13  C18 UNL     1      46.300  26.135  19.734  1.00  0.00     0.037 A 
HETATM   14  C19 UNL     1      45.036  26.620  19.537  1.00  0.00     0.004 A 
HETATM   15  C20 UNL     1      44.010  25.720  19.351  1.00  0.00     0.017 A 
HETATM   16  C21 UNL     1      44.215  24.356  19.357  1.00  0.00     0.032 A 
HETATM   17  C22 UNL     1      43.061  23.462  19.149  1.00  0.00     0.197 A 
HETATM   18  O5  UNL     1      41.910  23.927  18.971  1.00  0.00    -0.286 OA
ENDROOT
BRANCH   1  19
HETATM   19  O1  UNL     1      43.805  17.932  19.148  1.00  0.00    -0.349 OA
BRANCH  19  20
HETATM   20  C7  UNL     1      44.305  17.332  17.977  1.00  0.00     0.177 C 
BRANCH  20  21
HETATM   21  C6  UNL     1      45.652  16.655  18.226  1.00  0.00     0.057 C 
BRANCH  21  22
HETATM   22  C5  UNL     1      45.842  15.688  17.079  1.00  0.00     0.274 C 
BRANCH  22  23
HETATM   23  N1  UNL     1      45.935  16.322  15.808  1.00  0.00     0.087 N 
HETATM   24  C4  UNL     1      47.153  17.074  15.621  1.00  0.00     0.310 C 
BRANCH  23  25
HETATM   25  C3  UNL     1      45.640  15.516  14.672  1.00  0.00     0.298 C 
BRANCH  25  26
HETATM   26  C2  UNL     1      46.026  16.157  13.408  1.00  0.00    -0.007 C 
HETATM   27  C1  UNL     1      45.256  16.132  12.321  1.00  0.00     0.008 C 
ENDBRANCH  25  26
ENDBRANCH  23  25
ENDBRANCH  22  23
ENDBRANCH  21  22
ENDBRANCH  20  21
ENDBRANCH  19  20
ENDBRANCH   1  19
BRANCH   4  28
HETATM   28  O2  UNL     1      40.890  21.694  18.756  1.00  0.00    -0.359 OA
ATOM     29  H2  UNL     1      40.292  21.311  18.124  1.00  0.00     0.217 HD
ENDBRANCH   4  28
BRANCH  12  30
HETATM   30  O4  UNL     1      47.852  24.338  19.950  1.00  0.00    -0.360 OA
ATOM     31  H4  UNL     1      48.267  24.282  20.803  1.00  0.00     0.217 HD
ENDBRANCH  12  30
TORSDOF 9
ENDMDL
MODEL 4
REMARK VINA RESULT: -7.159578752      5.266      8.321
REMARK  9 active torsions:
REMARK  status: ('A' for Active; 'I' for Inactive)
REMARK    1  A    between atoms: C2_2  and  C3_3 
REMARK    2  A    between atoms: C3_3  and  N1_4 
REMARK    3  A    between atoms: N1_4  and  C5_6 
REMARK    4  A    between atoms: C5_6  and  C6_7 
REMARK    5  A    between atoms: C6_7  and  C7_8 
REMARK    6  A    between atoms: C7_8  and  O1_9 
REMARK    7  A    between atoms: O1_9  and  C8_10 
REMARK    8  A    between atoms: C11_13  and  O2_14 
REMARK    9  A    between atoms: C17_23  and  O4_24 
ROOT
HETATM    1  C8  UNL     1      44.268  25.193  19.931  1.00  0.00     0.095 A 
HETATM    2  C9  UNL     1      44.607  25.690  21.181  1.00  0.00     0.007 A 
HETATM    3  C10 UNL     1      45.547  26.833  21.293  1.00  0.00     0.054 C 
HETATM    4  C11 UNL     1      44.066  25.116  22.308  1.00  0.00     0.089 A 
HETATM    5  C12 UNL     1      43.187  24.048  22.174  1.00  0.00     0.064 A 
HETATM    6  C13 UNL     1      42.845  23.548  20.946  1.00  0.00     0.052 A 
HETATM    7  C14 UNL     1      43.394  24.130  19.823  1.00  0.00     0.060 A 
HETATM    8 BR1  UNL     1      42.949  23.472  18.117  1.00  0.00    -0.047 Br
HETATM    9  C15 UNL     1      41.912  22.409  20.774  1.00  0.00     0.198 A 
HETATM   10  O3  UNL     1      41.658  22.019  19.607  1.00  0.00    -0.286 OA
HETATM   11  C16 UNL     1      41.316  21.772  21.938  1.00  0.00     0.062 A 
HETATM   12  C17 UNL     1      40.437  20.699  21.809  1.00  0.00     0.080 A 
HETATM   13  C18 UNL     1      39.912  20.149  23.006  1.00  0.00     0.037 A 
HETATM   14  C19 UNL     1      40.247  20.640  24.238  1.00  0.00     0.004 A 
HETATM   15  C20 UNL     1      41.121  21.701  24.307  1.00  0.00     0.017 A 
HETATM   16  C21 UNL     1      41.666  22.282  23.179  1.00  0.00     0.032 A 
HETATM   17  C22 UNL     1      42.595  23.415  23.342  1.00  0.00     0.197 A 
HETATM   18  O5  UNL     1      42.889  23.850  24.481  1.00  0.00    -0.286 OA
ENDROOT
BRANCH   1  19
HETATM   19  O1  UNL     1      44.849  25.815  18.837  1.00  0.00    -0.349 OA
BRANCH  19  20
HETATM   20  C7  UNL     1      46.219  25.589  18.604  1.00  0.00     0.177 C 
BRANCH  20  21
HETATM   21  C6  UNL     1      46.752  26.481  17.486  1.00  0.00     0.057 C 
BRANCH  21  22
HETATM   22  C5  UNL     1      46.993  27.833  18.120  1.00  0.00     0.274 C 
BRANCH  22  23
HETATM   23  N1  UNL     1      48.288  28.363  17.858  1.00  0.00     0.087 N 
HETATM   24  C4  UNL     1      48.853  27.924  16.604  1.00  0.00     0.310 C 
BRANCH  23  25
HETATM   25  C3  UNL     1      48.451  29.765  18.043  1.00  0.00     0.298 C 
BRANCH  25  26
HETATM   26  C2  UNL     1      49.449  30.343  17.133  1.00  0.00    -0.007 C 
HETATM   27  C1  UNL     1      50.364  31.225  17.531  1.00  0.00     0.008 C 
ENDBRANCH  25  26
ENDBRANCH  23  25
ENDBRANCH  22  23
ENDBRANCH  21  22
ENDBRANCH  20  21
ENDBRANCH  19  20
ENDBRANCH   1  19
BRANCH   4  28
HETATM   28  O2  UNL     1      44.384  25.592  23.584  1.00  0.00    -0.359 OA
ATOM     29  H2  UNL     1      43.723  25.992  24.137  1.00  0.00     0.217 HD
ENDBRANCH   4  28
BRANCH  12  30
HETATM   30  O4  UNL     1      40.062  20.164  20.626  1.00  0.00    -0.360 OA
ATOM     31  H4  UNL     1      39.406  19.483  20.533  1.00  0.00     0.217 HD
ENDBRANCH  12  30
TORSDOF 9
ENDMDL
MODEL 5
REMARK VINA RESULT: -7.144944544      4.826      7.690
REMARK  9 active torsions:
REMARK  status: ('A' for Active; 'I' for Inactive)
REMARK    1  A    between atoms: C2_2  and  C3_3 
REMARK    2  A    between atoms: C3_3  and  N1_4 
REMARK    3  A    between atoms: N1_4  and  C5_6 
REMARK    4  A    between atoms: C5_6  and  C6_7 
REMARK    5  A    between atoms: C6_7  and  C7_8 
REMARK    6  A    between atoms: C7_8  and  O1_9 
REMARK    7  A    between atoms: O1_9  and  C8_10 
REMARK    8  A    between atoms: C11_13  and  O2_14 
REMARK    9  A    between atoms: C17_23  and  O4_24 
ROOT
HETATM    1  C8  UNL     1      43.313  23.830  20.283  1.00  0.00     0.095 A 
HETATM    2  C9  UNL     1      42.658  23.142  19.274  1.00  0.00     0.007 A 
HETATM    3  C10 UNL     1      43.025  23.380  17.855  1.00  0.00     0.054 C 
HETATM    4  C11 UNL     1      41.671  22.240  19.599  1.00  0.00     0.089 A 
HETATM    5  C12 UNL     1      41.348  22.035  20.935  1.00  0.00     0.064 A 
HETATM    6  C13 UNL     1      41.987  22.709  21.941  1.00  0.00     0.052 A 
HETATM    7  C14 UNL     1      42.975  23.611  21.604  1.00  0.00     0.060 A 
HETATM    8 BR1  UNL     1      43.878  24.558  22.957  1.00  0.00    -0.047 Br
HETATM    9  C15 UNL     1      41.663  22.512  23.374  1.00  0.00     0.198 A 
HETATM   10  O3  UNL     1      42.303  23.176  24.226  1.00  0.00    -0.286 OA
HETATM   11  C16 UNL     1      40.626  21.569  23.763  1.00  0.00     0.062 A 
HETATM   12  C17 UNL     1      40.298  21.362  25.101  1.00  0.00     0.080 A 
HETATM   13  C18 UNL     1      39.272  20.421  25.374  1.00  0.00     0.037 A 
HETATM   14  C19 UNL     1      38.625  19.742  24.377  1.00  0.00     0.004 A 
HETATM   15  C20 UNL     1      38.991  19.987  23.073  1.00  0.00     0.017 A 
HETATM   16  C21 UNL     1      39.981  20.888  22.741  1.00  0.00     0.032 A 
HETATM   17  C22 UNL     1      40.310  21.091  21.318  1.00  0.00     0.197 A 
HETATM   18  O5  UNL     1      39.706  20.458  20.420  1.00  0.00    -0.286 OA
ENDROOT
BRANCH   1  19
HETATM   19  O1  UNL     1      44.296  24.724  19.888  1.00  0.00    -0.349 OA
BRANCH  19  20
HETATM   20  C7  UNL     1      45.624  24.260  19.841  1.00  0.00     0.177 C 
BRANCH  20  21
HETATM   21  C6  UNL     1      46.590  25.366  19.423  1.00  0.00     0.057 C 
BRANCH  21  22
HETATM   22  C5  UNL     1      46.006  25.967  18.164  1.00  0.00     0.274 C 
BRANCH  22  23
HETATM   23  N1  UNL     1      46.609  27.201  17.788  1.00  0.00     0.087 N 
HETATM   24  C4  UNL     1      46.730  28.144  18.874  1.00  0.00     0.310 C 
BRANCH  23  25
HETATM   25  C3  UNL     1      47.813  27.115  17.033  1.00  0.00     0.298 C 
BRANCH  25  26
HETATM   26  C2  UNL     1      48.726  28.235  17.298  1.00  0.00    -0.007 C 
HETATM   27  C1  UNL     1      49.289  28.953  16.328  1.00  0.00     0.008 C 
ENDBRANCH  25  26
ENDBRANCH  23  25
ENDBRANCH  22  23
ENDBRANCH  21  22
ENDBRANCH  20  21
ENDBRANCH  19  20
ENDBRANCH   1  19
BRANCH   4  28
HETATM   28  O2  UNL     1      40.990  21.527  18.608  1.00  0.00    -0.359 OA
ATOM     29  H2  UNL     1      41.065  20.582  18.544  1.00  0.00     0.217 HD
ENDBRANCH   4  28
BRANCH  12  30
HETATM   30  O4  UNL     1      40.893  21.995  26.135  1.00  0.00    -0.360 OA
ATOM     31  H4  UNL     1      40.648  21.877  27.045  1.00  0.00     0.217 HD
ENDBRANCH  12  30
TORSDOF 9
ENDMDL
