MODEL 1
REMARK VINA RESULT: -9.504665858      0.000      0.000
REMARK  4 active torsions:
REMARK  status: ('A' for Active; 'I' for Inactive)
REMARK    1  A    between atoms: C4_5  and  N1_6 
REMARK    2  A    between atoms: C9_14  and  C10_15 
REMARK    3  A    between atoms: N3_18  and  C13_19 
REMARK    4  A    between atoms: C13_19  and  C14_20 
ROOT
HETATM    1 CL1  UNL     1      17.562  50.319  25.996  1.00  0.00    -0.082 Cl
HETATM    2  C1  UNL     1      17.859  51.662  27.074  1.00  0.00     0.061 A 
HETATM    3  C2  UNL     1      19.158  52.189  27.007  1.00  0.00     0.030 A 
HETATM    4  C3  UNL     1      19.453  53.276  27.773  1.00  0.00     0.051 A 
HETATM    5  C4  UNL     1      18.513  53.847  28.592  1.00  0.00     0.113 A 
HETATM    6  N2  UNL     1      17.303  53.295  28.609  1.00  0.00    -0.340 N 
ATOM      7  H2  UNL     1      16.601  53.715  29.218  1.00  0.00     0.167 HD
HETATM    8  C9  UNL     1      16.932  52.217  27.879  1.00  0.00     0.062 A 
ENDROOT
BRANCH   8   9
HETATM    9  C10 UNL     1      15.563  51.699  28.082  1.00  0.00    -0.024 C 
HETATM   10  C11 UNL     1      15.216  50.598  28.655  1.00  0.00     0.027 C 
HETATM   11  C12 UNL     1      13.820  50.157  28.808  1.00  0.00     0.090 C 
HETATM   12  N3  UNL     1      12.862  50.858  28.098  1.00  0.00    -0.368 N 
HETATM   13  C15 UNL     1      13.108  52.179  27.715  1.00  0.00     0.068 C 
HETATM   14  C16 UNL     1      14.494  52.585  27.516  1.00  0.00     0.085 C 
BRANCH  12  15
HETATM   15  C13 UNL     1      11.804  50.143  27.496  1.00  0.00     0.159 C 
BRANCH  15  16
HETATM   16  C14 UNL     1      10.490  50.656  28.091  1.00  0.00     0.172 C 
HETATM   17 CL2  UNL     1       9.477  49.314  28.639  1.00  0.00    -0.111 Cl
HETATM   18 BR1  UNL     1       9.511  51.700  26.814  1.00  0.00    -0.073 Br
ENDBRANCH  15  16
ENDBRANCH  12  15
ENDBRANCH   8   9
BRANCH   5  19
HETATM   19  N1  UNL     1      18.827  54.983  29.373  1.00  0.00    -0.307 N 
HETATM   20  C5  UNL     1      18.202  56.273  29.289  1.00  0.00     0.138 C 
HETATM   21  C6  UNL     1      17.873  56.710  30.701  1.00  0.00     0.022 C 
HETATM   22  C7  UNL     1      19.023  57.197  31.498  1.00  0.00     0.013 C 
HETATM   23  C8  UNL     1      20.355  56.576  31.158  1.00  0.00     0.098 C 
HETATM   24  S1  UNL     1      20.115  54.849  30.572  1.00  0.00    -0.052 SA
ENDBRANCH   5  19
TORSDOF 4
ENDMDL
MODEL 2
REMARK VINA RESULT: -9.488079569      1.042      1.335
REMARK  4 active torsions:
REMARK  status: ('A' for Active; 'I' for Inactive)
REMARK    1  A    between atoms: C4_5  and  N1_6 
REMARK    2  A    between atoms: C9_14  and  C10_15 
REMARK    3  A    between atoms: N3_18  and  C13_19 
REMARK    4  A    between atoms: C13_19  and  C14_20 
ROOT
HETATM    1 CL1  UNL     1      17.526  50.612  26.197  1.00  0.00    -0.082 Cl
HETATM    2  C1  UNL     1      17.987  51.854  27.337  1.00  0.00     0.061 A 
HETATM    3  C2  UNL     1      19.354  52.171  27.335  1.00  0.00     0.030 A 
HETATM    4  C3  UNL     1      19.785  53.171  28.153  1.00  0.00     0.051 A 
HETATM    5  C4  UNL     1      18.915  53.856  28.961  1.00  0.00     0.113 A 
HETATM    6  N2  UNL     1      17.633  53.502  28.915  1.00  0.00    -0.340 N 
ATOM      7  H2  UNL     1      16.982  54.008  29.516  1.00  0.00     0.167 HD
HETATM    8  C9  UNL     1      17.127  52.522  28.131  1.00  0.00     0.062 A 
ENDROOT
BRANCH   8   9
HETATM    9  C10 UNL     1      15.687  52.221  28.266  1.00  0.00    -0.024 C 
HETATM   10  C11 UNL     1      15.113  51.514  29.179  1.00  0.00     0.027 C 
HETATM   11  C12 UNL     1      13.665  51.261  29.231  1.00  0.00     0.090 C 
HETATM   12  N3  UNL     1      12.927  51.618  28.117  1.00  0.00    -0.368 N 
HETATM   13  C15 UNL     1      13.402  52.612  27.258  1.00  0.00     0.068 C 
HETATM   14  C16 UNL     1      14.844  52.813  27.177  1.00  0.00     0.085 C 
BRANCH  12  15
HETATM   15  C13 UNL     1      11.887  50.764  27.689  1.00  0.00     0.159 C 
BRANCH  15  16
HETATM   16  C14 UNL     1      10.561  51.358  28.173  1.00  0.00     0.172 C 
HETATM   17 CL2  UNL     1       9.419  50.080  28.610  1.00  0.00    -0.111 Cl
HETATM   18 BR1  UNL     1       9.770  52.475  26.830  1.00  0.00    -0.073 Br
ENDBRANCH  15  16
ENDBRANCH  12  15
ENDBRANCH   8   9
BRANCH   5  19
HETATM   19  N1  UNL     1      19.372  54.901  29.796  1.00  0.00    -0.307 N 
HETATM   20  C5  UNL     1      20.075  54.751  31.039  1.00  0.00     0.138 C 
HETATM   21  C6  UNL     1      21.262  55.692  31.004  1.00  0.00     0.022 C 
HETATM   22  C7  UNL     1      20.944  57.121  31.230  1.00  0.00     0.013 C 
HETATM   23  C8  UNL     1      19.579  57.561  30.764  1.00  0.00     0.098 C 
HETATM   24  S1  UNL     1      19.058  56.567  29.306  1.00  0.00    -0.052 SA
ENDBRANCH   5  19
TORSDOF 4
ENDMDL
MODEL 3
REMARK VINA RESULT: -9.220419651      1.494      1.732
REMARK  4 active torsions:
REMARK  status: ('A' for Active; 'I' for Inactive)
REMARK    1  A    between atoms: C4_5  and  N1_6 
REMARK    2  A    between atoms: C9_14  and  C10_15 
REMARK    3  A    between atoms: N3_18  and  C13_19 
REMARK    4  A    between atoms: C13_19  and  C14_20 
ROOT
HETATM    1 CL1  UNL     1      17.388  50.625  26.134  1.00  0.00    -0.082 Cl
HETATM    2  C1  UNL     1      17.890  51.839  27.286  1.00  0.00     0.061 A 
HETATM    3  C2  UNL     1      19.272  52.081  27.314  1.00  0.00     0.030 A 
HETATM    4  C3  UNL     1      19.738  53.057  28.143  1.00  0.00     0.051 A 
HETATM    5  C4  UNL     1      18.889  53.787  28.933  1.00  0.00     0.113 A 
HETATM    6  N2  UNL     1      17.591  53.503  28.858  1.00  0.00    -0.340 N 
ATOM      7  H2  UNL     1      16.955  54.044  29.445  1.00  0.00     0.167 HD
HETATM    8  C9  UNL     1      17.051  52.552  28.062  1.00  0.00     0.062 A 
ENDROOT
BRANCH   8   9
HETATM    9  C10 UNL     1      15.593  52.330  28.164  1.00  0.00    -0.024 C 
HETATM   10  C11 UNL     1      14.965  51.631  29.046  1.00  0.00     0.027 C 
HETATM   11  C12 UNL     1      13.504  51.459  29.068  1.00  0.00     0.090 C 
HETATM   12  N3  UNL     1      12.807  51.888  27.953  1.00  0.00    -0.368 N 
HETATM   13  C15 UNL     1      13.352  52.877  27.131  1.00  0.00     0.068 C 
HETATM   14  C16 UNL     1      14.804  52.999  27.079  1.00  0.00     0.085 C 
BRANCH  12  15
HETATM   15  C13 UNL     1      11.729  51.107  27.483  1.00  0.00     0.159 C 
BRANCH  15  16
HETATM   16  C14 UNL     1      11.835  49.722  28.128  1.00  0.00     0.172 C 
HETATM   17 CL2  UNL     1      12.835  48.643  27.147  1.00  0.00    -0.111 Cl
HETATM   18 BR1  UNL     1      10.104  48.931  28.364  1.00  0.00    -0.073 Br
ENDBRANCH  15  16
ENDBRANCH  12  15
ENDBRANCH   8   9
BRANCH   5  19
HETATM   19  N1  UNL     1      19.383  54.806  29.779  1.00  0.00    -0.307 N 
HETATM   20  C5  UNL     1      20.075  54.617  31.024  1.00  0.00     0.138 C 
HETATM   21  C6  UNL     1      21.297  55.511  31.003  1.00  0.00     0.022 C 
HETATM   22  C7  UNL     1      21.036  56.949  31.240  1.00  0.00     0.013 C 
HETATM   23  C8  UNL     1      19.691  57.447  30.772  1.00  0.00     0.098 C 
HETATM   24  S1  UNL     1      19.137  56.488  29.304  1.00  0.00    -0.052 SA
ENDBRANCH   5  19
TORSDOF 4
ENDMDL
MODEL 4
REMARK VINA RESULT: -9.197168981      1.344      1.853
REMARK  4 active torsions:
REMARK  status: ('A' for Active; 'I' for Inactive)
REMARK    1  A    between atoms: C4_5  and  N1_6 
REMARK    2  A    between atoms: C9_14  and  C10_15 
REMARK    3  A    between atoms: N3_18  and  C13_19 
REMARK    4  A    between atoms: C13_19  and  C14_20 
ROOT
HETATM    1 CL1  UNL     1      17.977  50.351  26.220  1.00  0.00    -0.082 Cl
HETATM    2  C1  UNL     1      18.205  51.694  27.315  1.00  0.00     0.061 A 
HETATM    3  C2  UNL     1      19.545  52.007  27.584  1.00  0.00     0.030 A 
HETATM    4  C3  UNL     1      19.809  53.080  28.382  1.00  0.00     0.051 A 
HETATM    5  C4  UNL     1      18.798  53.838  28.914  1.00  0.00     0.113 A 
HETATM    6  N2  UNL     1      17.550  53.483  28.619  1.00  0.00    -0.340 N 
ATOM      7  H2  UNL     1      16.794  54.043  29.014  1.00  0.00     0.167 HD
HETATM    8  C9  UNL     1      17.207  52.434  27.837  1.00  0.00     0.062 A 
ENDROOT
BRANCH   8   9
HETATM    9  C10 UNL     1      15.766  52.148  27.678  1.00  0.00    -0.024 C 
HETATM   10  C11 UNL     1      14.855  52.933  27.213  1.00  0.00     0.027 C 
HETATM   11  C12 UNL     1      13.435  52.565  27.096  1.00  0.00     0.090 C 
HETATM   12  N3  UNL     1      13.038  51.400  27.728  1.00  0.00    -0.368 N 
HETATM   13  C15 UNL     1      13.972  50.393  27.981  1.00  0.00     0.068 C 
HETATM   14  C16 UNL     1      15.367  50.781  28.148  1.00  0.00     0.085 C 
BRANCH  12  15
HETATM   15  C13 UNL     1      11.791  51.379  28.391  1.00  0.00     0.159 C 
BRANCH  15  16
HETATM   16  C14 UNL     1      10.703  51.140  27.341  1.00  0.00     0.172 C 
HETATM   17 CL2  UNL     1       9.844  52.640  26.968  1.00  0.00    -0.111 Cl
HETATM   18 BR1  UNL     1       9.440  49.825  27.937  1.00  0.00    -0.073 Br
ENDBRANCH  15  16
ENDBRANCH  12  15
ENDBRANCH   8   9
BRANCH   5  19
HETATM   19  N1  UNL     1      19.084  54.956  29.730  1.00  0.00    -0.307 N 
HETATM   20  C5  UNL     1      19.832  54.947  30.955  1.00  0.00     0.138 C 
HETATM   21  C6  UNL     1      20.833  56.081  30.884  1.00  0.00     0.022 C 
HETATM   22  C7  UNL     1      20.274  57.434  31.109  1.00  0.00     0.013 C 
HETATM   23  C8  UNL     1      18.841  57.622  30.675  1.00  0.00     0.098 C 
HETATM   24  S1  UNL     1      18.468  56.536  29.238  1.00  0.00    -0.052 SA
ENDBRANCH   5  19
TORSDOF 4
ENDMDL
MODEL 5
REMARK VINA RESULT: -9.196299719      1.083      1.474
REMARK  4 active torsions:
REMARK  status: ('A' for Active; 'I' for Inactive)
REMARK    1  A    between atoms: C4_5  and  N1_6 
REMARK    2  A    between atoms: C9_14  and  C10_15 
REMARK    3  A    between atoms: N3_18  and  C13_19 
REMARK    4  A    between atoms: C13_19  and  C14_20 
ROOT
HETATM    1 CL1  UNL     1      17.966  50.330  26.257  1.00  0.00    -0.082 Cl
HETATM    2  C1  UNL     1      18.187  51.741  27.264  1.00  0.00     0.061 A 
HETATM    3  C2  UNL     1      19.526  52.085  27.503  1.00  0.00     0.030 A 
HETATM    4  C3  UNL     1      19.783  53.208  28.230  1.00  0.00     0.051 A 
HETATM    5  C4  UNL     1      18.768  53.988  28.720  1.00  0.00     0.113 A 
HETATM    6  N2  UNL     1      17.521  53.601  28.459  1.00  0.00    -0.340 N 
ATOM      7  H2  UNL     1      16.762  54.177  28.823  1.00  0.00     0.167 HD
HETATM    8  C9  UNL     1      17.184  52.501  27.746  1.00  0.00     0.062 A 
ENDROOT
BRANCH   8   9
HETATM    9  C10 UNL     1      15.745  52.191  27.617  1.00  0.00    -0.024 C 
HETATM   10  C11 UNL     1      14.815  52.954  27.155  1.00  0.00     0.027 C 
HETATM   11  C12 UNL     1      13.399  52.562  27.068  1.00  0.00     0.090 C 
HETATM   12  N3  UNL     1      13.030  51.403  27.726  1.00  0.00    -0.368 N 
HETATM   13  C15 UNL     1      13.984  50.414  27.980  1.00  0.00     0.068 C 
HETATM   14  C16 UNL     1      15.376  50.827  28.117  1.00  0.00     0.085 C 
BRANCH  12  15
HETATM   15  C13 UNL     1      11.796  51.374  28.411  1.00  0.00     0.159 C 
BRANCH  15  16
HETATM   16  C14 UNL     1      10.689  51.149  27.377  1.00  0.00     0.172 C 
HETATM   17 CL2  UNL     1       9.818  52.651  27.046  1.00  0.00    -0.111 Cl
HETATM   18 BR1  UNL     1       9.443  49.818  27.974  1.00  0.00    -0.073 Br
ENDBRANCH  15  16
ENDBRANCH  12  15
ENDBRANCH   8   9
BRANCH   5  19
HETATM   19  N1  UNL     1      19.046  55.158  29.463  1.00  0.00    -0.307 N 
HETATM   20  C5  UNL     1      18.426  56.441  29.294  1.00  0.00     0.138 C 
HETATM   21  C6  UNL     1      18.035  56.940  30.670  1.00  0.00     0.022 C 
HETATM   22  C7  UNL     1      19.148  57.465  31.493  1.00  0.00     0.013 C 
HETATM   23  C8  UNL     1      20.494  56.832  31.240  1.00  0.00     0.098 C 
HETATM   24  S1  UNL     1      20.281  55.080  30.723  1.00  0.00    -0.052 SA
ENDBRANCH   5  19
TORSDOF 4
ENDMDL
