MODEL 1
REMARK VINA RESULT: -4.798048993      0.000      0.000
REMARK  2 active torsions:
REMARK  status: ('A' for Active; 'I' for Inactive)
REMARK       I    between atoms: C2_4  and  N2_5 
REMARK       I    between atoms: C2_4  and  N3_10 
REMARK    1  A    between atoms: N2_5  and  C3_7 
REMARK    2  A    between atoms: N3_10  and  C6_12 
ROOT
HETATM    1  C1  UNL     1     -28.393  83.018 -11.147  1.00  0.00     0.165 C 
HETATM    2  N1  UNL     1     -28.398  84.260 -10.437  1.00  0.00    -0.231 N 
ATOM      3  H1  UNL     1     -28.529  84.245  -9.425  1.00  0.00     0.177 HD
HETATM    4  C2  UNL     1     -28.240  85.413 -11.031  1.00  0.00     0.670 C 
HETATM    5  N2  UNL     1     -28.053  85.520 -12.426  1.00  0.00    -0.222 N 
ATOM      6  H2  UNL     1     -28.736  85.101 -13.056  1.00  0.00     0.178 HD
HETATM    7  N3  UNL     1     -28.255  86.601 -10.260  1.00  0.00    -0.222 N 
ATOM      8  H3  UNL     1     -27.368  87.063 -10.059  1.00  0.00     0.178 HD
ENDROOT
BRANCH   5   9
HETATM    9  C3  UNL     1     -26.919  86.208 -12.975  1.00  0.00     0.099 A 
HETATM   10  C4  UNL     1     -27.081  87.217 -14.053  1.00  0.00     0.028 A 
HETATM   11  C5  UNL     1     -26.425  85.921 -14.343  1.00  0.00     0.028 A 
ENDBRANCH   5   9
BRANCH   7  12
HETATM   12  C6  UNL     1     -29.463  87.184  -9.750  1.00  0.00     0.099 A 
HETATM   13  C7  UNL     1     -29.481  88.712  -9.734  1.00  0.00     0.028 A 
HETATM   14  C8  UNL     1     -30.390  87.948 -10.610  1.00  0.00     0.028 A 
ENDBRANCH   7  12
TORSDOF 2
ENDMDL
MODEL 2
REMARK VINA RESULT: -4.508406703      1.919      2.715
REMARK  2 active torsions:
REMARK  status: ('A' for Active; 'I' for Inactive)
REMARK       I    between atoms: C2_4  and  N2_5 
REMARK       I    between atoms: C2_4  and  N3_10 
REMARK    1  A    between atoms: N2_5  and  C3_7 
REMARK    2  A    between atoms: N3_10  and  C6_12 
ROOT
HETATM    1  C1  UNL     1     -25.506  85.438 -10.688  1.00  0.00     0.165 C 
HETATM    2  N1  UNL     1     -26.720  86.191 -10.758  1.00  0.00    -0.231 N 
ATOM      3  H1  UNL     1     -26.662  87.205 -10.857  1.00  0.00     0.177 HD
HETATM    4  C2  UNL     1     -27.901  85.634 -10.700  1.00  0.00     0.670 C 
HETATM    5  N2  UNL     1     -28.067  84.238 -10.562  1.00  0.00    -0.222 N 
ATOM      6  H2  UNL     1     -27.617  83.755  -9.785  1.00  0.00     0.178 HD
HETATM    7  N3  UNL     1     -29.058  86.445 -10.776  1.00  0.00    -0.222 N 
ATOM      8  H3  UNL     1     -29.580  86.468 -11.652  1.00  0.00     0.178 HD
ENDROOT
BRANCH   5   9
HETATM    9  C3  UNL     1     -28.858  83.487 -11.495  1.00  0.00     0.099 A 
HETATM   10  C4  UNL     1     -28.248  82.428 -12.340  1.00  0.00     0.028 A 
HETATM   11  C5  UNL     1     -28.728  83.685 -12.958  1.00  0.00     0.028 A 
ENDBRANCH   5   9
BRANCH   7  12
HETATM   12  C6  UNL     1     -29.530  87.237  -9.676  1.00  0.00     0.099 A 
HETATM   13  C7  UNL     1     -29.495  88.747  -9.911  1.00  0.00     0.028 A 
HETATM   14  C8  UNL     1     -30.774  88.029  -9.756  1.00  0.00     0.028 A 
ENDBRANCH   7  12
TORSDOF 2
ENDMDL
MODEL 3
REMARK VINA RESULT: -4.424303280      2.165      3.640
REMARK  2 active torsions:
REMARK  status: ('A' for Active; 'I' for Inactive)
REMARK       I    between atoms: C2_4  and  N2_5 
REMARK       I    between atoms: C2_4  and  N3_10 
REMARK    1  A    between atoms: N2_5  and  C3_7 
REMARK    2  A    between atoms: N3_10  and  C6_12 
ROOT
HETATM    1  C1  UNL     1     -28.090  87.135 -15.613  1.00  0.00     0.165 C 
HETATM    2  N1  UNL     1     -29.072  87.639 -14.703  1.00  0.00    -0.231 N 
ATOM      3  H1  UNL     1     -29.611  88.462 -14.972  1.00  0.00     0.177 HD
HETATM    4  C2  UNL     1     -29.308  87.087 -13.542  1.00  0.00     0.670 C 
HETATM    5  N2  UNL     1     -28.606  85.946 -13.096  1.00  0.00    -0.222 N 
ATOM      6  H2  UNL     1     -27.587  85.965 -13.067  1.00  0.00     0.178 HD
HETATM    7  N3  UNL     1     -30.296  87.642 -12.695  1.00  0.00    -0.222 N 
ATOM      8  H3  UNL     1     -31.199  87.172 -12.625  1.00  0.00     0.178 HD
ENDROOT
BRANCH   5   9
HETATM    9  C3  UNL     1     -29.299  84.759 -12.683  1.00  0.00     0.099 A 
HETATM   10  C4  UNL     1     -28.657  83.422 -12.780  1.00  0.00     0.028 A 
HETATM   11  C5  UNL     1     -29.793  83.766 -13.667  1.00  0.00     0.028 A 
ENDBRANCH   5   9
BRANCH   7  12
HETATM   12  C6  UNL     1     -30.086  88.838 -11.930  1.00  0.00     0.099 A 
HETATM   13  C7  UNL     1     -31.199  89.168 -10.936  1.00  0.00     0.028 A 
HETATM   14  C8  UNL     1     -29.847  88.805 -10.473  1.00  0.00     0.028 A 
ENDBRANCH   7  12
TORSDOF 2
ENDMDL
MODEL 4
REMARK VINA RESULT: -4.413796053      2.007      3.085
REMARK  2 active torsions:
REMARK  status: ('A' for Active; 'I' for Inactive)
REMARK       I    between atoms: C2_4  and  N2_5 
REMARK       I    between atoms: C2_4  and  N3_10 
REMARK    1  A    between atoms: N2_5  and  C3_7 
REMARK    2  A    between atoms: N3_10  and  C6_12 
ROOT
HETATM    1  C1  UNL     1     -28.521  87.362 -15.492  1.00  0.00     0.165 C 
HETATM    2  N1  UNL     1     -29.271  87.431 -14.275  1.00  0.00    -0.231 N 
ATOM      3  H1  UNL     1     -30.246  87.726 -14.318  1.00  0.00     0.177 HD
HETATM    4  C2  UNL     1     -28.756  87.133 -13.112  1.00  0.00     0.670 C 
HETATM    5  N2  UNL     1     -27.414  86.718 -12.967  1.00  0.00    -0.222 N 
ATOM      6  H2  UNL     1     -26.667  87.306 -13.333  1.00  0.00     0.178 HD
HETATM    7  N3  UNL     1     -29.561  87.225 -11.950  1.00  0.00    -0.222 N 
ATOM      8  H3  UNL     1     -29.920  86.364 -11.537  1.00  0.00     0.178 HD
ENDROOT
BRANCH   5   9
HETATM    9  C3  UNL     1     -27.082  85.483 -12.315  1.00  0.00     0.099 A 
HETATM   10  C4  UNL     1     -26.067  85.436 -11.232  1.00  0.00     0.028 A 
HETATM   11  C5  UNL     1     -25.781  84.810 -12.544  1.00  0.00     0.028 A 
ENDBRANCH   5   9
BRANCH   7  12
HETATM   12  C6  UNL     1     -29.893  88.475 -11.329  1.00  0.00     0.099 A 
HETATM   13  C7  UNL     1     -30.948  88.383 -10.228  1.00  0.00     0.028 A 
HETATM   14  C8  UNL     1     -29.557  88.765  -9.920  1.00  0.00     0.028 A 
ENDBRANCH   7  12
TORSDOF 2
ENDMDL
MODEL 5
REMARK VINA RESULT: -4.398863651      1.569      1.787
REMARK  2 active torsions:
REMARK  status: ('A' for Active; 'I' for Inactive)
REMARK       I    between atoms: C2_4  and  N2_5 
REMARK       I    between atoms: C2_4  and  N3_10 
REMARK    1  A    between atoms: N2_5  and  C3_7 
REMARK    2  A    between atoms: N3_10  and  C6_12 
ROOT
HETATM    1  C1  UNL     1     -29.765  83.940 -13.286  1.00  0.00     0.165 C 
HETATM    2  N1  UNL     1     -29.340  84.828 -12.248  1.00  0.00    -0.231 N 
ATOM      3  H1  UNL     1     -29.109  84.439 -11.334  1.00  0.00     0.177 HD
HETATM    4  C2  UNL     1     -29.236  86.119 -12.423  1.00  0.00     0.670 C 
HETATM    5  N2  UNL     1     -29.537  86.737 -13.657  1.00  0.00    -0.222 N 
ATOM      6  H2  UNL     1     -30.451  86.585 -14.082  1.00  0.00     0.178 HD
HETATM    7  N3  UNL     1     -28.808  86.936 -11.348  1.00  0.00    -0.222 N 
ATOM      8  H3  UNL     1     -27.850  87.286 -11.353  1.00  0.00     0.178 HD
ENDROOT
BRANCH   5   9
HETATM    9  C3  UNL     1     -28.581  87.575 -14.323  1.00  0.00     0.099 A 
HETATM   10  C4  UNL     1     -28.168  87.304 -15.724  1.00  0.00     0.028 A 
HETATM   11  C5  UNL     1     -27.206  87.103 -14.615  1.00  0.00     0.028 A 
ENDBRANCH   5   9
BRANCH   7  12
HETATM   12  C6  UNL     1     -29.662  87.292 -10.252  1.00  0.00     0.099 A 
HETATM   13  C7  UNL     1     -29.461  88.708  -9.715  1.00  0.00     0.028 A 
HETATM   14  C8  UNL     1     -30.718  88.317 -10.380  1.00  0.00     0.028 A 
ENDBRANCH   7  12
TORSDOF 2
ENDMDL
