MODEL 1
REMARK VINA RESULT: -5.498366465      0.000      0.000
REMARK  5 active torsions:
REMARK  status: ('A' for Active; 'I' for Inactive)
REMARK    1  A    between atoms: S1_2  and  C2_3 
REMARK    2  A    between atoms: C2_3  and  C3_4 
REMARK    3  A    between atoms: C4_8  and  C5_9 
REMARK    4  A    between atoms: C5_9  and  N2_10 
REMARK    5  A    between atoms: C8_15  and  N4_16 
ROOT
HETATM    1  C3  UNL     1       8.192  -0.038   7.365  1.00  0.00     0.225 C 
HETATM    2  N1  UNL     1       6.974   0.773   7.244  1.00  0.00    -0.062 N 
ATOM      3  H11 UNL     1       7.123   1.779   7.158  1.00  0.00     0.278 HD
ATOM      4  H12 UNL     1       6.406   0.840   8.089  1.00  0.00     0.278 HD
HETATM    5  C4  UNL     1       6.331   0.141   6.111  1.00  0.00     0.206 C 
HETATM    6  C7  UNL     1       7.470   0.117   5.113  1.00  0.00     0.069 C 
HETATM    7  C8  UNL     1       8.592  -0.411   5.980  1.00  0.00     0.216 C 
ENDROOT
BRANCH   5   8
HETATM    8  C5  UNL     1       5.177   0.941   5.562  1.00  0.00     0.153 C 
BRANCH   8   9
HETATM    9  N2  UNL     1       3.986   0.490   6.255  1.00  0.00    -0.386 N 
HETATM   10  C6  UNL     1       3.042  -0.193   5.728  1.00  0.00     0.185 C 
HETATM   11  N3  UNL     1       3.018  -0.615   4.381  1.00  0.00    -0.097 NA
ATOM     12  H2  UNL     1       3.894   0.738   7.240  1.00  0.00     0.159 HD
ENDBRANCH   8   9
ENDBRANCH   5   8
BRANCH   1  13
HETATM   13  C2  UNL     1       9.232   0.760   8.110  1.00  0.00     0.108 C 
BRANCH  13  14
HETATM   14  S1  UNL     1      10.587   1.302   7.080  1.00  0.00    -0.171 SA
HETATM   15  C1  UNL     1      11.449   2.737   7.742  1.00  0.00     0.089 C 
ENDBRANCH  13  14
ENDBRANCH   1  13
BRANCH   7  16
HETATM   16  N4  UNL     1       8.693  -1.844   5.767  1.00  0.00    -0.073 N 
ATOM     17  H43 UNL     1       9.549  -2.210   6.182  1.00  0.00     0.274 HD
ATOM     18  H42 UNL     1       8.003  -2.341   6.330  1.00  0.00     0.274 HD
ATOM     19  H41 UNL     1       8.622  -2.119   4.787  1.00  0.00     0.274 HD
ENDBRANCH   7  16
TORSDOF 5
ENDMDL
MODEL 2
REMARK VINA RESULT: -5.425359276      4.740      7.484
REMARK  5 active torsions:
REMARK  status: ('A' for Active; 'I' for Inactive)
REMARK    1  A    between atoms: S1_2  and  C2_3 
REMARK    2  A    between atoms: C2_3  and  C3_4 
REMARK    3  A    between atoms: C4_8  and  C5_9 
REMARK    4  A    between atoms: C5_9  and  N2_10 
REMARK    5  A    between atoms: C8_15  and  N4_16 
ROOT
HETATM    1  C3  UNL     1       1.910  -3.393   4.429  1.00  0.00     0.225 C 
HETATM    2  N1  UNL     1       2.530  -2.065   4.327  1.00  0.00    -0.062 N 
ATOM      3  H11 UNL     1       2.258  -1.515   3.511  1.00  0.00     0.278 HD
ATOM      4  H12 UNL     1       3.526  -2.062   4.107  1.00  0.00     0.278 HD
HETATM    5  C4  UNL     1       2.174  -1.493   5.608  1.00  0.00     0.206 C 
HETATM    6  C7  UNL     1       0.684  -1.764   5.638  1.00  0.00     0.069 C 
HETATM    7  C8  UNL     1       0.654  -3.214   5.208  1.00  0.00     0.216 C 
ENDROOT
BRANCH   5   8
HETATM    8  C5  UNL     1       2.433  -0.010   5.689  1.00  0.00     0.153 C 
BRANCH   8   9
HETATM    9  N2  UNL     1       3.732   0.156   6.310  1.00  0.00    -0.386 N 
HETATM   10  C6  UNL     1       4.834   0.313   5.680  1.00  0.00     0.185 C 
HETATM   11  N3  UNL     1       4.951   0.347   4.273  1.00  0.00    -0.097 NA
ATOM     12  H2  UNL     1       3.770   0.148   7.329  1.00  0.00     0.159 HD
ENDBRANCH   8   9
ENDBRANCH   5   8
BRANCH   1  13
HETATM   13  C2  UNL     1       1.698  -3.935   3.037  1.00  0.00     0.108 C 
BRANCH  13  14
HETATM   14  S1  UNL     1       0.858  -2.795   1.949  1.00  0.00    -0.171 SA
HETATM   15  C1  UNL     1       1.962  -1.995   0.775  1.00  0.00     0.089 C 
ENDBRANCH  13  14
ENDBRANCH   1  13
BRANCH   7  16
HETATM   16  N4  UNL     1       0.584  -4.039   6.402  1.00  0.00    -0.073 N 
ATOM     17  H43 UNL     1       0.854  -5.000   6.191  1.00  0.00     0.274 HD
ATOM     18  H42 UNL     1       1.329  -3.792   7.053  1.00  0.00     0.274 HD
ATOM     19  H41 UNL     1      -0.323  -4.014   6.866  1.00  0.00     0.274 HD
ENDBRANCH   7  16
TORSDOF 5
ENDMDL
MODEL 3
REMARK VINA RESULT: -5.400429110      5.103      7.598
REMARK  5 active torsions:
REMARK  status: ('A' for Active; 'I' for Inactive)
REMARK    1  A    between atoms: S1_2  and  C2_3 
REMARK    2  A    between atoms: C2_3  and  C3_4 
REMARK    3  A    between atoms: C4_8  and  C5_9 
REMARK    4  A    between atoms: C5_9  and  N2_10 
REMARK    5  A    between atoms: C8_15  and  N4_16 
ROOT
HETATM    1  C3  UNL     1       1.838  -3.845   4.605  1.00  0.00     0.225 C 
HETATM    2  N1  UNL     1       2.243  -2.464   4.312  1.00  0.00    -0.062 N 
ATOM      3  H11 UNL     1       1.999  -2.123   3.381  1.00  0.00     0.278 HD
ATOM      4  H12 UNL     1       3.246  -2.315   4.200  1.00  0.00     0.278 HD
HETATM    5  C4  UNL     1       1.628  -1.755   5.414  1.00  0.00     0.206 C 
HETATM    6  C7  UNL     1       0.212  -2.286   5.341  1.00  0.00     0.069 C 
HETATM    7  C8  UNL     1       0.475  -3.769   5.200  1.00  0.00     0.216 C 
ENDROOT
BRANCH   5   8
HETATM    8  C5  UNL     1       1.630  -0.258   5.232  1.00  0.00     0.153 C 
BRANCH   8   9
HETATM    9  N2  UNL     1       2.679   0.267   6.083  1.00  0.00    -0.386 N 
HETATM   10  C6  UNL     1       3.890   0.464   5.722  1.00  0.00     0.185 C 
HETATM   11  N3  UNL     1       4.391   0.197   4.429  1.00  0.00    -0.097 NA
ATOM     12  H2  UNL     1       2.432   0.498   7.045  1.00  0.00     0.159 HD
ENDBRANCH   8   9
ENDBRANCH   5   8
BRANCH   1  13
HETATM   13  C2  UNL     1       1.908  -4.649   3.330  1.00  0.00     0.108 C 
BRANCH  13  14
HETATM   14  S1  UNL     1       1.911  -3.645   1.853  1.00  0.00    -0.171 SA
HETATM   15  C1  UNL     1       3.398  -3.852   0.862  1.00  0.00     0.089 C 
ENDBRANCH  13  14
ENDBRANCH   1  13
BRANCH   7  16
HETATM   16  N4  UNL     1       0.379  -4.374   6.517  1.00  0.00    -0.073 N 
ATOM     17  H43 UNL     1       0.436  -5.390   6.452  1.00  0.00     0.274 HD
ATOM     18  H42 UNL     1       1.222  -4.189   7.060  1.00  0.00     0.274 HD
ATOM     19  H41 UNL     1      -0.453  -4.093   7.037  1.00  0.00     0.274 HD
ENDBRANCH   7  16
TORSDOF 5
ENDMDL
MODEL 4
REMARK VINA RESULT: -5.391683268      5.245      7.814
REMARK  5 active torsions:
REMARK  status: ('A' for Active; 'I' for Inactive)
REMARK    1  A    between atoms: S1_2  and  C2_3 
REMARK    2  A    between atoms: C2_3  and  C3_4 
REMARK    3  A    between atoms: C4_8  and  C5_9 
REMARK    4  A    between atoms: C5_9  and  N2_10 
REMARK    5  A    between atoms: C8_15  and  N4_16 
ROOT
HETATM    1  C3  UNL     1       1.764  -3.876   4.742  1.00  0.00     0.225 C 
HETATM    2  N1  UNL     1       2.221  -2.515   4.430  1.00  0.00    -0.062 N 
ATOM      3  H11 UNL     1       2.043  -2.201   3.476  1.00  0.00     0.278 HD
ATOM      4  H12 UNL     1       3.233  -2.394   4.376  1.00  0.00     0.278 HD
HETATM    5  C4  UNL     1       1.559  -1.755   5.468  1.00  0.00     0.206 C 
HETATM    6  C7  UNL     1       0.136  -2.254   5.326  1.00  0.00     0.069 C 
HETATM    7  C8  UNL     1       0.369  -3.747   5.249  1.00  0.00     0.216 C 
ENDROOT
BRANCH   5   8
HETATM    8  C5  UNL     1       1.611  -0.266   5.238  1.00  0.00     0.153 C 
BRANCH   8   9
HETATM    9  N2  UNL     1       2.668   0.253   6.083  1.00  0.00    -0.386 N 
HETATM   10  C6  UNL     1       3.880   0.438   5.715  1.00  0.00     0.185 C 
HETATM   11  N3  UNL     1       4.371   0.163   4.421  1.00  0.00    -0.097 NA
ATOM     12  H2  UNL     1       2.428   0.489   7.046  1.00  0.00     0.159 HD
ENDBRANCH   8   9
ENDBRANCH   5   8
BRANCH   1  13
HETATM   13  C2  UNL     1       1.890  -4.724   3.501  1.00  0.00     0.108 C 
BRANCH  13  14
HETATM   14  S1  UNL     1       1.968  -6.476   3.841  1.00  0.00    -0.171 SA
HETATM   15  C1  UNL     1       2.652  -6.852   5.463  1.00  0.00     0.089 C 
ENDBRANCH  13  14
ENDBRANCH   1  13
BRANCH   7  16
HETATM   16  N4  UNL     1       0.177  -4.304   6.577  1.00  0.00    -0.073 N 
ATOM     17  H43 UNL     1       0.388  -5.302   6.582  1.00  0.00     0.274 HD
ATOM     18  H42 UNL     1       0.900  -3.973   7.214  1.00  0.00     0.274 HD
ATOM     19  H41 UNL     1      -0.751  -4.131   6.964  1.00  0.00     0.274 HD
ENDBRANCH   7  16
TORSDOF 5
ENDMDL
MODEL 5
REMARK VINA RESULT: -5.306824733      4.796      7.845
REMARK  5 active torsions:
REMARK  status: ('A' for Active; 'I' for Inactive)
REMARK    1  A    between atoms: S1_2  and  C2_3 
REMARK    2  A    between atoms: C2_3  and  C3_4 
REMARK    3  A    between atoms: C4_8  and  C5_9 
REMARK    4  A    between atoms: C5_9  and  N2_10 
REMARK    5  A    between atoms: C8_15  and  N4_16 
ROOT
HETATM    1  C3  UNL     1       1.993  -3.388   4.340  1.00  0.00     0.225 C 
HETATM    2  N1  UNL     1       2.509  -2.021   4.188  1.00  0.00    -0.062 N 
ATOM      3  H11 UNL     1       2.092  -1.477   3.432  1.00  0.00     0.278 HD
ATOM      4  H12 UNL     1       3.463  -1.950   3.834  1.00  0.00     0.278 HD
HETATM    5  C4  UNL     1       2.299  -1.496   5.520  1.00  0.00     0.206 C 
HETATM    6  C7  UNL     1       0.847  -1.864   5.748  1.00  0.00     0.069 C 
HETATM    7  C8  UNL     1       0.847  -3.305   5.289  1.00  0.00     0.216 C 
ENDROOT
BRANCH   5   8
HETATM    8  C5  UNL     1       2.474  -0.001   5.603  1.00  0.00     0.153 C 
BRANCH   8   9
HETATM    9  N2  UNL     1       3.752   0.237   6.245  1.00  0.00    -0.386 N 
HETATM   10  C6  UNL     1       4.866   0.385   5.634  1.00  0.00     0.185 C 
HETATM   11  N3  UNL     1       5.019   0.338   4.231  1.00  0.00    -0.097 NA
ATOM     12  H2  UNL     1       3.764   0.292   7.263  1.00  0.00     0.159 HD
ENDBRANCH   8   9
ENDBRANCH   5   8
BRANCH   1  13
HETATM   13  C2  UNL     1       1.623  -3.919   2.978  1.00  0.00     0.108 C 
BRANCH  13  14
HETATM   14  S1  UNL     1       0.385  -2.940   2.142  1.00  0.00    -0.171 SA
HETATM   15  C1  UNL     1      -1.257  -3.674   2.205  1.00  0.00     0.089 C 
ENDBRANCH  13  14
ENDBRANCH   1  13
BRANCH   7  16
HETATM   16  N4  UNL     1       0.996  -4.153   6.459  1.00  0.00    -0.073 N 
ATOM     17  H43 UNL     1       0.546  -5.056   6.308  1.00  0.00     0.274 HD
ATOM     18  H42 UNL     1       1.963  -4.458   6.562  1.00  0.00     0.274 HD
ATOM     19  H41 UNL     1       0.660  -3.724   7.321  1.00  0.00     0.274 HD
ENDBRANCH   7  16
TORSDOF 5
ENDMDL
