MODEL 1
REMARK VINA RESULT: -4.074481567      0.000      0.000
REMARK  5 active torsions:
REMARK  status: ('A' for Active; 'I' for Inactive)
REMARK    1  A    between atoms: C2_2  and  C3_3 
REMARK    2  A    between atoms: C3_3  and  N1_4 
REMARK    3  A    between atoms: C4_6  and  N2_7 
REMARK    4  A    between atoms: N2_7  and  C5_9 
REMARK    5  A    between atoms: C7_11  and  N3_12 
ROOT
HETATM    1  N2  UNL     1      14.599  15.439   6.970  1.00  0.00    -0.380 N 
ATOM      2  H2  UNL     1      15.099  16.251   6.608  1.00  0.00     0.160 HD
ENDROOT
BRANCH   1   3
HETATM    3  C4  UNL     1      13.190  15.412   6.897  1.00  0.00     0.171 C 
HETATM    4  N1  UNL     1      12.487  15.012   7.895  1.00  0.00    -0.383 N 
ATOM      5  H1  UNL     1      12.954  14.710   8.750  1.00  0.00     0.160 HD
BRANCH   4   6
HETATM    6  C3  UNL     1      11.061  14.985   7.824  1.00  0.00     0.147 C 
BRANCH   6   7
HETATM    7  C2  UNL     1      10.559  14.858   6.437  1.00  0.00    -0.018 C 
HETATM    8  C1  UNL     1       9.321  14.489   6.159  1.00  0.00     0.008 C 
ENDBRANCH   6   7
ENDBRANCH   4   6
ENDBRANCH   1   3
BRANCH   1   9
HETATM    9  C5  UNL     1      15.356  14.345   7.543  1.00  0.00     0.114 A 
HETATM   10  C6  UNL     1      16.719  14.117   6.923  1.00  0.00     0.062 A 
HETATM   11  C7  UNL     1      15.643  13.144   6.712  1.00  0.00     0.208 A 
BRANCH  11  12
HETATM   12  N3  UNL     1      15.664  11.824   7.317  1.00  0.00    -0.073 N 
ATOM     13  H33 UNL     1      16.106  11.899   8.233  1.00  0.00     0.274 HD
ATOM     14  H32 UNL     1      14.709  11.571   7.569  1.00  0.00     0.274 HD
ATOM     15  H31 UNL     1      16.085  11.039   6.820  1.00  0.00     0.274 HD
ENDBRANCH  11  12
ENDBRANCH   1   9
TORSDOF 5
ENDMDL
MODEL 2
REMARK VINA RESULT: -3.979465024      2.115      2.755
REMARK  5 active torsions:
REMARK  status: ('A' for Active; 'I' for Inactive)
REMARK    1  A    between atoms: C2_2  and  C3_3 
REMARK    2  A    between atoms: C3_3  and  N1_4 
REMARK    3  A    between atoms: C4_6  and  N2_7 
REMARK    4  A    between atoms: N2_7  and  C5_9 
REMARK    5  A    between atoms: C7_11  and  N3_12 
ROOT
HETATM    1  N2  UNL     1      14.519  15.681   6.781  1.00  0.00    -0.380 N 
ATOM      2  H2  UNL     1      15.116  14.879   6.577  1.00  0.00     0.160 HD
ENDROOT
BRANCH   1   3
HETATM    3  C4  UNL     1      13.118  15.514   6.770  1.00  0.00     0.171 C 
HETATM    4  N1  UNL     1      12.490  15.149   7.829  1.00  0.00    -0.383 N 
ATOM      5  H1  UNL     1      13.012  14.977   8.689  1.00  0.00     0.160 HD
BRANCH   4   6
HETATM    6  C3  UNL     1      11.072  14.980   7.820  1.00  0.00     0.147 C 
BRANCH   6   7
HETATM    7  C2  UNL     1      10.517  14.871   6.451  1.00  0.00    -0.018 C 
HETATM    8  C1  UNL     1       9.286  14.456   6.214  1.00  0.00     0.008 C 
ENDBRANCH   6   7
ENDBRANCH   4   6
ENDBRANCH   1   3
BRANCH   1   9
HETATM    9  C5  UNL     1      15.134  16.959   7.074  1.00  0.00     0.114 A 
HETATM   10  C6  UNL     1      16.444  17.218   6.359  1.00  0.00     0.062 A 
HETATM   11  C7  UNL     1      16.429  16.993   7.807  1.00  0.00     0.208 A 
BRANCH  11  12
HETATM   12  N3  UNL     1      16.704  18.056   8.757  1.00  0.00    -0.073 N 
ATOM     13  H33 UNL     1      16.041  18.814   8.591  1.00  0.00     0.274 HD
ATOM     14  H32 UNL     1      16.424  17.738   9.684  1.00  0.00     0.274 HD
ATOM     15  H31 UNL     1      17.640  18.457   8.822  1.00  0.00     0.274 HD
ENDBRANCH  11  12
ENDBRANCH   1   9
TORSDOF 5
ENDMDL
MODEL 3
REMARK VINA RESULT: -3.907575300      1.261      1.418
REMARK  5 active torsions:
REMARK  status: ('A' for Active; 'I' for Inactive)
REMARK    1  A    between atoms: C2_2  and  C3_3 
REMARK    2  A    between atoms: C3_3  and  N1_4 
REMARK    3  A    between atoms: C4_6  and  N2_7 
REMARK    4  A    between atoms: N2_7  and  C5_9 
REMARK    5  A    between atoms: C7_11  and  N3_12 
ROOT
HETATM    1  N2  UNL     1      15.800  14.667   7.698  1.00  0.00    -0.380 N 
ATOM      2  H2  UNL     1      16.531  15.345   7.914  1.00  0.00     0.160 HD
ENDROOT
BRANCH   1   3
HETATM    3  C4  UNL     1      14.672  15.086   6.961  1.00  0.00     0.171 C 
HETATM    4  N1  UNL     1      13.483  14.836   7.379  1.00  0.00    -0.383 N 
ATOM      5  H1  UNL     1      13.354  14.327   8.254  1.00  0.00     0.160 HD
BRANCH   4   6
HETATM    6  C3  UNL     1      12.340  15.259   6.635  1.00  0.00     0.147 C 
BRANCH   6   7
HETATM    7  C2  UNL     1      11.064  14.919   7.306  1.00  0.00    -0.018 C 
HETATM    8  C1  UNL     1       9.952  14.673   6.636  1.00  0.00     0.008 C 
ENDBRANCH   6   7
ENDBRANCH   4   6
ENDBRANCH   1   3
BRANCH   1   9
HETATM    9  C5  UNL     1      15.950  13.301   8.156  1.00  0.00     0.114 A 
HETATM   10  C6  UNL     1      17.377  12.869   8.421  1.00  0.00     0.062 A 
HETATM   11  C7  UNL     1      16.639  12.311   7.284  1.00  0.00     0.208 A 
BRANCH  11  12
HETATM   12  N3  UNL     1      16.195  10.930   7.252  1.00  0.00    -0.073 N 
ATOM     13  H33 UNL     1      15.635  10.792   6.411  1.00  0.00     0.274 HD
ATOM     14  H32 UNL     1      17.002  10.337   7.062  1.00  0.00     0.274 HD
ATOM     15  H31 UNL     1      15.686  10.536   8.044  1.00  0.00     0.274 HD
ENDBRANCH  11  12
ENDBRANCH   1   9
TORSDOF 5
ENDMDL
MODEL 4
REMARK VINA RESULT: -3.891033415      1.035      1.181
REMARK  5 active torsions:
REMARK  status: ('A' for Active; 'I' for Inactive)
REMARK    1  A    between atoms: C2_2  and  C3_3 
REMARK    2  A    between atoms: C3_3  and  N1_4 
REMARK    3  A    between atoms: C4_6  and  N2_7 
REMARK    4  A    between atoms: N2_7  and  C5_9 
REMARK    5  A    between atoms: C7_11  and  N3_12 
ROOT
HETATM    1  N2  UNL     1      14.503  15.190   7.285  1.00  0.00    -0.380 N 
ATOM      2  H2  UNL     1      14.932  16.033   7.665  1.00  0.00     0.160 HD
ENDROOT
BRANCH   1   3
HETATM    3  C4  UNL     1      13.109  15.166   7.070  1.00  0.00     0.171 C 
HETATM    4  N1  UNL     1      12.293  15.039   8.054  1.00  0.00    -0.383 N 
ATOM      5  H1  UNL     1      12.659  14.953   9.003  1.00  0.00     0.160 HD
BRANCH   4   6
HETATM    6  C3  UNL     1      10.881  15.016   7.839  1.00  0.00     0.147 C 
BRANCH   6   7
HETATM    7  C2  UNL     1      10.522  14.810   6.417  1.00  0.00    -0.018 C 
HETATM    8  C1  UNL     1       9.303  14.476   6.033  1.00  0.00     0.008 C 
ENDBRANCH   6   7
ENDBRANCH   4   6
ENDBRANCH   1   3
BRANCH   1   9
HETATM    9  C5  UNL     1      15.343  14.049   6.981  1.00  0.00     0.114 A 
HETATM   10  C6  UNL     1      16.090  13.472   8.165  1.00  0.00     0.062 A 
HETATM   11  C7  UNL     1      16.820  14.178   7.107  1.00  0.00     0.208 A 
BRANCH  11  12
HETATM   12  N3  UNL     1      17.696  13.487   6.179  1.00  0.00    -0.073 N 
ATOM     13  H33 UNL     1      18.274  12.834   6.709  1.00  0.00     0.274 HD
ATOM     14  H32 UNL     1      17.131  12.851   5.617  1.00  0.00     0.274 HD
ATOM     15  H31 UNL     1      18.302  14.017   5.553  1.00  0.00     0.274 HD
ENDBRANCH  11  12
ENDBRANCH   1   9
TORSDOF 5
ENDMDL
MODEL 5
REMARK VINA RESULT: -3.830055554      3.261      4.991
REMARK  5 active torsions:
REMARK  status: ('A' for Active; 'I' for Inactive)
REMARK    1  A    between atoms: C2_2  and  C3_3 
REMARK    2  A    between atoms: C3_3  and  N1_4 
REMARK    3  A    between atoms: C4_6  and  N2_7 
REMARK    4  A    between atoms: N2_7  and  C5_9 
REMARK    5  A    between atoms: C7_11  and  N3_12 
ROOT
HETATM    1  N2  UNL     1       9.561  14.730   6.296  1.00  0.00    -0.380 N 
ATOM      2  H2  UNL     1       8.983  15.395   6.810  1.00  0.00     0.160 HD
ENDROOT
BRANCH   1   3
HETATM    3  C4  UNL     1       9.139  14.296   5.021  1.00  0.00     0.171 C 
HETATM    4  N1  UNL     1       8.815  13.070   4.818  1.00  0.00    -0.383 N 
ATOM      5  H1  UNL     1       8.864  12.402   5.587  1.00  0.00     0.160 HD
BRANCH   4   6
HETATM    6  C3  UNL     1       8.386  12.628   3.529  1.00  0.00     0.147 C 
BRANCH   6   7
HETATM    7  C2  UNL     1       7.663  11.336   3.578  1.00  0.00    -0.018 C 
HETATM    8  C1  UNL     1       7.649  10.490   2.564  1.00  0.00     0.008 C 
ENDBRANCH   6   7
ENDBRANCH   4   6
ENDBRANCH   1   3
BRANCH   1   9
HETATM    9  C5  UNL     1      10.792  14.257   6.895  1.00  0.00     0.114 A 
HETATM   10  C6  UNL     1      11.282  15.071   8.074  1.00  0.00     0.062 A 
HETATM   11  C7  UNL     1      12.016  15.100   6.806  1.00  0.00     0.208 A 
BRANCH  11  12
HETATM   12  N3  UNL     1      13.320  14.480   6.653  1.00  0.00    -0.073 N 
ATOM     13  H33 UNL     1      13.942  15.151   6.202  1.00  0.00     0.274 HD
ATOM     14  H32 UNL     1      13.745  14.394   7.576  1.00  0.00     0.274 HD
ATOM     15  H31 UNL     1      13.410  13.585   6.172  1.00  0.00     0.274 HD
ENDBRANCH  11  12
ENDBRANCH   1   9
TORSDOF 5
ENDMDL
