MODEL 1
REMARK VINA RESULT: -6.829590285      0.000      0.000
REMARK  10 active torsions:
REMARK  status: ('A' for Active; 'I' for Inactive)
REMARK    1  A    between atoms: C4_5  and  N2_7 
REMARK    2  A    between atoms: N2_7  and  N3_9 
REMARK    3  A    between atoms: C7_11  and  C8_12 
REMARK    4  A    between atoms: C8_12  and  N4_13 
REMARK    5  A    between atoms: C8_12  and  C10_19 
REMARK    6  A    between atoms: C10_19  and  C11_20 
REMARK    7  A    between atoms: C11_20  and  C12_21 
REMARK    8  A    between atoms: C12_21  and  C13_22 
REMARK    9  A    between atoms: C13_22  and  N6_23 
REMARK   10  A    between atoms: C13_22  and  N7_27 
ROOT
HETATM    1  C8  UNL     1      49.077  31.688  41.895  1.00  0.00     0.243 C 
HETATM    2  C9  UNL     1      49.100  30.346  41.344  1.00  0.00     0.104 C 
HETATM    3  N5  UNL     1      49.117  29.266  40.923  1.00  0.00    -0.194 NA
ENDROOT
BRANCH   1   4
HETATM    4  C7  UNL     1      48.221  32.572  41.035  1.00  0.00     0.128 C 
HETATM    5  N3  UNL     1      48.585  33.256  40.060  1.00  0.00    -0.330 N 
ATOM      6  H3  UNL     1      47.844  33.792  39.607  1.00  0.00     0.179 HD
BRANCH   5   7
HETATM    7  N2  UNL     1      49.826  33.399  39.502  1.00  0.00    -0.224 NA
HETATM    8  C6  UNL     1      50.169  34.823  39.546  1.00  0.00     0.137 C 
BRANCH   7   9
HETATM    9  C4  UNL     1      49.845  33.040  38.092  1.00  0.00     0.074 C 
HETATM   10  C3  UNL     1      51.289  33.107  37.639  1.00  0.00     0.060 C 
HETATM   11  C2  UNL     1      51.741  31.670  37.552  1.00  0.00     0.276 C 
HETATM   12  N1  UNL     1      50.682  30.868  38.114  1.00  0.00     0.104 N 
HETATM   13  C1  UNL     1      50.713  29.576  37.462  1.00  0.00     0.311 C 
HETATM   14  C14 UNL     1      49.496  31.612  37.842  1.00  0.00     0.352 C 
HETATM   15  C15 UNL     1      49.196  31.475  36.400  1.00  0.00     0.097 C 
HETATM   16  N8  UNL     1      48.977  31.373  35.267  1.00  0.00    -0.195 NA
HETATM   17  C5  UNL     1      49.043  33.992  37.244  1.00  0.00     0.037 C 
ENDBRANCH   7   9
ENDBRANCH   5   7
ENDBRANCH   1   4
BRANCH   1  18
HETATM   18  N4  UNL     1      50.411  32.262  41.986  1.00  0.00    -0.052 N 
ATOM     19  H43 UNL     1      51.114  31.684  41.525  1.00  0.00     0.276 HD
ATOM     20  H42 UNL     1      50.514  33.098  41.411  1.00  0.00     0.276 HD
ATOM     21  H41 UNL     1      50.634  32.435  42.966  1.00  0.00     0.276 HD
ENDBRANCH   1  18
BRANCH   1  22
HETATM   22  C10 UNL     1      48.533  31.608  43.291  1.00  0.00     0.060 C 
BRANCH  22  23
HETATM   23  C11 UNL     1      49.600  31.607  44.322  1.00  0.00     0.008 C 
BRANCH  23  24
HETATM   24  C12 UNL     1      49.281  31.956  45.717  1.00  0.00     0.062 C 
BRANCH  24  25
HETATM   25  C13 UNL     1      49.979  30.914  46.621  1.00  0.00     0.378 C 
BRANCH  25  26
HETATM   26  N6  UNL     1      49.024  30.255  47.477  1.00  0.00    -0.051 N 
ATOM     27  H63 UNL     1      49.378  30.155  48.429  1.00  0.00     0.276 HD
ATOM     28  H62 UNL     1      48.220  30.850  47.673  1.00  0.00     0.276 HD
ATOM     29  H61 UNL     1      48.742  29.357  47.083  1.00  0.00     0.276 HD
ENDBRANCH  25  26
BRANCH  25  30
HETATM   30  N7  UNL     1      50.890  31.661  47.466  1.00  0.00    -0.051 N 
ATOM     31  H73 UNL     1      51.746  31.153  47.691  1.00  0.00     0.276 HD
ATOM     32  H72 UNL     1      51.334  32.447  46.991  1.00  0.00     0.276 HD
ATOM     33  H71 UNL     1      50.353  31.935  48.289  1.00  0.00     0.276 HD
ENDBRANCH  25  30
ENDBRANCH  24  25
ENDBRANCH  23  24
ENDBRANCH  22  23
ENDBRANCH   1  22
TORSDOF 10
ENDMDL
MODEL 2
REMARK VINA RESULT: -6.781295220      1.107      1.229
REMARK  10 active torsions:
REMARK  status: ('A' for Active; 'I' for Inactive)
REMARK    1  A    between atoms: C4_5  and  N2_7 
REMARK    2  A    between atoms: N2_7  and  N3_9 
REMARK    3  A    between atoms: C7_11  and  C8_12 
REMARK    4  A    between atoms: C8_12  and  N4_13 
REMARK    5  A    between atoms: C8_12  and  C10_19 
REMARK    6  A    between atoms: C10_19  and  C11_20 
REMARK    7  A    between atoms: C11_20  and  C12_21 
REMARK    8  A    between atoms: C12_21  and  C13_22 
REMARK    9  A    between atoms: C13_22  and  N6_23 
REMARK   10  A    between atoms: C13_22  and  N7_27 
ROOT
HETATM    1  C8  UNL     1      50.361  31.538  42.167  1.00  0.00     0.243 C 
HETATM    2  C9  UNL     1      49.663  30.400  41.599  1.00  0.00     0.104 C 
HETATM    3  N5  UNL     1      49.109  29.480  41.162  1.00  0.00    -0.194 NA
ENDROOT
BRANCH   1   4
HETATM    4  C7  UNL     1      49.596  32.796  41.878  1.00  0.00     0.128 C 
HETATM    5  N3  UNL     1      49.700  33.528  40.875  1.00  0.00    -0.330 N 
ATOM      6  H3  UNL     1      49.087  34.343  40.869  1.00  0.00     0.179 HD
BRANCH   5   7
HETATM    7  N2  UNL     1      50.512  33.407  39.780  1.00  0.00    -0.224 NA
HETATM    8  C6  UNL     1      50.794  34.757  39.287  1.00  0.00     0.137 C 
BRANCH   7   9
HETATM    9  C4  UNL     1      49.857  32.720  38.677  1.00  0.00     0.074 C 
HETATM   10  C3  UNL     1      50.187  33.494  37.417  1.00  0.00     0.060 C 
HETATM   11  C2  UNL     1      51.240  32.672  36.716  1.00  0.00     0.276 C 
HETATM   12  N1  UNL     1      51.616  31.617  37.624  1.00  0.00     0.104 N 
HETATM   13  C1  UNL     1      52.029  30.479  36.832  1.00  0.00     0.311 C 
HETATM   14  C14 UNL     1      50.436  31.377  38.390  1.00  0.00     0.352 C 
HETATM   15  C15 UNL     1      49.476  30.655  37.527  1.00  0.00     0.097 C 
HETATM   16  N8  UNL     1      48.724  30.102  36.840  1.00  0.00    -0.195 NA
HETATM   17  C5  UNL     1      48.359  32.688  38.828  1.00  0.00     0.037 C 
ENDBRANCH   7   9
ENDBRANCH   5   7
ENDBRANCH   1   4
BRANCH   1  18
HETATM   18  N4  UNL     1      51.710  31.669  41.638  1.00  0.00    -0.052 N 
ATOM     19  H43 UNL     1      52.403  31.204  42.223  1.00  0.00     0.276 HD
ATOM     20  H42 UNL     1      51.849  31.120  40.789  1.00  0.00     0.276 HD
ATOM     21  H41 UNL     1      51.919  32.657  41.499  1.00  0.00     0.276 HD
ENDBRANCH   1  18
BRANCH   1  22
HETATM   22  C10 UNL     1      50.487  31.314  43.646  1.00  0.00     0.060 C 
BRANCH  22  23
HETATM   23  C11 UNL     1      49.228  31.601  44.378  1.00  0.00     0.008 C 
BRANCH  23  24
HETATM   24  C12 UNL     1      49.273  32.063  45.776  1.00  0.00     0.062 C 
BRANCH  24  25
HETATM   25  C13 UNL     1      49.975  30.960  46.600  1.00  0.00     0.378 C 
BRANCH  25  26
HETATM   26  N6  UNL     1      49.029  30.267  47.440  1.00  0.00    -0.051 N 
ATOM     27  H63 UNL     1      49.273  29.282  47.549  1.00  0.00     0.276 HD
ATOM     28  H62 UNL     1      49.110  30.554  48.415  1.00  0.00     0.276 HD
ATOM     29  H61 UNL     1      48.078  30.383  47.090  1.00  0.00     0.276 HD
ENDBRANCH  25  26
BRANCH  25  30
HETATM   30  N7  UNL     1      50.919  31.642  47.464  1.00  0.00    -0.051 N 
ATOM     31  H73 UNL     1      50.696  32.626  47.613  1.00  0.00     0.276 HD
ATOM     32  H72 UNL     1      50.858  31.353  48.440  1.00  0.00     0.276 HD
ATOM     33  H71 UNL     1      51.839  31.491  47.052  1.00  0.00     0.276 HD
ENDBRANCH  25  30
ENDBRANCH  24  25
ENDBRANCH  23  24
ENDBRANCH  22  23
ENDBRANCH   1  22
TORSDOF 10
ENDMDL
MODEL 3
REMARK VINA RESULT: -6.756218545      1.440      3.107
REMARK  10 active torsions:
REMARK  status: ('A' for Active; 'I' for Inactive)
REMARK    1  A    between atoms: C4_5  and  N2_7 
REMARK    2  A    between atoms: N2_7  and  N3_9 
REMARK    3  A    between atoms: C7_11  and  C8_12 
REMARK    4  A    between atoms: C8_12  and  N4_13 
REMARK    5  A    between atoms: C8_12  and  C10_19 
REMARK    6  A    between atoms: C10_19  and  C11_20 
REMARK    7  A    between atoms: C11_20  and  C12_21 
REMARK    8  A    between atoms: C12_21  and  C13_22 
REMARK    9  A    between atoms: C13_22  and  N6_23 
REMARK   10  A    between atoms: C13_22  and  N7_27 
ROOT
HETATM    1  C8  UNL     1      48.412  31.074  42.022  1.00  0.00     0.243 C 
HETATM    2  C9  UNL     1      48.101  32.351  41.405  1.00  0.00     0.104 C 
HETATM    3  N5  UNL     1      47.843  33.376  40.929  1.00  0.00    -0.194 NA
ENDROOT
BRANCH   1   4
HETATM    4  C7  UNL     1      49.815  30.673  41.673  1.00  0.00     0.128 C 
HETATM    5  N3  UNL     1      50.213  30.175  40.602  1.00  0.00    -0.330 N 
ATOM      6  H3  UNL     1      51.212  29.972  40.565  1.00  0.00     0.179 HD
BRANCH   5   7
HETATM    7  N2  UNL     1      49.515  29.857  39.469  1.00  0.00    -0.224 NA
HETATM    8  C6  UNL     1      49.511  28.398  39.347  1.00  0.00     0.137 C 
BRANCH   7   9
HETATM    9  C4  UNL     1      50.165  30.346  38.263  1.00  0.00     0.074 C 
HETATM   10  C3  UNL     1      49.081  30.939  37.387  1.00  0.00     0.060 C 
HETATM   11  C2  UNL     1      49.230  32.433  37.535  1.00  0.00     0.276 C 
HETATM   12  N1  UNL     1      50.199  32.652  38.580  1.00  0.00     0.104 N 
HETATM   13  C1  UNL     1      50.874  33.901  38.302  1.00  0.00     0.311 C 
HETATM   14  C14 UNL     1      51.058  31.515  38.505  1.00  0.00     0.352 C 
HETATM   15  C15 UNL     1      51.916  31.673  37.311  1.00  0.00     0.097 C 
HETATM   16  N8  UNL     1      52.573  31.799  36.365  1.00  0.00    -0.195 NA
HETATM   17  C5  UNL     1      50.844  29.246  37.489  1.00  0.00     0.037 C 
ENDBRANCH   7   9
ENDBRANCH   5   7
ENDBRANCH   1   4
BRANCH   1  18
HETATM   18  N4  UNL     1      47.498  30.026  41.595  1.00  0.00    -0.052 N 
ATOM     19  H43 UNL     1      46.622  30.400  41.231  1.00  0.00     0.276 HD
ATOM     20  H42 UNL     1      47.815  29.556  40.748  1.00  0.00     0.276 HD
ATOM     21  H41 UNL     1      47.351  29.376  42.367  1.00  0.00     0.276 HD
ENDBRANCH   1  18
BRANCH   1  22
HETATM   22  C10 UNL     1      48.250  31.225  43.507  1.00  0.00     0.060 C 
BRANCH  22  23
HETATM   23  C11 UNL     1      49.505  31.638  44.181  1.00  0.00     0.008 C 
BRANCH  23  24
HETATM   24  C12 UNL     1      49.500  31.973  45.615  1.00  0.00     0.062 C 
BRANCH  24  25
HETATM   25  C13 UNL     1      50.517  31.037  46.307  1.00  0.00     0.378 C 
BRANCH  25  26
HETATM   26  N6  UNL     1      51.041  31.645  47.506  1.00  0.00    -0.051 N 
ATOM     27  H63 UNL     1      50.422  32.374  47.860  1.00  0.00     0.276 HD
ATOM     28  H62 UNL     1      51.000  31.007  48.300  1.00  0.00     0.276 HD
ATOM     29  H61 UNL     1      51.986  31.995  47.352  1.00  0.00     0.276 HD
ENDBRANCH  25  26
BRANCH  25  30
HETATM   30  N7  UNL     1      51.616  30.877  45.375  1.00  0.00    -0.051 N 
ATOM     31  H73 UNL     1      52.480  31.320  45.685  1.00  0.00     0.276 HD
ATOM     32  H72 UNL     1      51.974  29.924  45.329  1.00  0.00     0.276 HD
ATOM     33  H71 UNL     1      51.279  31.228  44.478  1.00  0.00     0.276 HD
ENDBRANCH  25  30
ENDBRANCH  24  25
ENDBRANCH  23  24
ENDBRANCH  22  23
ENDBRANCH   1  22
TORSDOF 10
ENDMDL
MODEL 4
REMARK VINA RESULT: -6.511882281      1.506      3.301
REMARK  10 active torsions:
REMARK  status: ('A' for Active; 'I' for Inactive)
REMARK    1  A    between atoms: C4_5  and  N2_7 
REMARK    2  A    between atoms: N2_7  and  N3_9 
REMARK    3  A    between atoms: C7_11  and  C8_12 
REMARK    4  A    between atoms: C8_12  and  N4_13 
REMARK    5  A    between atoms: C8_12  and  C10_19 
REMARK    6  A    between atoms: C10_19  and  C11_20 
REMARK    7  A    between atoms: C11_20  and  C12_21 
REMARK    8  A    between atoms: C12_21  and  C13_22 
REMARK    9  A    between atoms: C13_22  and  N6_23 
REMARK   10  A    between atoms: C13_22  and  N7_27 
ROOT
HETATM    1  C8  UNL     1      49.380  32.090  41.822  1.00  0.00     0.243 C 
HETATM    2  C9  UNL     1      49.966  33.200  41.094  1.00  0.00     0.104 C 
HETATM    3  N5  UNL     1      50.427  34.100  40.527  1.00  0.00    -0.194 NA
ENDROOT
BRANCH   1   4
HETATM    4  C7  UNL     1      50.291  30.900  41.746  1.00  0.00     0.128 C 
HETATM    5  N3  UNL     1      50.169  29.902  41.009  1.00  0.00    -0.330 N 
ATOM      6  H3  UNL     1      50.900  29.198  41.111  1.00  0.00     0.179 HD
BRANCH   5   7
HETATM    7  N2  UNL     1      49.206  29.608  40.083  1.00  0.00    -0.224 NA
HETATM    8  C6  UNL     1      48.643  28.301  40.432  1.00  0.00     0.137 C 
BRANCH   7   9
HETATM    9  C4  UNL     1      49.753  29.449  38.744  1.00  0.00     0.074 C 
HETATM   10  C3  UNL     1      48.620  29.701  37.771  1.00  0.00     0.060 C 
HETATM   11  C2  UNL     1      48.872  31.085  37.226  1.00  0.00     0.276 C 
HETATM   12  N1  UNL     1      49.957  31.643  37.995  1.00  0.00     0.104 N 
HETATM   13  C1  UNL     1      50.671  32.569  37.143  1.00  0.00     0.311 C 
HETATM   14  C14 UNL     1      50.734  30.510  38.378  1.00  0.00     0.352 C 
HETATM   15  C15 UNL     1      51.470  30.041  37.183  1.00  0.00     0.097 C 
HETATM   16  N8  UNL     1      52.030  29.672  36.238  1.00  0.00    -0.195 NA
HETATM   17  C5  UNL     1      50.280  28.059  38.499  1.00  0.00     0.037 C 
ENDBRANCH   7   9
ENDBRANCH   5   7
ENDBRANCH   1   4
BRANCH   1  18
HETATM   18  N4  UNL     1      48.074  31.723  41.297  1.00  0.00    -0.052 N 
ATOM     19  H43 UNL     1      47.348  32.387  41.565  1.00  0.00     0.276 HD
ATOM     20  H42 UNL     1      48.014  31.845  40.287  1.00  0.00     0.276 HD
ATOM     21  H41 UNL     1      47.853  30.770  41.587  1.00  0.00     0.276 HD
ENDBRANCH   1  18
BRANCH   1  22
HETATM   22  C10 UNL     1      49.180  32.522  43.245  1.00  0.00     0.060 C 
BRANCH  22  23
HETATM   23  C11 UNL     1      49.886  31.649  44.214  1.00  0.00     0.008 C 
BRANCH  23  24
HETATM   24  C12 UNL     1      49.524  31.683  45.642  1.00  0.00     0.062 C 
BRANCH  24  25
HETATM   25  C13 UNL     1      50.632  30.930  46.413  1.00  0.00     0.378 C 
BRANCH  25  26
HETATM   26  N6  UNL     1      51.086  31.702  47.544  1.00  0.00    -0.051 N 
ATOM     27  H63 UNL     1      50.661  31.380  48.414  1.00  0.00     0.276 HD
ATOM     28  H62 UNL     1      52.061  31.506  47.767  1.00  0.00     0.276 HD
ATOM     29  H61 UNL     1      50.927  32.698  47.392  1.00  0.00     0.276 HD
ENDBRANCH  25  26
BRANCH  25  30
HETATM   30  N7  UNL     1      51.745  30.799  45.491  1.00  0.00    -0.051 N 
ATOM     31  H73 UNL     1      51.531  31.120  44.547  1.00  0.00     0.276 HD
ATOM     32  H72 UNL     1      52.504  31.454  45.676  1.00  0.00     0.276 HD
ATOM     33  H71 UNL     1      52.033  29.822  45.533  1.00  0.00     0.276 HD
ENDBRANCH  25  30
ENDBRANCH  24  25
ENDBRANCH  23  24
ENDBRANCH  22  23
ENDBRANCH   1  22
TORSDOF 10
ENDMDL
MODEL 5
REMARK VINA RESULT: -6.396790406      1.519      3.105
REMARK  10 active torsions:
REMARK  status: ('A' for Active; 'I' for Inactive)
REMARK    1  A    between atoms: C4_5  and  N2_7 
REMARK    2  A    between atoms: N2_7  and  N3_9 
REMARK    3  A    between atoms: C7_11  and  C8_12 
REMARK    4  A    between atoms: C8_12  and  N4_13 
REMARK    5  A    between atoms: C8_12  and  C10_19 
REMARK    6  A    between atoms: C10_19  and  C11_20 
REMARK    7  A    between atoms: C11_20  and  C12_21 
REMARK    8  A    between atoms: C12_21  and  C13_22 
REMARK    9  A    between atoms: C13_22  and  N6_23 
REMARK   10  A    between atoms: C13_22  and  N7_27 
ROOT
HETATM    1  C8  UNL     1      49.852  31.529  41.904  1.00  0.00     0.243 C 
HETATM    2  C9  UNL     1      48.813  32.473  41.536  1.00  0.00     0.104 C 
HETATM    3  N5  UNL     1      47.976  33.226  41.261  1.00  0.00    -0.194 NA
ENDROOT
BRANCH   1   4
HETATM    4  C7  UNL     1      51.120  31.865  41.174  1.00  0.00     0.128 C 
HETATM    5  N3  UNL     1      51.270  31.991  39.943  1.00  0.00    -0.330 N 
ATOM      6  H3  UNL     1      52.218  32.222  39.645  1.00  0.00     0.179 HD
BRANCH   5   7
HETATM    7  N2  UNL     1      50.359  31.867  38.930  1.00  0.00    -0.224 NA
HETATM    8  C6  UNL     1      50.589  30.572  38.284  1.00  0.00     0.137 C 
BRANCH   7   9
HETATM    9  C4  UNL     1      50.553  32.860  37.885  1.00  0.00     0.074 C 
HETATM   10  C3  UNL     1      49.177  33.336  37.467  1.00  0.00     0.060 C 
HETATM   11  C2  UNL     1      49.019  34.693  38.107  1.00  0.00     0.276 C 
HETATM   12  N1  UNL     1      50.147  34.870  38.988  1.00  0.00     0.104 N 
HETATM   13  C1  UNL     1      50.429  36.288  39.063  1.00  0.00     0.311 C 
HETATM   14  C14 UNL     1      51.191  34.116  38.375  1.00  0.00     0.352 C 
HETATM   15  C15 UNL     1      51.658  34.868  37.190  1.00  0.00     0.097 C 
HETATM   16  N8  UNL     1      52.008  35.458  36.256  1.00  0.00    -0.195 NA
HETATM   17  C5  UNL     1      51.242  32.293  36.671  1.00  0.00     0.037 C 
ENDBRANCH   7   9
ENDBRANCH   5   7
ENDBRANCH   1   4
BRANCH   1  18
HETATM   18  N4  UNL     1      49.476  30.158  41.598  1.00  0.00    -0.052 N 
ATOM     19  H43 UNL     1      49.894  29.826  40.729  1.00  0.00     0.276 HD
ATOM     20  H42 UNL     1      49.910  29.486  42.230  1.00  0.00     0.276 HD
ATOM     21  H41 UNL     1      48.459  30.084  41.591  1.00  0.00     0.276 HD
ENDBRANCH   1  18
BRANCH   1  22
HETATM   22  C10 UNL     1      50.050  31.613  43.389  1.00  0.00     0.060 C 
BRANCH  22  23
HETATM   23  C11 UNL     1      48.770  31.616  44.139  1.00  0.00     0.008 C 
BRANCH  23  24
HETATM   24  C12 UNL     1      48.745  32.004  45.559  1.00  0.00     0.062 C 
BRANCH  24  25
HETATM   25  C13 UNL     1      49.494  30.905  46.347  1.00  0.00     0.378 C 
BRANCH  25  26
HETATM   26  N6  UNL     1      48.594  30.199  47.225  1.00  0.00    -0.051 N 
ATOM     27  H63 UNL     1      48.585  30.604  48.161  1.00  0.00     0.276 HD
ATOM     28  H62 UNL     1      47.618  30.363  46.977  1.00  0.00     0.276 HD
ATOM     29  H61 UNL     1      48.814  29.203  47.247  1.00  0.00     0.276 HD
ENDBRANCH  25  26
BRANCH  25  30
HETATM   30  N7  UNL     1      50.467  31.594  47.172  1.00  0.00    -0.051 N 
ATOM     31  H73 UNL     1      50.597  32.573  46.917  1.00  0.00     0.276 HD
ATOM     32  H72 UNL     1      50.148  31.757  48.127  1.00  0.00     0.276 HD
ATOM     33  H71 UNL     1      51.324  31.044  47.118  1.00  0.00     0.276 HD
ENDBRANCH  25  30
ENDBRANCH  24  25
ENDBRANCH  23  24
ENDBRANCH  22  23
ENDBRANCH   1  22
TORSDOF 10
ENDMDL
