MODEL 1
REMARK VINA RESULT: -6.399580546      0.000      0.000
REMARK  3 active torsions:
REMARK  status: ('A' for Active; 'I' for Inactive)
REMARK    1  A    between atoms: C4_4  and  C5_5 
REMARK    2  A    between atoms: C4_4  and  C10_13 
REMARK       I    between atoms: C5_5  and  N1_7 
REMARK    3  A    between atoms: N1_7  and  C6_9 
ROOT
HETATM    1  C1  UNL     1      40.443  -8.085  -1.575  1.00  0.00     0.039 C 
HETATM    2  C2  UNL     1      40.388  -9.525  -2.059  1.00  0.00     0.120 C 
HETATM    3  C3  UNL     1      40.337  -9.517  -3.544  1.00  0.00     0.061 C 
HETATM    4  C4  UNL     1      39.989 -10.864  -4.160  1.00  0.00     0.159 C 
HETATM    5  C11 UNL     1      38.969 -11.609  -3.387  1.00  0.00     0.153 C 
HETATM    6  C12 UNL     1      37.607 -11.236  -3.851  1.00  0.00     0.068 C 
HETATM    7  N2  UNL     1      36.538 -10.948  -4.186  1.00  0.00    -0.197 NA
HETATM    8  C13 UNL     1      39.002 -11.392  -1.888  1.00  0.00     0.071 C 
HETATM    9  C14 UNL     1      39.849 -12.373  -1.144  1.00  0.00     0.047 C 
HETATM   10  C15 UNL     1      37.548 -11.636  -1.427  1.00  0.00     0.047 C 
HETATM   11  O2  UNL     1      39.259 -10.088  -1.541  1.00  0.00    -0.375 OA
ENDROOT
BRANCH   4  12
HETATM   12  C5  UNL     1      39.494 -10.650  -5.542  1.00  0.00     0.237 C 
HETATM   13  O1  UNL     1      39.697  -9.537  -6.089  1.00  0.00    -0.272 OA
HETATM   14  N1  UNL     1      38.807 -11.635  -6.283  1.00  0.00    -0.352 N 
ATOM     15  H1  UNL     1      38.624 -12.539  -5.846  1.00  0.00     0.163 HD
BRANCH  14  16
HETATM   16  C6  UNL     1      38.355 -11.417  -7.630  1.00  0.00     0.022 C 
HETATM   17  C7  UNL     1      39.350 -11.927  -8.659  1.00  0.00     0.037 C 
HETATM   18  C8  UNL     1      37.078 -12.199  -7.879  1.00  0.00     0.037 C 
HETATM   19  C9  UNL     1      38.058  -9.985  -7.970  1.00  0.00     0.037 C 
ENDBRANCH  14  16
ENDBRANCH   4  12
BRANCH   4  20
HETATM   20  C10 UNL     1      41.292 -11.670  -4.350  1.00  0.00     0.405 C 
HETATM   21  F1  UNL     1      42.364 -11.029  -3.781  1.00  0.00    -0.170 F 
HETATM   22  F2  UNL     1      41.495 -12.060  -5.635  1.00  0.00    -0.170 F 
HETATM   23  F3  UNL     1      41.174 -12.874  -3.626  1.00  0.00    -0.170 F 
ENDBRANCH   4  20
TORSDOF 3
ENDMDL
MODEL 2
REMARK VINA RESULT: -5.849066673      2.431      3.663
REMARK  3 active torsions:
REMARK  status: ('A' for Active; 'I' for Inactive)
REMARK    1  A    between atoms: C4_4  and  C5_5 
REMARK    2  A    between atoms: C4_4  and  C10_13 
REMARK       I    between atoms: C5_5  and  N1_7 
REMARK    3  A    between atoms: N1_7  and  C6_9 
ROOT
HETATM    1  C1  UNL     1      38.278 -15.321  -2.198  1.00  0.00     0.039 C 
HETATM    2  C2  UNL     1      38.840 -13.932  -1.938  1.00  0.00     0.120 C 
HETATM    3  C3  UNL     1      38.470 -13.057  -3.080  1.00  0.00     0.061 C 
HETATM    4  C4  UNL     1      39.202 -11.724  -3.104  1.00  0.00     0.159 C 
HETATM    5  C11 UNL     1      40.617 -11.832  -2.683  1.00  0.00     0.153 C 
HETATM    6  C12 UNL     1      41.477 -12.132  -3.858  1.00  0.00     0.068 C 
HETATM    7  N2  UNL     1      42.161 -12.381  -4.756  1.00  0.00    -0.197 NA
HETATM    8  C13 UNL     1      40.906 -12.893  -1.639  1.00  0.00     0.071 C 
HETATM    9  C14 UNL     1      40.835 -12.403  -0.230  1.00  0.00     0.047 C 
HETATM   10  C15 UNL     1      42.377 -13.292  -1.887  1.00  0.00     0.047 C 
HETATM   11  O2  UNL     1      40.195 -14.051  -1.843  1.00  0.00    -0.375 OA
ENDROOT
BRANCH   4  12
HETATM   12  C5  UNL     1      39.143 -11.165  -4.477  1.00  0.00     0.237 C 
HETATM   13  O1  UNL     1      39.739 -10.084  -4.713  1.00  0.00    -0.272 OA
HETATM   14  N1  UNL     1      38.455 -11.786  -5.541  1.00  0.00    -0.352 N 
ATOM     15  H1  UNL     1      37.956 -12.658  -5.360  1.00  0.00     0.163 HD
BRANCH  14  16
HETATM   16  C6  UNL     1      38.428 -11.240  -6.870  1.00  0.00     0.022 C 
HETATM   17  C7  UNL     1      39.724 -11.494  -7.621  1.00  0.00     0.037 C 
HETATM   18  C8  UNL     1      37.347 -11.924  -7.688  1.00  0.00     0.037 C 
HETATM   19  C9  UNL     1      38.155  -9.766  -6.940  1.00  0.00     0.037 C 
ENDBRANCH  14  16
ENDBRANCH   4  12
BRANCH   4  20
HETATM   20  C10 UNL     1      38.408 -10.710  -2.253  1.00  0.00     0.405 C 
HETATM   21  F1  UNL     1      37.204 -10.402  -2.836  1.00  0.00    -0.170 F 
HETATM   22  F2  UNL     1      39.142  -9.627  -1.890  1.00  0.00    -0.170 F 
HETATM   23  F3  UNL     1      38.062 -11.331  -1.036  1.00  0.00    -0.170 F 
ENDBRANCH   4  20
TORSDOF 3
ENDMDL
MODEL 3
REMARK VINA RESULT: -5.782854071      2.139      3.296
REMARK  3 active torsions:
REMARK  status: ('A' for Active; 'I' for Inactive)
REMARK    1  A    between atoms: C4_4  and  C5_5 
REMARK    2  A    between atoms: C4_4  and  C10_13 
REMARK       I    between atoms: C5_5  and  N1_7 
REMARK    3  A    between atoms: N1_7  and  C6_9 
ROOT
HETATM    1  C1  UNL     1      42.487 -13.247  -3.509  1.00  0.00     0.039 C 
HETATM    2  C2  UNL     1      41.296 -12.399  -3.093  1.00  0.00     0.120 C 
HETATM    3  C3  UNL     1      40.275 -12.467  -4.170  1.00  0.00     0.061 C 
HETATM    4  C4  UNL     1      39.157 -11.445  -4.031  1.00  0.00     0.159 C 
HETATM    5  C11 UNL     1      39.631 -10.130  -3.542  1.00  0.00     0.153 C 
HETATM    6  C12 UNL     1      40.039  -9.277  -4.689  1.00  0.00     0.068 C 
HETATM    7  N2  UNL     1      40.376  -8.602  -5.565  1.00  0.00    -0.197 NA
HETATM    8  C13 UNL     1      40.805 -10.177  -2.584  1.00  0.00     0.071 C 
HETATM    9  C14 UNL     1      40.420 -10.239  -1.142  1.00  0.00     0.047 C 
HETATM   10  C15 UNL     1      41.524  -8.825  -2.783  1.00  0.00     0.047 C 
HETATM   11  O2  UNL     1      41.742 -11.120  -2.932  1.00  0.00    -0.375 OA
ENDROOT
BRANCH   4  12
HETATM   12  C5  UNL     1      38.499 -11.266  -5.348  1.00  0.00     0.237 C 
HETATM   13  O1  UNL     1      37.365 -10.727  -5.387  1.00  0.00    -0.272 OA
HETATM   14  N1  UNL     1      39.083 -11.666  -6.570  1.00  0.00    -0.352 N 
ATOM     15  H1  UNL     1      39.998 -12.117  -6.552  1.00  0.00     0.163 HD
BRANCH  14  16
HETATM   16  C6  UNL     1      38.439 -11.464  -7.839  1.00  0.00     0.022 C 
HETATM   17  C7  UNL     1      38.272  -9.991  -8.169  1.00  0.00     0.037 C 
HETATM   18  C8  UNL     1      39.301 -12.032  -8.952  1.00  0.00     0.037 C 
HETATM   19  C9  UNL     1      37.088 -12.106  -7.969  1.00  0.00     0.037 C 
ENDBRANCH  14  16
ENDBRANCH   4  12
BRANCH   4  20
HETATM   20  C10 UNL     1      38.050 -12.044  -3.138  1.00  0.00     0.405 C 
HETATM   21  F1  UNL     1      37.287 -12.952  -3.829  1.00  0.00    -0.170 F 
HETATM   22  F2  UNL     1      37.328 -11.101  -2.478  1.00  0.00    -0.170 F 
HETATM   23  F3  UNL     1      38.665 -12.800  -2.119  1.00  0.00    -0.170 F 
ENDBRANCH   4  20
TORSDOF 3
ENDMDL
MODEL 4
REMARK VINA RESULT: -5.734190727      1.679      2.247
REMARK  3 active torsions:
REMARK  status: ('A' for Active; 'I' for Inactive)
REMARK    1  A    between atoms: C4_4  and  C5_5 
REMARK    2  A    between atoms: C4_4  and  C10_13 
REMARK       I    between atoms: C5_5  and  N1_7 
REMARK    3  A    between atoms: N1_7  and  C6_9 
ROOT
HETATM    1  C1  UNL     1      37.450 -10.034  -0.128  1.00  0.00     0.039 C 
HETATM    2  C2  UNL     1      38.334 -10.955  -0.953  1.00  0.00     0.120 C 
HETATM    3  C3  UNL     1      38.260 -10.525  -2.373  1.00  0.00     0.061 C 
HETATM    4  C4  UNL     1      38.858 -11.521  -3.355  1.00  0.00     0.159 C 
HETATM    5  C11 UNL     1      38.584 -12.930  -2.992  1.00  0.00     0.153 C 
HETATM    6  C12 UNL     1      37.297 -13.369  -3.593  1.00  0.00     0.068 C 
HETATM    7  N2  UNL     1      36.291 -13.726  -4.039  1.00  0.00    -0.197 NA
HETATM    8  C13 UNL     1      38.499 -13.214  -1.506  1.00  0.00     0.071 C 
HETATM    9  C14 UNL     1      39.795 -13.619  -0.883  1.00  0.00     0.047 C 
HETATM   10  C15 UNL     1      37.563 -14.438  -1.396  1.00  0.00     0.047 C 
HETATM   11  O2  UNL     1      37.853 -12.223  -0.808  1.00  0.00    -0.375 OA
ENDROOT
BRANCH   4  12
HETATM   12  C5  UNL     1      38.315 -11.251  -4.709  1.00  0.00     0.237 C 
HETATM   13  O1  UNL     1      37.232 -10.622  -4.808  1.00  0.00    -0.272 OA
HETATM   14  N1  UNL     1      38.954 -11.660  -5.899  1.00  0.00    -0.352 N 
ATOM     15  H1  UNL     1      39.828 -12.183  -5.832  1.00  0.00     0.163 HD
BRANCH  14  16
HETATM   16  C6  UNL     1      38.423 -11.369  -7.203  1.00  0.00     0.022 C 
HETATM   17  C7  UNL     1      38.264  -9.877  -7.438  1.00  0.00     0.037 C 
HETATM   18  C8  UNL     1      39.389 -11.847  -8.272  1.00  0.00     0.037 C 
HETATM   19  C9  UNL     1      37.099 -12.010  -7.501  1.00  0.00     0.037 C 
ENDBRANCH  14  16
ENDBRANCH   4  12
BRANCH   4  20
HETATM   20  C10 UNL     1      40.368 -11.230  -3.494  1.00  0.00     0.405 C 
HETATM   21  F1  UNL     1      40.594 -10.125  -4.276  1.00  0.00    -0.170 F 
HETATM   22  F2  UNL     1      41.091 -12.321  -3.852  1.00  0.00    -0.170 F 
HETATM   23  F3  UNL     1      40.867 -10.872  -2.224  1.00  0.00    -0.170 F 
ENDBRANCH   4  20
TORSDOF 3
ENDMDL
MODEL 5
REMARK VINA RESULT: -5.733141992      1.008      1.536
REMARK  3 active torsions:
REMARK  status: ('A' for Active; 'I' for Inactive)
REMARK    1  A    between atoms: C4_4  and  C5_5 
REMARK    2  A    between atoms: C4_4  and  C10_13 
REMARK       I    between atoms: C5_5  and  N1_7 
REMARK    3  A    between atoms: N1_7  and  C6_9 
ROOT
HETATM    1  C1  UNL     1      39.165  -9.369  -0.712  1.00  0.00     0.039 C 
HETATM    2  C2  UNL     1      39.520 -10.587  -1.549  1.00  0.00     0.120 C 
HETATM    3  C3  UNL     1      39.713 -10.148  -2.956  1.00  0.00     0.061 C 
HETATM    4  C4  UNL     1      39.786 -11.289  -3.958  1.00  0.00     0.159 C 
HETATM    5  C11 UNL     1      38.851 -12.394  -3.649  1.00  0.00     0.153 C 
HETATM    6  C12 UNL     1      37.534 -12.141  -4.291  1.00  0.00     0.068 C 
HETATM    7  N2  UNL     1      36.497 -11.956  -4.769  1.00  0.00    -0.197 NA
HETATM    8  C13 UNL     1      38.588 -12.631  -2.175  1.00  0.00     0.071 C 
HETATM    9  C14 UNL     1      39.502 -13.627  -1.540  1.00  0.00     0.047 C 
HETATM   10  C15 UNL     1      37.173 -13.248  -2.126  1.00  0.00     0.047 C 
HETATM   11  O2  UNL     1      38.480 -11.465  -1.457  1.00  0.00    -0.375 OA
ENDROOT
BRANCH   4  12
HETATM   12  C5  UNL     1      39.489 -10.763  -5.313  1.00  0.00     0.237 C 
HETATM   13  O1  UNL     1      39.718  -9.551  -5.552  1.00  0.00    -0.272 OA
HETATM   14  N1  UNL     1      38.964 -11.555  -6.357  1.00  0.00    -0.352 N 
ATOM     15  H1  UNL     1      38.761 -12.538  -6.172  1.00  0.00     0.163 HD
BRANCH  14  16
HETATM   16  C6  UNL     1      38.703 -11.032  -7.670  1.00  0.00     0.022 C 
HETATM   17  C7  UNL     1      37.739 -11.905  -8.455  1.00  0.00     0.037 C 
HETATM   18  C8  UNL     1      38.025  -9.678  -7.561  1.00  0.00     0.037 C 
HETATM   19  C9  UNL     1      39.922 -10.837  -8.523  1.00  0.00     0.037 C 
ENDBRANCH  14  16
ENDBRANCH   4  12
BRANCH   4  20
HETATM   20  C10 UNL     1      41.252 -11.766  -4.056  1.00  0.00     0.405 C 
HETATM   21  F1  UNL     1      41.581 -12.109  -5.344  1.00  0.00    -0.170 F 
HETATM   22  F2  UNL     1      41.569 -12.709  -3.132  1.00  0.00    -0.170 F 
HETATM   23  F3  UNL     1      42.091 -10.674  -3.755  1.00  0.00    -0.170 F 
ENDBRANCH   4  20
TORSDOF 3
ENDMDL
