MODEL 1
REMARK VINA RESULT: -6.816144550      0.000      0.000
REMARK  4 active torsions:
REMARK  status: ('A' for Active; 'I' for Inactive)
REMARK    1  A    between atoms: N1_1  and  C1_4 
REMARK    2  A    between atoms: C4_12  and  C5_13 
REMARK    3  A    between atoms: C5_13  and  N4_14 
REMARK    4  A    between atoms: N4_14  and  C6_16 
ROOT
HETATM    1  C1  UNL     1      24.725 -11.027  -3.274  1.00  0.00     0.112 A 
HETATM    2  N2  UNL     1      24.115  -9.847  -3.190  1.00  0.00    -0.294 N 
ATOM      3  H2  UNL     1      24.154  -9.376  -2.285  1.00  0.00     0.172 HD
HETATM    4  C2  UNL     1      23.450  -9.207  -4.173  1.00  0.00     0.325 A 
HETATM    5  O1  UNL     1      22.901  -8.098  -4.035  1.00  0.00    -0.247 OA
HETATM    6  N3  UNL     1      23.412  -9.867  -5.380  1.00  0.00    -0.318 N 
ATOM      7  H3  UNL     1      22.926  -9.443  -6.172  1.00  0.00     0.170 HD
HETATM    8  C3  UNL     1      24.006 -11.058  -5.527  1.00  0.00     0.105 A 
HETATM    9  C4  UNL     1      24.684 -11.706  -4.514  1.00  0.00     0.019 A 
ENDROOT
BRANCH   9  10
HETATM   10  C5  UNL     1      25.471 -12.928  -4.668  1.00  0.00     0.165 C 
BRANCH  10  11
HETATM   11  N4  UNL     1      24.700 -14.122  -4.617  1.00  0.00    -0.364 N 
ATOM     12  H4  UNL     1      23.714 -13.889  -4.509  1.00  0.00     0.162 HD
BRANCH  11  13
HETATM   13  C6  UNL     1      24.853 -15.477  -4.665  1.00  0.00     0.348 C 
HETATM   14  O2  UNL     1      25.335 -16.304  -3.923  1.00  0.00    -0.284 OA
ENDBRANCH  11  13
ENDBRANCH  10  11
ENDBRANCH   9  10
BRANCH   1  15
HETATM   15  N1  UNL     1      25.233 -11.609  -2.207  1.00  0.00    -0.385 N 
ATOM     16  H12 UNL     1      25.581 -11.051  -1.426  1.00  0.00     0.157 HD
ATOM     17  H11 UNL     1      25.388 -12.617  -2.179  1.00  0.00     0.157 HD
ENDBRANCH   1  15
TORSDOF 4
ENDMDL
MODEL 2
REMARK VINA RESULT: -6.249937763      1.384      4.855
REMARK  4 active torsions:
REMARK  status: ('A' for Active; 'I' for Inactive)
REMARK    1  A    between atoms: N1_1  and  C1_4 
REMARK    2  A    between atoms: C4_12  and  C5_13 
REMARK    3  A    between atoms: C5_13  and  N4_14 
REMARK    4  A    between atoms: N4_14  and  C6_16 
ROOT
HETATM    1  C1  UNL     1      25.188 -12.118  -3.790  1.00  0.00     0.112 A 
HETATM    2  N2  UNL     1      25.232 -13.417  -4.080  1.00  0.00    -0.294 N 
ATOM      3  H2  UNL     1      24.913 -14.058  -3.353  1.00  0.00     0.172 HD
HETATM    4  C2  UNL     1      25.653 -13.975  -5.232  1.00  0.00     0.325 A 
HETATM    5  O1  UNL     1      25.667 -15.201  -5.448  1.00  0.00    -0.247 OA
HETATM    6  N3  UNL     1      26.080 -13.086  -6.193  1.00  0.00    -0.318 N 
ATOM      7  H3  UNL     1      26.413 -13.436  -7.091  1.00  0.00     0.170 HD
HETATM    8  C3  UNL     1      26.061 -11.768  -5.960  1.00  0.00     0.105 A 
HETATM    9  C4  UNL     1      25.629 -11.205  -4.775  1.00  0.00     0.019 A 
ENDROOT
BRANCH   9  10
HETATM   10  C5  UNL     1      25.449  -9.774  -4.533  1.00  0.00     0.165 C 
BRANCH  10  11
HETATM   11  N4  UNL     1      24.142  -9.299  -4.828  1.00  0.00    -0.364 N 
ATOM     12  H4  UNL     1      24.106  -8.968  -5.792  1.00  0.00     0.162 HD
BRANCH  11  13
HETATM   13  C6  UNL     1      22.921  -9.143  -4.240  1.00  0.00     0.348 C 
HETATM   14  O2  UNL     1      22.250  -8.187  -3.916  1.00  0.00    -0.284 OA
ENDBRANCH  11  13
ENDBRANCH  10  11
ENDBRANCH   9  10
BRANCH   1  15
HETATM   15  N1  UNL     1      24.875 -11.701  -2.579  1.00  0.00    -0.385 N 
ATOM     16  H12 UNL     1      23.957 -11.902  -2.182  1.00  0.00     0.157 HD
ATOM     17  H11 UNL     1      25.496 -11.082  -2.059  1.00  0.00     0.157 HD
ENDBRANCH   1  15
TORSDOF 4
ENDMDL
MODEL 3
REMARK VINA RESULT: -6.219945366      0.843      1.963
REMARK  4 active torsions:
REMARK  status: ('A' for Active; 'I' for Inactive)
REMARK    1  A    between atoms: N1_1  and  C1_4 
REMARK    2  A    between atoms: C4_12  and  C5_13 
REMARK    3  A    between atoms: C5_13  and  N4_14 
REMARK    4  A    between atoms: N4_14  and  C6_16 
ROOT
HETATM    1  C1  UNL     1      24.646 -10.882  -5.793  1.00  0.00     0.112 A 
HETATM    2  N2  UNL     1      24.002  -9.762  -5.472  1.00  0.00    -0.294 N 
ATOM      3  H2  UNL     1      23.685  -9.180  -6.247  1.00  0.00     0.172 HD
HETATM    4  C2  UNL     1      23.723  -9.317  -4.230  1.00  0.00     0.325 A 
HETATM    5  O1  UNL     1      23.110  -8.260  -3.991  1.00  0.00    -0.247 OA
HETATM    6  N3  UNL     1      24.165 -10.122  -3.205  1.00  0.00    -0.318 N 
ATOM      7  H3  UNL     1      23.990  -9.850  -2.238  1.00  0.00     0.170 HD
HETATM    8  C3  UNL     1      24.821 -11.261  -3.465  1.00  0.00     0.105 A 
HETATM    9  C4  UNL     1      25.103 -11.709  -4.740  1.00  0.00     0.019 A 
ENDROOT
BRANCH   9  10
HETATM   10  C5  UNL     1      25.679 -13.011  -5.073  1.00  0.00     0.165 C 
BRANCH  10  11
HETATM   11  N4  UNL     1      24.896 -14.115  -4.639  1.00  0.00    -0.364 N 
ATOM     12  H4  UNL     1      24.066 -13.778  -4.151  1.00  0.00     0.162 HD
BRANCH  11  13
HETATM   13  C6  UNL     1      24.895 -15.479  -4.663  1.00  0.00     0.348 C 
HETATM   14  O2  UNL     1      25.296 -16.343  -3.913  1.00  0.00    -0.284 OA
ENDBRANCH  11  13
ENDBRANCH  10  11
ENDBRANCH   9  10
BRANCH   1  15
HETATM   15  N1  UNL     1      24.970 -11.147  -7.043  1.00  0.00    -0.385 N 
ATOM     16  H12 UNL     1      24.467 -11.861  -7.570  1.00  0.00     0.157 HD
ATOM     17  H11 UNL     1      25.792 -10.725  -7.475  1.00  0.00     0.157 HD
ENDBRANCH   1  15
TORSDOF 4
ENDMDL
MODEL 4
REMARK VINA RESULT: -6.106668103      1.639      5.196
REMARK  4 active torsions:
REMARK  status: ('A' for Active; 'I' for Inactive)
REMARK    1  A    between atoms: N1_1  and  C1_4 
REMARK    2  A    between atoms: C4_12  and  C5_13 
REMARK    3  A    between atoms: C5_13  and  N4_14 
REMARK    4  A    between atoms: N4_14  and  C6_16 
ROOT
HETATM    1  C1  UNL     1      24.855 -11.747  -3.419  1.00  0.00     0.112 A 
HETATM    2  N2  UNL     1      25.293 -12.935  -3.831  1.00  0.00    -0.294 N 
ATOM      3  H2  UNL     1      25.428 -13.646  -3.112  1.00  0.00     0.172 HD
HETATM    4  C2  UNL     1      25.575 -13.299  -5.098  1.00  0.00     0.325 A 
HETATM    5  O1  UNL     1      25.978 -14.431  -5.425  1.00  0.00    -0.247 OA
HETATM    6  N3  UNL     1      25.385 -12.319  -6.046  1.00  0.00    -0.318 N 
ATOM      7  H3  UNL     1      25.578 -12.521  -7.027  1.00  0.00     0.170 HD
HETATM    8  C3  UNL     1      24.948 -11.103  -5.693  1.00  0.00     0.105 A 
HETATM    9  C4  UNL     1      24.663 -10.739  -4.392  1.00  0.00     0.019 A 
ENDROOT
BRANCH   9  10
HETATM   10  C5  UNL     1      24.044  -9.480  -3.981  1.00  0.00     0.165 C 
BRANCH  10  11
HETATM   11  N4  UNL     1      24.514  -8.345  -4.697  1.00  0.00    -0.364 N 
ATOM     12  H4  UNL     1      25.147  -8.644  -5.438  1.00  0.00     0.162 HD
BRANCH  11  13
HETATM   13  C6  UNL     1      24.394  -6.986  -4.713  1.00  0.00     0.348 C 
HETATM   14  O2  UNL     1      23.459  -6.216  -4.701  1.00  0.00    -0.284 OA
ENDBRANCH  11  13
ENDBRANCH  10  11
ENDBRANCH   9  10
BRANCH   1  15
HETATM   15  N1  UNL     1      24.736 -11.473  -2.135  1.00  0.00    -0.385 N 
ATOM     16  H12 UNL     1      24.746 -12.221  -1.441  1.00  0.00     0.157 HD
ATOM     17  H11 UNL     1      24.528 -10.527  -1.816  1.00  0.00     0.157 HD
ENDBRANCH   1  15
TORSDOF 4
ENDMDL
MODEL 5
REMARK VINA RESULT: -6.047579495      1.764      5.257
REMARK  4 active torsions:
REMARK  status: ('A' for Active; 'I' for Inactive)
REMARK    1  A    between atoms: N1_1  and  C1_4 
REMARK    2  A    between atoms: C4_12  and  C5_13 
REMARK    3  A    between atoms: C5_13  and  N4_14 
REMARK    4  A    between atoms: N4_14  and  C6_16 
ROOT
HETATM    1  C1  UNL     1      26.357 -12.040  -5.917  1.00  0.00     0.112 A 
HETATM    2  N2  UNL     1      26.324 -13.368  -6.000  1.00  0.00    -0.294 N 
ATOM      3  H2  UNL     1      26.893 -13.794  -6.732  1.00  0.00     0.172 HD
HETATM    4  C2  UNL     1      25.617 -14.210  -5.220  1.00  0.00     0.325 A 
HETATM    5  O1  UNL     1      25.629 -15.449  -5.342  1.00  0.00    -0.247 OA
HETATM    6  N3  UNL     1      24.857 -13.607  -4.244  1.00  0.00    -0.318 N 
ATOM      7  H3  UNL     1      24.295 -14.181  -3.614  1.00  0.00     0.170 HD
HETATM    8  C3  UNL     1      24.848 -12.274  -4.111  1.00  0.00     0.105 A 
HETATM    9  C4  UNL     1      25.574 -11.419  -4.916  1.00  0.00     0.019 A 
ENDROOT
BRANCH   9  10
HETATM   10  C5  UNL     1      25.712  -9.978  -4.714  1.00  0.00     0.165 C 
BRANCH  10  11
HETATM   11  N4  UNL     1      24.652  -9.396  -3.966  1.00  0.00    -0.364 N 
ATOM     12  H4  UNL     1      24.935  -9.292  -2.992  1.00  0.00     0.162 HD
BRANCH  11  13
HETATM   13  C6  UNL     1      23.379  -8.933  -4.130  1.00  0.00     0.348 C 
HETATM   14  O2  UNL     1      22.866  -7.836  -4.112  1.00  0.00    -0.284 OA
ENDBRANCH  11  13
ENDBRANCH  10  11
ENDBRANCH   9  10
BRANCH   1  15
HETATM   15  N1  UNL     1      26.988 -11.316  -6.820  1.00  0.00    -0.385 N 
ATOM     16  H12 UNL     1      26.703 -11.344  -7.800  1.00  0.00     0.157 HD
ATOM     17  H11 UNL     1      27.835 -10.799  -6.584  1.00  0.00     0.157 HD
ENDBRANCH   1  15
TORSDOF 4
ENDMDL
