MODEL 1
REMARK VINA RESULT: -6.673783639      0.000      0.000
REMARK  5 active torsions:
REMARK  status: ('A' for Active; 'I' for Inactive)
REMARK       I    between atoms: C2_2  and  N1_4 
REMARK       I    between atoms: N1_4  and  C3_6 
REMARK    1  A    between atoms: C3_6  and  C4_8 
REMARK    2  A    between atoms: C5_9  and  N2_10 
REMARK    3  A    between atoms: N5_17  and  N6_18 
REMARK    4  A    between atoms: N6_18  and  N7_20 
REMARK    5  A    between atoms: N7_20  and  N8_21 
ROOT
HETATM    1  C4  UNL     1      45.534  91.999  35.062  1.00  0.00     0.190 A 
HETATM    2  C5  UNL     1      46.755  92.631  35.139  1.00  0.00     0.151 A 
HETATM    3  N3  UNL     1      46.735  93.458  36.213  1.00  0.00    -0.268 N 
ATOM      4  H3  UNL     1      47.495  94.061  36.530  1.00  0.00     0.190 HD
HETATM    5  N4  UNL     1      45.573  93.338  36.758  1.00  0.00    -0.218 N 
ATOM      6  H4  UNL     1      45.281  93.848  37.591  1.00  0.00     0.210 HD
HETATM    7  N5  UNL     1      44.790  92.463  36.104  1.00  0.00    -0.160 N 
ENDROOT
BRANCH   1   8
HETATM    8  C3  UNL     1      45.104  91.021  34.065  1.00  0.00     0.282 C 
HETATM    9  N1  UNL     1      44.285  89.931  34.328  1.00  0.00    -0.292 N 
HETATM   10  C2  UNL     1      43.925  89.036  33.280  1.00  0.00     0.220 C 
ATOM     11  H1  UNL     1      43.940  89.770  35.274  1.00  0.00     0.172 HD
HETATM   12  C1  UNL     1      43.049  87.850  33.502  1.00  0.00     0.117 C 
HETATM   13  O1  UNL     1      44.336  89.206  32.096  1.00  0.00    -0.274 OA
HETATM   14  O2  UNL     1      45.488  91.141  32.853  1.00  0.00    -0.265 OA
ENDBRANCH   1   8
BRANCH   2  15
HETATM   15  N2  UNL     1      47.784  92.505  34.360  1.00  0.00    -0.382 N 
ATOM     16  H22 UNL     1      48.553  91.861  34.552  1.00  0.00     0.157 HD
ATOM     17  H21 UNL     1      47.987  92.991  33.487  1.00  0.00     0.157 HD
ENDBRANCH   2  15
BRANCH   7  18
HETATM   18  N6  UNL     1      43.501  92.145  36.470  1.00  0.00    -0.204 N 
ATOM     19  H6  UNL     1      43.339  91.690  37.369  1.00  0.00     0.208 HD
BRANCH  18  20
HETATM   20  N7  UNL     1      42.395  92.432  35.636  1.00  0.00    -0.012 NA
BRANCH  20  21
HETATM   21  N8  UNL     1      42.358  93.827  35.381  1.00  0.00    -0.327 N 
ATOM     22  H82 UNL     1      42.303  94.247  34.452  1.00  0.00     0.174 HD
ATOM     23  H81 UNL     1      42.395  94.328  36.269  1.00  0.00     0.174 HD
ENDBRANCH  20  21
ENDBRANCH  18  20
ENDBRANCH   7  18
TORSDOF 5
ENDMDL
MODEL 2
REMARK VINA RESULT: -6.614202162      0.985      3.245
REMARK  5 active torsions:
REMARK  status: ('A' for Active; 'I' for Inactive)
REMARK       I    between atoms: C2_2  and  N1_4 
REMARK       I    between atoms: N1_4  and  C3_6 
REMARK    1  A    between atoms: C3_6  and  C4_8 
REMARK    2  A    between atoms: C5_9  and  N2_10 
REMARK    3  A    between atoms: N5_17  and  N6_18 
REMARK    4  A    between atoms: N6_18  and  N7_20 
REMARK    5  A    between atoms: N7_20  and  N8_21 
ROOT
HETATM    1  C4  UNL     1      45.189  91.831  35.110  1.00  0.00     0.190 A 
HETATM    2  C5  UNL     1      44.408  92.287  36.148  1.00  0.00     0.151 A 
HETATM    3  N3  UNL     1      45.113  93.227  36.826  1.00  0.00    -0.268 N 
ATOM      4  H3  UNL     1      44.800  93.747  37.645  1.00  0.00     0.190 HD
HETATM    5  N4  UNL     1      46.254  93.336  36.237  1.00  0.00    -0.218 N 
ATOM      6  H4  UNL     1      46.989  93.977  36.536  1.00  0.00     0.210 HD
HETATM    7  N5  UNL     1      46.366  92.511  35.182  1.00  0.00    -0.160 N 
ENDROOT
BRANCH   1   8
HETATM    8  C3  UNL     1      44.839  90.817  34.119  1.00  0.00     0.282 C 
HETATM    9  N1  UNL     1      44.512  89.500  34.415  1.00  0.00    -0.292 N 
HETATM   10  C2  UNL     1      44.186  88.590  33.369  1.00  0.00     0.220 C 
ATOM     11  H1  UNL     1      44.505  89.184  35.384  1.00  0.00     0.172 HD
HETATM   12  C1  UNL     1      43.825  87.166  33.627  1.00  0.00     0.117 C 
HETATM   13  O1  UNL     1      44.185  88.950  32.157  1.00  0.00    -0.274 OA
HETATM   14  O2  UNL     1      44.822  91.122  32.878  1.00  0.00    -0.265 OA
ENDBRANCH   1   8
BRANCH   2  15
HETATM   15  N2  UNL     1      43.206  91.930  36.477  1.00  0.00    -0.382 N 
ATOM     16  H22 UNL     1      42.466  92.597  36.698  1.00  0.00     0.157 HD
ATOM     17  H21 UNL     1      42.821  90.989  36.563  1.00  0.00     0.157 HD
ENDBRANCH   2  15
BRANCH   7  18
HETATM   18  N6  UNL     1      47.479  92.423  34.375  1.00  0.00    -0.204 N 
ATOM     19  H6  UNL     1      47.632  91.573  33.833  1.00  0.00     0.208 HD
BRANCH  18  20
HETATM   20  N7  UNL     1      48.417  93.478  34.277  1.00  0.00    -0.012 NA
BRANCH  20  21
HETATM   21  N8  UNL     1      49.659  92.952  33.835  1.00  0.00    -0.327 N 
ATOM     22  H82 UNL     1      50.395  92.605  34.451  1.00  0.00     0.174 HD
ATOM     23  H81 UNL     1      49.688  92.982  32.816  1.00  0.00     0.174 HD
ENDBRANCH  20  21
ENDBRANCH  18  20
ENDBRANCH   7  18
TORSDOF 5
ENDMDL
MODEL 3
REMARK VINA RESULT: -6.400477527      1.535      1.537
REMARK  5 active torsions:
REMARK  status: ('A' for Active; 'I' for Inactive)
REMARK       I    between atoms: C2_2  and  N1_4 
REMARK       I    between atoms: N1_4  and  C3_6 
REMARK    1  A    between atoms: C3_6  and  C4_8 
REMARK    2  A    between atoms: C5_9  and  N2_10 
REMARK    3  A    between atoms: N5_17  and  N6_18 
REMARK    4  A    between atoms: N6_18  and  N7_20 
REMARK    5  A    between atoms: N7_20  and  N8_21 
ROOT
HETATM    1  C4  UNL     1      45.631  92.115  34.735  1.00  0.00     0.190 A 
HETATM    2  C5  UNL     1      46.546  92.885  34.054  1.00  0.00     0.151 A 
HETATM    3  N3  UNL     1      46.550  94.124  34.606  1.00  0.00    -0.268 N 
ATOM      4  H3  UNL     1      47.124  94.916  34.317  1.00  0.00     0.190 HD
HETATM    5  N4  UNL     1      45.689  94.109  35.565  1.00  0.00    -0.218 N 
ATOM      6  H4  UNL     1      45.485  94.914  36.157  1.00  0.00     0.210 HD
HETATM    7  N5  UNL     1      45.091  92.913  35.697  1.00  0.00    -0.160 N 
ENDROOT
BRANCH   1   8
HETATM    8  C3  UNL     1      45.292  90.715  34.487  1.00  0.00     0.282 C 
HETATM    9  N1  UNL     1      45.435  89.690  35.414  1.00  0.00    -0.292 N 
HETATM   10  C2  UNL     1      45.073  88.357  35.068  1.00  0.00     0.220 C 
ATOM     11  H1  UNL     1      45.799  89.893  36.344  1.00  0.00     0.172 HD
HETATM   12  C1  UNL     1      45.203  87.217  36.020  1.00  0.00     0.117 C 
HETATM   13  O1  UNL     1      44.619  88.071  33.923  1.00  0.00    -0.274 OA
HETATM   14  O2  UNL     1      44.830  90.368  33.349  1.00  0.00    -0.265 OA
ENDBRANCH   1   8
BRANCH   2  15
HETATM   15  N2  UNL     1      47.305  92.552  33.056  1.00  0.00    -0.382 N 
ATOM     16  H22 UNL     1      47.200  91.675  32.545  1.00  0.00     0.157 HD
ATOM     17  H21 UNL     1      48.079  93.070  32.642  1.00  0.00     0.157 HD
ENDBRANCH   2  15
BRANCH   7  18
HETATM   18  N6  UNL     1      44.131  92.621  36.641  1.00  0.00    -0.204 N 
ATOM     19  H6  UNL     1      44.412  92.515  37.616  1.00  0.00     0.208 HD
BRANCH  18  20
HETATM   20  N7  UNL     1      42.768  92.463  36.297  1.00  0.00    -0.012 NA
BRANCH  20  21
HETATM   21  N8  UNL     1      42.356  93.577  35.519  1.00  0.00    -0.327 N 
ATOM     22  H82 UNL     1      41.561  93.577  34.880  1.00  0.00     0.174 HD
ATOM     23  H81 UNL     1      42.981  94.361  35.706  1.00  0.00     0.174 HD
ENDBRANCH  20  21
ENDBRANCH  18  20
ENDBRANCH   7  18
TORSDOF 5
ENDMDL
MODEL 4
REMARK VINA RESULT: -6.192109272      1.857      3.605
REMARK  5 active torsions:
REMARK  status: ('A' for Active; 'I' for Inactive)
REMARK       I    between atoms: C2_2  and  N1_4 
REMARK       I    between atoms: N1_4  and  C3_6 
REMARK    1  A    between atoms: C3_6  and  C4_8 
REMARK    2  A    between atoms: C5_9  and  N2_10 
REMARK    3  A    between atoms: N5_17  and  N6_18 
REMARK    4  A    between atoms: N6_18  and  N7_20 
REMARK    5  A    between atoms: N7_20  and  N8_21 
ROOT
HETATM    1  C4  UNL     1      45.166  91.899  35.311  1.00  0.00     0.190 A 
HETATM    2  C5  UNL     1      44.221  92.617  36.010  1.00  0.00     0.151 A 
HETATM    3  N3  UNL     1      44.659  93.896  36.119  1.00  0.00    -0.268 N 
ATOM      4  H3  UNL     1      44.177  94.665  36.584  1.00  0.00     0.190 HD
HETATM    5  N4  UNL     1      45.801  93.953  35.524  1.00  0.00    -0.218 N 
ATOM      6  H4  UNL     1      46.361  94.803  35.451  1.00  0.00     0.210 HD
HETATM    7  N5  UNL     1      46.169  92.768  35.009  1.00  0.00    -0.160 N 
ENDROOT
BRANCH   1   8
HETATM    8  C3  UNL     1      45.117  90.483  34.957  1.00  0.00     0.282 C 
HETATM    9  N1  UNL     1      45.532  89.445  35.782  1.00  0.00    -0.292 N 
HETATM   10  C2  UNL     1      45.442  88.096  35.337  1.00  0.00     0.220 C 
ATOM     11  H1  UNL     1      45.903  89.651  36.710  1.00  0.00     0.172 HD
HETATM   12  C1  UNL     1      45.870  86.942  36.179  1.00  0.00     0.117 C 
HETATM   13  O1  UNL     1      44.987  87.806  34.193  1.00  0.00    -0.274 OA
HETATM   14  O2  UNL     1      44.668  90.130  33.814  1.00  0.00    -0.265 OA
ENDBRANCH   1   8
BRANCH   2  15
HETATM   15  N2  UNL     1      43.093  92.209  36.502  1.00  0.00    -0.382 N 
ATOM     16  H22 UNL     1      43.027  91.500  37.233  1.00  0.00     0.157 HD
ATOM     17  H21 UNL     1      42.147  92.506  36.262  1.00  0.00     0.157 HD
ENDBRANCH   2  15
BRANCH   7  18
HETATM   18  N6  UNL     1      47.343  92.547  34.323  1.00  0.00    -0.204 N 
ATOM     19  H6  UNL     1      47.481  91.651  33.854  1.00  0.00     0.208 HD
BRANCH  18  20
HETATM   20  N7  UNL     1      48.362  93.526  34.249  1.00  0.00    -0.012 NA
BRANCH  20  21
HETATM   21  N8  UNL     1      49.573  92.902  33.850  1.00  0.00    -0.327 N 
ATOM     22  H82 UNL     1      50.505  93.271  34.038  1.00  0.00     0.174 HD
ATOM     23  H81 UNL     1      49.354  92.039  33.352  1.00  0.00     0.174 HD
ENDBRANCH  20  21
ENDBRANCH  18  20
ENDBRANCH   7  18
TORSDOF 5
ENDMDL
MODEL 5
REMARK VINA RESULT: -5.921268579      2.297      4.262
REMARK  5 active torsions:
REMARK  status: ('A' for Active; 'I' for Inactive)
REMARK       I    between atoms: C2_2  and  N1_4 
REMARK       I    between atoms: N1_4  and  C3_6 
REMARK    1  A    between atoms: C3_6  and  C4_8 
REMARK    2  A    between atoms: C5_9  and  N2_10 
REMARK    3  A    between atoms: N5_17  and  N6_18 
REMARK    4  A    between atoms: N6_18  and  N7_20 
REMARK    5  A    between atoms: N7_20  and  N8_21 
ROOT
HETATM    1  C4  UNL     1      44.576  90.670  34.889  1.00  0.00     0.190 A 
HETATM    2  C5  UNL     1      44.735  89.305  34.818  1.00  0.00     0.151 A 
HETATM    3  N3  UNL     1      43.525  88.752  34.550  1.00  0.00    -0.268 N 
ATOM      4  H3  UNL     1      43.323  87.758  34.438  1.00  0.00     0.190 HD
HETATM    5  N4  UNL     1      42.681  89.722  34.461  1.00  0.00    -0.218 N 
ATOM      6  H4  UNL     1      41.689  89.595  34.263  1.00  0.00     0.210 HD
HETATM    7  N5  UNL     1      43.257  90.920  34.659  1.00  0.00    -0.160 N 
ENDROOT
BRANCH   1   8
HETATM    8  C3  UNL     1      45.607  91.669  35.157  1.00  0.00     0.282 C 
HETATM    9  N1  UNL     1      46.672  91.954  34.312  1.00  0.00    -0.292 N 
HETATM   10  C2  UNL     1      47.625  92.950  34.670  1.00  0.00     0.220 C 
ATOM     11  H1  UNL     1      46.771  91.449  33.431  1.00  0.00     0.172 HD
HETATM   12  C1  UNL     1      48.786  93.300  33.803  1.00  0.00     0.117 C 
HETATM   13  O1  UNL     1      47.530  93.594  35.754  1.00  0.00    -0.274 OA
HETATM   14  O2  UNL     1      45.564  92.350  36.237  1.00  0.00    -0.265 OA
ENDBRANCH   1   8
BRANCH   2  15
HETATM   15  N2  UNL     1      45.816  88.605  34.970  1.00  0.00    -0.382 N 
ATOM     16  H22 UNL     1      45.941  87.929  35.724  1.00  0.00     0.157 HD
ATOM     17  H21 UNL     1      46.663  88.608  34.402  1.00  0.00     0.157 HD
ENDBRANCH   2  15
BRANCH   7  18
HETATM   18  N6  UNL     1      42.587  92.123  34.622  1.00  0.00    -0.204 N 
ATOM     19  H6  UNL     1      42.311  92.509  33.719  1.00  0.00     0.208 HD
BRANCH  18  20
HETATM   20  N7  UNL     1      42.269  92.839  35.801  1.00  0.00    -0.012 NA
BRANCH  20  21
HETATM   21  N8  UNL     1      43.084  93.999  35.870  1.00  0.00    -0.327 N 
ATOM     22  H82 UNL     1      43.752  94.283  35.153  1.00  0.00     0.174 HD
ATOM     23  H81 UNL     1      42.889  94.489  36.743  1.00  0.00     0.174 HD
ENDBRANCH  20  21
ENDBRANCH  18  20
ENDBRANCH   7  18
TORSDOF 5
ENDMDL
