MODEL 1
REMARK VINA RESULT: -5.860172345      0.000      0.000
REMARK  16 active torsions:
REMARK  status: ('A' for Active; 'I' for Inactive)
REMARK    1  A    between atoms: C2_2  and  N1_3 
REMARK    2  A    between atoms: C3_6  and  C4_7 
REMARK    3  A    between atoms: C5_8  and  C6_9 
REMARK    4  A    between atoms: C7_10  and  C8_11 
REMARK    5  A    between atoms: C9_12  and  C10_13 
REMARK    6  A    between atoms: C10_13  and  C11_14 
REMARK    7  A    between atoms: C11_14  and  C12_15 
REMARK    8  A    between atoms: C13_16  and  C14_17 
REMARK    9  A    between atoms: C19_22  and  C20_23 
REMARK   10  A    between atoms: C20_23  and  N3_24 
REMARK   11  A    between atoms: N3_24  and  N4_25 
REMARK   12  A    between atoms: C21_28  and  C22_29 
REMARK   13  A    between atoms: C24_31  and  C25_32 
REMARK       I    between atoms: C25_32  and  N5_34 
REMARK   14  A    between atoms: N5_34  and  C26_36 
REMARK   15  A    between atoms: C26_36  and  C27_37 
REMARK   16  A    between atoms: C28_38  and  C29_39 
ROOT
HETATM    1  C29 UNL     1      28.445  29.676  25.299  1.00  0.00    -0.015 C 
HETATM    2  C30 UNL     1      29.369  30.465  25.343  1.00  0.00    -0.097 C 
HETATM    3  C31 UNL     1      30.472  31.441  25.403  1.00  0.00     0.113 C 
ENDROOT
BRANCH   1   4
HETATM    4  C28 UNL     1      27.353  28.779  25.246  1.00  0.00    -0.013 C 
HETATM    5  C27 UNL     1      26.410  28.029  25.215  1.00  0.00    -0.073 C 
BRANCH   5   6
HETATM    6  C26 UNL     1      25.251  27.135  25.192  1.00  0.00     0.218 C 
BRANCH   6   7
HETATM    7  N5  UNL     1      24.117  27.937  24.735  1.00  0.00    -0.345 N 
HETATM    8  C25 UNL     1      23.782  27.870  23.370  1.00  0.00     0.271 C 
HETATM    9  O1  UNL     1      24.460  27.117  22.580  1.00  0.00    -0.266 OA
ATOM     10  H5  UNL     1      23.589  28.524  25.381  1.00  0.00     0.163 HD
BRANCH   8  11
HETATM   11  C24 UNL     1      22.681  28.623  22.797  1.00  0.00     0.132 A 
HETATM   12  N1  UNL     1      21.380  28.311  22.858  1.00  0.00    -0.261 N 
HETATM   13  N2  UNL     1      20.650  29.180  22.119  1.00  0.00    -0.285 N 
HETATM   14  C3  UNL     1      21.444  30.082  21.558  1.00  0.00     0.111 A 
ATOM     15  H2  UNL     1      19.636  29.146  22.010  1.00  0.00     0.188 HD
HETATM   16  C21 UNL     1      22.743  29.741  21.980  1.00  0.00     0.013 A 
BRANCH  12  17
HETATM   17  C2  UNL     1      20.779  27.250  23.568  1.00  0.00     0.106 C 
HETATM   18  C1  UNL     1      19.866  27.342  24.509  1.00  0.00     0.032 C 
ENDBRANCH  12  17
BRANCH  14  19
HETATM   19  C4  UNL     1      21.070  31.191  20.695  1.00  0.00    -0.033 C 
HETATM   20  C5  UNL     1      20.763  32.096  19.958  1.00  0.00    -0.007 C 
BRANCH  20  21
HETATM   21  C6  UNL     1      20.411  33.142  19.073  1.00  0.00    -0.001 C 
HETATM   22  C7  UNL     1      20.098  34.059  18.326  1.00  0.00    -0.001 C 
BRANCH  22  23
HETATM   23  C8  UNL     1      19.737  35.137  17.485  1.00  0.00    -0.014 C 
HETATM   24  C9  UNL     1      19.423  36.064  16.786  1.00  0.00    -0.092 C 
BRANCH  24  25
HETATM   25  C10 UNL     1      19.019  37.186  15.980  1.00  0.00     0.099 C 
BRANCH  25  26
HETATM   26  C11 UNL     1      19.838  37.553  14.791  1.00  0.00     0.052 C 
BRANCH  26  27
HETATM   27  C12 UNL     1      20.931  38.480  15.002  1.00  0.00    -0.043 A 
HETATM   28  C13 UNL     1      20.731  39.802  15.270  1.00  0.00    -0.052 A 
HETATM   29  C16 UNL     1      21.854  40.589  15.560  1.00  0.00     0.007 A 
HETATM   30  C17 UNL     1      23.134  40.083  15.577  1.00  0.00     0.001 A 
HETATM   31  C18 UNL     1      23.314  38.748  15.298  1.00  0.00     0.009 A 
HETATM   32  C19 UNL     1      22.223  37.928  15.006  1.00  0.00    -0.035 A 
BRANCH  28  33
HETATM   33  C14 UNL     1      19.440  40.462  15.133  1.00  0.00     0.034 C 
HETATM   34  C15 UNL     1      19.296  40.957  13.679  1.00  0.00     0.010 C 
ENDBRANCH  28  33
BRANCH  32  35
HETATM   35  C20 UNL     1      22.491  36.512  14.677  1.00  0.00     0.173 C 
BRANCH  35  36
HETATM   36  N3  UNL     1      23.489  35.972  15.630  1.00  0.00    -0.144 NA
BRANCH  36  37
HETATM   37  N4  UNL     1      23.040  34.663  15.945  1.00  0.00    -0.348 N 
ATOM     38  H42 UNL     1      22.284  34.154  15.489  1.00  0.00     0.172 HD
ATOM     39  H41 UNL     1      23.632  34.351  16.715  1.00  0.00     0.172 HD
ENDBRANCH  36  37
ENDBRANCH  35  36
ENDBRANCH  32  35
ENDBRANCH  26  27
ENDBRANCH  25  26
ENDBRANCH  24  25
ENDBRANCH  22  23
ENDBRANCH  20  21
ENDBRANCH  14  19
BRANCH  16  40
HETATM   40  C22 UNL     1      23.916  30.504  21.526  1.00  0.00     0.040 C 
HETATM   41  C23 UNL     1      24.364  31.494  22.563  1.00  0.00     0.010 C 
ENDBRANCH  16  40
ENDBRANCH   8  11
ENDBRANCH   6   7
ENDBRANCH   5   6
ENDBRANCH   1   4
TORSDOF 16
ENDMDL
MODEL 2
REMARK VINA RESULT: -5.728227499      2.120      5.146
REMARK  16 active torsions:
REMARK  status: ('A' for Active; 'I' for Inactive)
REMARK    1  A    between atoms: C2_2  and  N1_3 
REMARK    2  A    between atoms: C3_6  and  C4_7 
REMARK    3  A    between atoms: C5_8  and  C6_9 
REMARK    4  A    between atoms: C7_10  and  C8_11 
REMARK    5  A    between atoms: C9_12  and  C10_13 
REMARK    6  A    between atoms: C10_13  and  C11_14 
REMARK    7  A    between atoms: C11_14  and  C12_15 
REMARK    8  A    between atoms: C13_16  and  C14_17 
REMARK    9  A    between atoms: C19_22  and  C20_23 
REMARK   10  A    between atoms: C20_23  and  N3_24 
REMARK   11  A    between atoms: N3_24  and  N4_25 
REMARK   12  A    between atoms: C21_28  and  C22_29 
REMARK   13  A    between atoms: C24_31  and  C25_32 
REMARK       I    between atoms: C25_32  and  N5_34 
REMARK   14  A    between atoms: N5_34  and  C26_36 
REMARK   15  A    between atoms: C26_36  and  C27_37 
REMARK   16  A    between atoms: C28_38  and  C29_39 
ROOT
HETATM    1  C29 UNL     1      17.368  28.082  25.715  1.00  0.00    -0.015 C 
HETATM    2  C30 UNL     1      16.230  28.223  26.119  1.00  0.00    -0.097 C 
HETATM    3  C31 UNL     1      14.842  28.386  26.586  1.00  0.00     0.113 C 
ENDROOT
BRANCH   1   4
HETATM    4  C28 UNL     1      18.682  27.917  25.220  1.00  0.00    -0.013 C 
HETATM    5  C27 UNL     1      19.797  27.788  24.780  1.00  0.00    -0.073 C 
BRANCH   5   6
HETATM    6  C26 UNL     1      21.143  27.647  24.223  1.00  0.00     0.218 C 
BRANCH   6   7
HETATM    7  N5  UNL     1      21.465  28.922  23.585  1.00  0.00    -0.345 N 
HETATM    8  C25 UNL     1      22.476  28.921  22.605  1.00  0.00     0.271 C 
HETATM    9  O1  UNL     1      23.070  27.825  22.298  1.00  0.00    -0.266 OA
ATOM     10  H5  UNL     1      20.976  29.780  23.840  1.00  0.00     0.163 HD
BRANCH   8  11
HETATM   11  C24 UNL     1      22.887  30.126  21.906  1.00  0.00     0.132 A 
HETATM   12  N1  UNL     1      23.914  30.925  22.224  1.00  0.00    -0.261 N 
HETATM   13  N2  UNL     1      23.932  32.014  21.419  1.00  0.00    -0.285 N 
HETATM   14  C3  UNL     1      22.928  31.960  20.554  1.00  0.00     0.111 A 
ATOM     15  H2  UNL     1      24.620  32.766  21.470  1.00  0.00     0.188 HD
HETATM   16  C21 UNL     1      22.252  30.762  20.852  1.00  0.00     0.013 A 
BRANCH  12  17
HETATM   17  C2  UNL     1      24.879  30.729  23.234  1.00  0.00     0.106 C 
HETATM   18  C1  UNL     1      26.055  30.158  23.107  1.00  0.00     0.032 C 
ENDBRANCH  12  17
BRANCH  14  19
HETATM   19  C4  UNL     1      22.588  32.919  19.516  1.00  0.00    -0.033 C 
HETATM   20  C5  UNL     1      22.311  33.697  18.635  1.00  0.00    -0.007 C 
BRANCH  20  21
HETATM   21  C6  UNL     1      21.996  34.591  17.586  1.00  0.00    -0.001 C 
HETATM   22  C7  UNL     1      21.746  35.361  16.669  1.00  0.00    -0.001 C 
BRANCH  22  23
HETATM   23  C8  UNL     1      21.477  36.239  15.593  1.00  0.00    -0.014 C 
HETATM   24  C9  UNL     1      21.247  36.968  14.665  1.00  0.00    -0.092 C 
BRANCH  24  25
HETATM   25  C10 UNL     1      20.989  37.814  13.529  1.00  0.00     0.099 C 
BRANCH  25  26
HETATM   26  C11 UNL     1      21.779  39.066  13.365  1.00  0.00     0.052 C 
BRANCH  26  27
HETATM   27  C12 UNL     1      22.320  39.668  14.567  1.00  0.00    -0.043 A 
HETATM   28  C13 UNL     1      21.573  40.451  15.397  1.00  0.00    -0.052 A 
HETATM   29  C16 UNL     1      22.166  40.897  16.585  1.00  0.00     0.007 A 
HETATM   30  C17 UNL     1      23.459  40.583  16.937  1.00  0.00     0.001 A 
HETATM   31  C18 UNL     1      24.197  39.797  16.084  1.00  0.00     0.009 A 
HETATM   32  C19 UNL     1      23.644  39.329  14.890  1.00  0.00    -0.035 A 
BRANCH  28  33
HETATM   33  C14 UNL     1      20.254  40.958  15.048  1.00  0.00     0.034 C 
HETATM   34  C15 UNL     1      19.217  40.315  15.993  1.00  0.00     0.010 C 
ENDBRANCH  28  33
BRANCH  32  35
HETATM   35  C20 UNL     1      24.506  38.521  14.000  1.00  0.00     0.173 C 
BRANCH  35  36
HETATM   36  N3  UNL     1      25.552  37.854  14.810  1.00  0.00    -0.144 NA
BRANCH  36  37
HETATM   37  N4  UNL     1      25.097  36.522  14.989  1.00  0.00    -0.348 N 
ATOM     38  H42 UNL     1      25.640  35.739  15.353  1.00  0.00     0.172 HD
ATOM     39  H41 UNL     1      24.126  36.522  14.680  1.00  0.00     0.172 HD
ENDBRANCH  36  37
ENDBRANCH  35  36
ENDBRANCH  32  35
ENDBRANCH  26  27
ENDBRANCH  25  26
ENDBRANCH  24  25
ENDBRANCH  22  23
ENDBRANCH  20  21
ENDBRANCH  14  19
BRANCH  16  40
HETATM   40  C22 UNL     1      21.041  30.368  20.114  1.00  0.00     0.040 C 
HETATM   41  C23 UNL     1      21.353  29.374  19.032  1.00  0.00     0.010 C 
ENDBRANCH  16  40
ENDBRANCH   8  11
ENDBRANCH   6   7
ENDBRANCH   5   6
ENDBRANCH   1   4
TORSDOF 16
ENDMDL
MODEL 3
REMARK VINA RESULT: -5.713544167      6.336      8.996
REMARK  16 active torsions:
REMARK  status: ('A' for Active; 'I' for Inactive)
REMARK    1  A    between atoms: C2_2  and  N1_3 
REMARK    2  A    between atoms: C3_6  and  C4_7 
REMARK    3  A    between atoms: C5_8  and  C6_9 
REMARK    4  A    between atoms: C7_10  and  C8_11 
REMARK    5  A    between atoms: C9_12  and  C10_13 
REMARK    6  A    between atoms: C10_13  and  C11_14 
REMARK    7  A    between atoms: C11_14  and  C12_15 
REMARK    8  A    between atoms: C13_16  and  C14_17 
REMARK    9  A    between atoms: C19_22  and  C20_23 
REMARK   10  A    between atoms: C20_23  and  N3_24 
REMARK   11  A    between atoms: N3_24  and  N4_25 
REMARK   12  A    between atoms: C21_28  and  C22_29 
REMARK   13  A    between atoms: C24_31  and  C25_32 
REMARK       I    between atoms: C25_32  and  N5_34 
REMARK   14  A    between atoms: N5_34  and  C26_36 
REMARK   15  A    between atoms: C26_36  and  C27_37 
REMARK   16  A    between atoms: C28_38  and  C29_39 
ROOT
HETATM    1  C29 UNL     1      26.332  36.719  31.600  1.00  0.00    -0.015 C 
HETATM    2  C30 UNL     1      26.275  36.094  32.642  1.00  0.00    -0.097 C 
HETATM    3  C31 UNL     1      26.231  35.327  33.899  1.00  0.00     0.113 C 
ENDROOT
BRANCH   1   4
HETATM    4  C28 UNL     1      26.418  37.431  30.382  1.00  0.00    -0.013 C 
HETATM    5  C27 UNL     1      26.482  38.019  29.331  1.00  0.00    -0.073 C 
BRANCH   5   6
HETATM    6  C26 UNL     1      26.549  38.712  28.044  1.00  0.00     0.218 C 
BRANCH   6   7
HETATM    7  N5  UNL     1      26.545  37.675  27.014  1.00  0.00    -0.345 N 
HETATM    8  C25 UNL     1      27.229  37.947  25.815  1.00  0.00     0.271 C 
HETATM    9  O1  UNL     1      27.833  39.071  25.662  1.00  0.00    -0.266 OA
ATOM     10  H5  UNL     1      26.064  36.787  27.158  1.00  0.00     0.163 HD
BRANCH   8  11
HETATM   11  C24 UNL     1      27.291  36.999  24.717  1.00  0.00     0.132 A 
HETATM   12  N1  UNL     1      28.299  36.161  24.439  1.00  0.00    -0.261 N 
HETATM   13  N2  UNL     1      28.060  35.503  23.279  1.00  0.00    -0.285 N 
HETATM   14  C3  UNL     1      26.898  35.885  22.768  1.00  0.00     0.111 A 
ATOM     15  H2  UNL     1      28.684  34.814  22.860  1.00  0.00     0.188 HD
HETATM   16  C21 UNL     1      26.394  36.839  23.673  1.00  0.00     0.013 A 
BRANCH  12  17
HETATM   17  C2  UNL     1      29.469  35.938  25.195  1.00  0.00     0.106 C 
HETATM   18  C1  UNL     1      29.620  35.095  26.191  1.00  0.00     0.032 C 
ENDBRANCH  12  17
BRANCH  14  19
HETATM   19  C4  UNL     1      26.264  35.426  21.542  1.00  0.00    -0.033 C 
HETATM   20  C5  UNL     1      25.714  35.047  20.537  1.00  0.00    -0.007 C 
BRANCH  20  21
HETATM   21  C6  UNL     1      25.047  34.599  19.373  1.00  0.00    -0.001 C 
HETATM   22  C7  UNL     1      24.451  34.208  18.379  1.00  0.00    -0.001 C 
BRANCH  22  23
HETATM   23  C8  UNL     1      23.738  33.763  17.242  1.00  0.00    -0.014 C 
HETATM   24  C9  UNL     1      23.122  33.368  16.287  1.00  0.00    -0.092 C 
BRANCH  24  25
HETATM   25  C10 UNL     1      22.385  32.857  15.161  1.00  0.00     0.099 C 
BRANCH  25  26
HETATM   26  C11 UNL     1      21.199  31.990  15.407  1.00  0.00     0.052 C 
BRANCH  26  27
HETATM   27  C12 UNL     1      21.031  31.463  16.747  1.00  0.00    -0.043 A 
HETATM   28  C13 UNL     1      21.764  30.416  17.221  1.00  0.00    -0.052 A 
HETATM   29  C16 UNL     1      21.595  30.054  18.564  1.00  0.00     0.007 A 
HETATM   30  C17 UNL     1      20.724  30.705  19.408  1.00  0.00     0.001 A 
HETATM   31  C18 UNL     1      19.989  31.755  18.908  1.00  0.00     0.009 A 
HETATM   32  C19 UNL     1      20.129  32.150  17.575  1.00  0.00    -0.035 A 
BRANCH  28  33
HETATM   33  C14 UNL     1      22.599  29.574  16.377  1.00  0.00     0.034 C 
HETATM   34  C15 UNL     1      24.069  29.748  16.812  1.00  0.00     0.010 C 
ENDBRANCH  28  33
BRANCH  32  35
HETATM   35  C20 UNL     1      19.281  33.260  17.093  1.00  0.00     0.173 C 
BRANCH  35  36
HETATM   36  N3  UNL     1      18.530  33.832  18.235  1.00  0.00    -0.144 NA
BRANCH  36  37
HETATM   37  N4  UNL     1      18.307  35.191  17.899  1.00  0.00    -0.348 N 
ATOM     38  H42 UNL     1      18.871  35.989  18.191  1.00  0.00     0.172 HD
ATOM     39  H41 UNL     1      17.474  35.194  17.312  1.00  0.00     0.172 HD
ENDBRANCH  36  37
ENDBRANCH  35  36
ENDBRANCH  32  35
ENDBRANCH  26  27
ENDBRANCH  25  26
ENDBRANCH  24  25
ENDBRANCH  22  23
ENDBRANCH  20  21
ENDBRANCH  14  19
BRANCH  16  40
HETATM   40  C22 UNL     1      25.118  37.526  23.423  1.00  0.00     0.040 C 
HETATM   41  C23 UNL     1      25.321  38.809  22.668  1.00  0.00     0.010 C 
ENDBRANCH  16  40
ENDBRANCH   8  11
ENDBRANCH   6   7
ENDBRANCH   5   6
ENDBRANCH   1   4
TORSDOF 16
ENDMDL
MODEL 4
REMARK VINA RESULT: -5.665555421      2.327      5.247
REMARK  16 active torsions:
REMARK  status: ('A' for Active; 'I' for Inactive)
REMARK    1  A    between atoms: C2_2  and  N1_3 
REMARK    2  A    between atoms: C3_6  and  C4_7 
REMARK    3  A    between atoms: C5_8  and  C6_9 
REMARK    4  A    between atoms: C7_10  and  C8_11 
REMARK    5  A    between atoms: C9_12  and  C10_13 
REMARK    6  A    between atoms: C10_13  and  C11_14 
REMARK    7  A    between atoms: C11_14  and  C12_15 
REMARK    8  A    between atoms: C13_16  and  C14_17 
REMARK    9  A    between atoms: C19_22  and  C20_23 
REMARK   10  A    between atoms: C20_23  and  N3_24 
REMARK   11  A    between atoms: N3_24  and  N4_25 
REMARK   12  A    between atoms: C21_28  and  C22_29 
REMARK   13  A    between atoms: C24_31  and  C25_32 
REMARK       I    between atoms: C25_32  and  N5_34 
REMARK   14  A    between atoms: N5_34  and  C26_36 
REMARK   15  A    between atoms: C26_36  and  C27_37 
REMARK   16  A    between atoms: C28_38  and  C29_39 
ROOT
HETATM    1  C29 UNL     1      17.551  28.233  26.003  1.00  0.00    -0.015 C 
HETATM    2  C30 UNL     1      16.426  28.385  26.438  1.00  0.00    -0.097 C 
HETATM    3  C31 UNL     1      15.054  28.546  26.954  1.00  0.00     0.113 C 
ENDROOT
BRANCH   1   4
HETATM    4  C28 UNL     1      18.850  28.040  25.480  1.00  0.00    -0.013 C 
HETATM    5  C27 UNL     1      19.953  27.891  25.017  1.00  0.00    -0.073 C 
BRANCH   5   6
HETATM    6  C26 UNL     1      21.287  27.728  24.436  1.00  0.00     0.218 C 
BRANCH   6   7
HETATM    7  N5  UNL     1      21.570  28.956  23.696  1.00  0.00    -0.345 N 
HETATM    8  C25 UNL     1      22.540  28.892  22.678  1.00  0.00     0.271 C 
HETATM    9  O1  UNL     1      23.133  27.781  22.427  1.00  0.00    -0.266 OA
ATOM     10  H5  UNL     1      21.083  29.827  23.908  1.00  0.00     0.163 HD
BRANCH   8  11
HETATM   11  C24 UNL     1      22.911  30.046  21.878  1.00  0.00     0.132 A 
HETATM   12  N1  UNL     1      24.014  30.793  22.014  1.00  0.00    -0.261 N 
HETATM   13  N2  UNL     1      23.976  31.851  21.170  1.00  0.00    -0.285 N 
HETATM   14  C3  UNL     1      22.857  31.828  20.459  1.00  0.00     0.111 A 
ATOM     15  H2  UNL     1      24.703  32.563  21.092  1.00  0.00     0.188 HD
HETATM   16  C21 UNL     1      22.166  30.683  20.899  1.00  0.00     0.013 A 
BRANCH  12  17
HETATM   17  C2  UNL     1      25.102  30.575  22.885  1.00  0.00     0.106 C 
HETATM   18  C1  UNL     1      26.197  29.894  22.632  1.00  0.00     0.032 C 
ENDBRANCH  12  17
BRANCH  14  19
HETATM   19  C4  UNL     1      22.423  32.770  19.440  1.00  0.00    -0.033 C 
HETATM   20  C5  UNL     1      22.086  33.565  18.596  1.00  0.00    -0.007 C 
BRANCH  20  21
HETATM   21  C6  UNL     1      21.712  34.512  17.615  1.00  0.00    -0.001 C 
HETATM   22  C7  UNL     1      21.373  35.342  16.782  1.00  0.00    -0.001 C 
BRANCH  22  23
HETATM   23  C8  UNL     1      20.975  36.319  15.840  1.00  0.00    -0.014 C 
HETATM   24  C9  UNL     1      20.648  37.164  15.050  1.00  0.00    -0.092 C 
BRANCH  24  25
HETATM   25  C10 UNL     1      20.263  38.205  14.133  1.00  0.00     0.099 C 
BRANCH  25  26
HETATM   26  C11 UNL     1      21.310  39.119  13.596  1.00  0.00     0.052 C 
BRANCH  26  27
HETATM   27  C12 UNL     1      22.673  38.890  14.030  1.00  0.00    -0.043 A 
HETATM   28  C13 UNL     1      23.182  39.432  15.173  1.00  0.00    -0.052 A 
HETATM   29  C16 UNL     1      24.479  39.062  15.553  1.00  0.00     0.007 A 
HETATM   30  C17 UNL     1      25.249  38.187  14.820  1.00  0.00     0.001 A 
HETATM   31  C18 UNL     1      24.719  37.656  13.668  1.00  0.00     0.009 A 
HETATM   32  C19 UNL     1      23.430  37.996  13.254  1.00  0.00    -0.035 A 
BRANCH  28  33
HETATM   33  C14 UNL     1      22.508  40.474  15.935  1.00  0.00     0.034 C 
HETATM   34  C15 UNL     1      23.459  40.958  17.049  1.00  0.00     0.010 C 
ENDBRANCH  28  33
BRANCH  32  35
HETATM   35  C20 UNL     1      22.937  37.419  11.985  1.00  0.00     0.173 C 
BRANCH  35  36
HETATM   36  N3  UNL     1      22.530  36.014  12.215  1.00  0.00    -0.144 NA
BRANCH  36  37
HETATM   37  N4  UNL     1      23.102  35.275  11.148  1.00  0.00    -0.348 N 
ATOM     38  H42 UNL     1      24.088  35.044  11.029  1.00  0.00     0.172 HD
ATOM     39  H41 UNL     1      22.322  35.029  10.538  1.00  0.00     0.172 HD
ENDBRANCH  36  37
ENDBRANCH  35  36
ENDBRANCH  32  35
ENDBRANCH  26  27
ENDBRANCH  25  26
ENDBRANCH  24  25
ENDBRANCH  22  23
ENDBRANCH  20  21
ENDBRANCH  14  19
BRANCH  16  40
HETATM   40  C22 UNL     1      20.843  30.337  20.357  1.00  0.00     0.040 C 
HETATM   41  C23 UNL     1      20.939  29.264  19.310  1.00  0.00     0.010 C 
ENDBRANCH  16  40
ENDBRANCH   8  11
ENDBRANCH   6   7
ENDBRANCH   5   6
ENDBRANCH   1   4
TORSDOF 16
ENDMDL
MODEL 5
REMARK VINA RESULT: -5.663210970      2.605      5.687
REMARK  16 active torsions:
REMARK  status: ('A' for Active; 'I' for Inactive)
REMARK    1  A    between atoms: C2_2  and  N1_3 
REMARK    2  A    between atoms: C3_6  and  C4_7 
REMARK    3  A    between atoms: C5_8  and  C6_9 
REMARK    4  A    between atoms: C7_10  and  C8_11 
REMARK    5  A    between atoms: C9_12  and  C10_13 
REMARK    6  A    between atoms: C10_13  and  C11_14 
REMARK    7  A    between atoms: C11_14  and  C12_15 
REMARK    8  A    between atoms: C13_16  and  C14_17 
REMARK    9  A    between atoms: C19_22  and  C20_23 
REMARK   10  A    between atoms: C20_23  and  N3_24 
REMARK   11  A    between atoms: N3_24  and  N4_25 
REMARK   12  A    between atoms: C21_28  and  C22_29 
REMARK   13  A    between atoms: C24_31  and  C25_32 
REMARK       I    between atoms: C25_32  and  N5_34 
REMARK   14  A    between atoms: N5_34  and  C26_36 
REMARK   15  A    between atoms: C26_36  and  C27_37 
REMARK   16  A    between atoms: C28_38  and  C29_39 
ROOT
HETATM    1  C29 UNL     1      17.203  28.054  25.761  1.00  0.00    -0.015 C 
HETATM    2  C30 UNL     1      16.041  28.224  26.079  1.00  0.00    -0.097 C 
HETATM    3  C31 UNL     1      14.626  28.415  26.443  1.00  0.00     0.113 C 
ENDROOT
BRANCH   1   4
HETATM    4  C28 UNL     1      18.545  27.847  25.369  1.00  0.00    -0.013 C 
HETATM    5  C27 UNL     1      19.683  27.672  25.011  1.00  0.00    -0.073 C 
BRANCH   5   6
HETATM    6  C26 UNL     1      21.056  27.460  24.551  1.00  0.00     0.218 C 
BRANCH   6   7
HETATM    7  N5  UNL     1      21.448  28.675  23.839  1.00  0.00    -0.345 N 
HETATM    8  C25 UNL     1      22.586  28.606  23.014  1.00  0.00     0.271 C 
HETATM    9  O1  UNL     1      23.232  27.502  22.904  1.00  0.00    -0.266 OA
ATOM     10  H5  UNL     1      20.917  29.541  23.936  1.00  0.00     0.163 HD
BRANCH   8  11
HETATM   11  C24 UNL     1      23.076  29.747  22.261  1.00  0.00     0.132 A 
HETATM   12  N1  UNL     1      24.198  30.440  22.497  1.00  0.00    -0.261 N 
HETATM   13  N2  UNL     1      24.279  31.506  21.665  1.00  0.00    -0.285 N 
HETATM   14  C3  UNL     1      23.223  31.541  20.863  1.00  0.00     0.111 A 
ATOM     15  H2  UNL     1      25.042  32.183  21.656  1.00  0.00     0.188 HD
HETATM   16  C21 UNL     1      22.446  30.426  21.231  1.00  0.00     0.013 A 
BRANCH  12  17
HETATM   17  C2  UNL     1      25.198  30.164  23.453  1.00  0.00     0.106 C 
HETATM   18  C1  UNL     1      26.364  29.598  23.240  1.00  0.00     0.032 C 
ENDBRANCH  12  17
BRANCH  14  19
HETATM   19  C4  UNL     1      22.921  32.510  19.822  1.00  0.00    -0.033 C 
HETATM   20  C5  UNL     1      22.677  33.297  18.940  1.00  0.00    -0.007 C 
BRANCH  20  21
HETATM   21  C6  UNL     1      22.404  34.204  17.889  1.00  0.00    -0.001 C 
HETATM   22  C7  UNL     1      22.191  34.986  16.973  1.00  0.00    -0.001 C 
BRANCH  22  23
HETATM   23  C8  UNL     1      21.967  35.881  15.901  1.00  0.00    -0.014 C 
HETATM   24  C9  UNL     1      21.786  36.627  14.976  1.00  0.00    -0.092 C 
BRANCH  24  25
HETATM   25  C10 UNL     1      21.601  37.503  13.849  1.00  0.00     0.099 C 
BRANCH  25  26
HETATM   26  C11 UNL     1      22.575  37.447  12.723  1.00  0.00     0.052 C 
BRANCH  26  27
HETATM   27  C12 UNL     1      23.878  36.881  13.004  1.00  0.00    -0.043 A 
HETATM   28  C13 UNL     1      24.859  37.576  13.647  1.00  0.00    -0.052 A 
HETATM   29  C16 UNL     1      26.045  36.899  13.960  1.00  0.00     0.007 A 
HETATM   30  C17 UNL     1      26.255  35.576  13.640  1.00  0.00     0.001 A 
HETATM   31  C18 UNL     1      25.255  34.895  12.986  1.00  0.00     0.009 A 
HETATM   32  C19 UNL     1      24.056  35.531  12.657  1.00  0.00    -0.035 A 
BRANCH  28  33
HETATM   33  C14 UNL     1      24.793  39.009  13.896  1.00  0.00     0.034 C 
HETATM   34  C15 UNL     1      24.530  39.232  15.400  1.00  0.00     0.010 C 
ENDBRANCH  28  33
BRANCH  32  35
HETATM   35  C20 UNL     1      23.040  34.751  11.920  1.00  0.00     0.173 C 
BRANCH  35  36
HETATM   36  N3  UNL     1      23.222  33.311  12.217  1.00  0.00    -0.144 NA
BRANCH  36  37
HETATM   37  N4  UNL     1      22.203  32.985  13.148  1.00  0.00    -0.348 N 
ATOM     38  H42 UNL     1      21.658  32.124  13.175  1.00  0.00     0.172 HD
ATOM     39  H41 UNL     1      22.138  33.789  13.772  1.00  0.00     0.172 HD
ENDBRANCH  36  37
ENDBRANCH  35  36
ENDBRANCH  32  35
ENDBRANCH  26  27
ENDBRANCH  25  26
ENDBRANCH  24  25
ENDBRANCH  22  23
ENDBRANCH  20  21
ENDBRANCH  14  19
BRANCH  16  40
HETATM   40  C22 UNL     1      21.158  30.148  20.576  1.00  0.00     0.040 C 
HETATM   41  C23 UNL     1      21.306  29.135  19.477  1.00  0.00     0.010 C 
ENDBRANCH  16  40
ENDBRANCH   8  11
ENDBRANCH   6   7
ENDBRANCH   5   6
ENDBRANCH   1   4
TORSDOF 16
ENDMDL
