MODEL 1
REMARK VINA RESULT: -5.944784001      0.000      0.000
REMARK  6 active torsions:
REMARK  status: ('A' for Active; 'I' for Inactive)
REMARK    1  A    between atoms: C1_4  and  N2_5 
REMARK    2  A    between atoms: N2_5  and  C2_7 
REMARK    3  A    between atoms: C2_7  and  C3_8 
REMARK    4  A    between atoms: C3_8  and  N3_9 
REMARK    5  A    between atoms: C4_11  and  N4_12 
REMARK    6  A    between atoms: N4_12  and  N5_14 
ROOT
HETATM    1  N3  UNL     1      23.542 -16.212   7.059  1.00  0.00    -0.384 N 
ATOM      2  H3  UNL     1      23.508 -17.139   7.485  1.00  0.00     0.160 HD
HETATM    3  C4  UNL     1      24.118 -15.236   7.634  1.00  0.00     0.195 C 
ENDROOT
BRANCH   1   4
HETATM    4  C3  UNL     1      22.938 -15.948   5.776  1.00  0.00     0.140 C 
BRANCH   4   5
HETATM    5  C2  UNL     1      21.749 -16.871   5.576  1.00  0.00     0.140 C 
BRANCH   5   6
HETATM    6  N2  UNL     1      22.167 -18.055   4.869  1.00  0.00    -0.385 N 
ATOM      7  H2  UNL     1      22.224 -18.048   3.850  1.00  0.00     0.160 HD
BRANCH   6   8
HETATM    8  C1  UNL     1      22.497 -19.227   5.586  1.00  0.00     0.168 C 
HETATM    9  N1  UNL     1      22.511 -20.349   4.967  1.00  0.00    -0.396 N 
ATOM     10  H12 UNL     1      22.286 -20.378   3.973  1.00  0.00     0.156 HD
ATOM     11  H11 UNL     1      22.750 -21.196   5.484  1.00  0.00     0.156 HD
ENDBRANCH   6   8
ENDBRANCH   5   6
ENDBRANCH   4   5
ENDBRANCH   1   4
BRANCH   3  12
HETATM   12  N4  UNL     1      24.159 -13.964   7.039  1.00  0.00    -0.275 N 
ATOM     13  H4  UNL     1      23.347 -13.538   6.591  1.00  0.00     0.189 HD
BRANCH  12  14
HETATM   14  N5  UNL     1      25.396 -13.335   7.109  1.00  0.00    -0.189 N 
HETATM   15  C5  UNL     1      26.676 -13.278   7.431  1.00  0.00     0.245 A 
HETATM   16  N6  UNL     1      26.089 -12.158   6.802  1.00  0.00    -0.271 N 
ATOM     17  H6  UNL     1      26.135 -11.214   6.419  1.00  0.00     0.190 HD
ENDBRANCH  12  14
ENDBRANCH   3  12
TORSDOF 6
ENDMDL
MODEL 2
REMARK VINA RESULT: -5.804606375      2.304      3.187
REMARK  6 active torsions:
REMARK  status: ('A' for Active; 'I' for Inactive)
REMARK    1  A    between atoms: C1_4  and  N2_5 
REMARK    2  A    between atoms: N2_5  and  C2_7 
REMARK    3  A    between atoms: C2_7  and  C3_8 
REMARK    4  A    between atoms: C3_8  and  N3_9 
REMARK    5  A    between atoms: C4_11  and  N4_12 
REMARK    6  A    between atoms: N4_12  and  N5_14 
ROOT
HETATM    1  N3  UNL     1      23.411 -16.292   7.077  1.00  0.00    -0.384 N 
ATOM      2  H3  UNL     1      23.461 -17.275   7.346  1.00  0.00     0.160 HD
HETATM    3  C4  UNL     1      24.259 -15.442   7.496  1.00  0.00     0.195 C 
ENDROOT
BRANCH   1   4
HETATM    4  C3  UNL     1      22.374 -15.800   6.203  1.00  0.00     0.140 C 
BRANCH   4   5
HETATM    5  C2  UNL     1      21.036 -16.378   6.630  1.00  0.00     0.140 C 
BRANCH   5   6
HETATM    6  N2  UNL     1      20.184 -15.321   7.117  1.00  0.00    -0.385 N 
ATOM      7  H2  UNL     1      20.401 -14.856   7.998  1.00  0.00     0.160 HD
BRANCH   6   8
HETATM    8  C1  UNL     1      19.049 -14.931   6.373  1.00  0.00     0.168 C 
HETATM    9  N1  UNL     1      18.367 -13.919   6.766  1.00  0.00    -0.396 N 
ATOM     10  H12 UNL     1      18.654 -13.415   7.605  1.00  0.00     0.156 HD
ATOM     11  H11 UNL     1      17.547 -13.636   6.230  1.00  0.00     0.156 HD
ENDBRANCH   6   8
ENDBRANCH   5   6
ENDBRANCH   4   5
ENDBRANCH   1   4
BRANCH   3  12
HETATM   12  N4  UNL     1      24.180 -14.092   7.119  1.00  0.00    -0.275 N 
ATOM     13  H4  UNL     1      23.304 -13.645   6.846  1.00  0.00     0.189 HD
BRANCH  12  14
HETATM   14  N5  UNL     1      25.392 -13.414   7.149  1.00  0.00    -0.189 N 
HETATM   15  C5  UNL     1      26.679 -13.305   7.429  1.00  0.00     0.245 A 
HETATM   16  N6  UNL     1      26.028 -12.211   6.820  1.00  0.00    -0.271 N 
ATOM     17  H6  UNL     1      26.024 -11.267   6.435  1.00  0.00     0.190 HD
ENDBRANCH  12  14
ENDBRANCH   3  12
TORSDOF 6
ENDMDL
MODEL 3
REMARK VINA RESULT: -5.803891353      1.000      5.904
REMARK  6 active torsions:
REMARK  status: ('A' for Active; 'I' for Inactive)
REMARK    1  A    between atoms: C1_4  and  N2_5 
REMARK    2  A    between atoms: N2_5  and  C2_7 
REMARK    3  A    between atoms: C2_7  and  C3_8 
REMARK    4  A    between atoms: C3_8  and  N3_9 
REMARK    5  A    between atoms: C4_11  and  N4_12 
REMARK    6  A    between atoms: N4_12  and  N5_14 
ROOT
HETATM    1  N3  UNL     1      22.962 -15.322   5.445  1.00  0.00    -0.384 N 
ATOM      2  H3  UNL     1      23.514 -14.572   5.027  1.00  0.00     0.160 HD
HETATM    3  C4  UNL     1      22.213 -16.070   4.741  1.00  0.00     0.195 C 
ENDROOT
BRANCH   1   4
HETATM    4  C3  UNL     1      22.994 -15.583   6.863  1.00  0.00     0.140 C 
BRANCH   4   5
HETATM    5  C2  UNL     1      24.339 -15.158   7.426  1.00  0.00     0.140 C 
BRANCH   5   6
HETATM    6  N2  UNL     1      24.603 -13.787   7.069  1.00  0.00    -0.385 N 
ATOM      7  H2  UNL     1      23.838 -13.181   6.771  1.00  0.00     0.160 HD
BRANCH   6   8
HETATM    8  C1  UNL     1      25.921 -13.282   7.131  1.00  0.00     0.168 C 
HETATM    9  N1  UNL     1      26.134 -12.063   6.798  1.00  0.00    -0.396 N 
ATOM     10  H12 UNL     1      25.354 -11.480   6.495  1.00  0.00     0.156 HD
ATOM     11  H11 UNL     1      27.086 -11.698   6.843  1.00  0.00     0.156 HD
ENDBRANCH   6   8
ENDBRANCH   5   6
ENDBRANCH   4   5
ENDBRANCH   1   4
BRANCH   3  12
HETATM   12  N4  UNL     1      21.459 -17.100   5.326  1.00  0.00    -0.275 N 
ATOM     13  H4  UNL     1      20.562 -16.935   5.783  1.00  0.00     0.189 HD
BRANCH  12  14
HETATM   14  N5  UNL     1      22.033 -18.361   5.231  1.00  0.00    -0.189 N 
HETATM   15  C5  UNL     1      22.521 -19.479   5.740  1.00  0.00     0.245 A 
HETATM   16  N6  UNL     1      22.506 -19.328   4.336  1.00  0.00    -0.271 N 
ATOM     17  H6  UNL     1      22.695 -19.666   3.393  1.00  0.00     0.190 HD
ENDBRANCH  12  14
ENDBRANCH   3  12
TORSDOF 6
ENDMDL
MODEL 4
REMARK VINA RESULT: -5.802975443      1.603      1.921
REMARK  6 active torsions:
REMARK  status: ('A' for Active; 'I' for Inactive)
REMARK    1  A    between atoms: C1_4  and  N2_5 
REMARK    2  A    between atoms: N2_5  and  C2_7 
REMARK    3  A    between atoms: C2_7  and  C3_8 
REMARK    4  A    between atoms: C3_8  and  N3_9 
REMARK    5  A    between atoms: C4_11  and  N4_12 
REMARK    6  A    between atoms: N4_12  and  N5_14 
ROOT
HETATM    1  N3  UNL     1      23.377 -16.265   8.044  1.00  0.00    -0.384 N 
ATOM      2  H3  UNL     1      23.423 -17.115   8.606  1.00  0.00     0.160 HD
HETATM    3  C4  UNL     1      24.419 -15.588   7.773  1.00  0.00     0.195 C 
ENDROOT
BRANCH   1   4
HETATM    4  C3  UNL     1      22.127 -15.772   7.520  1.00  0.00     0.140 C 
BRANCH   4   5
HETATM    5  C2  UNL     1      21.279 -16.942   7.052  1.00  0.00     0.140 C 
BRANCH   5   6
HETATM    6  N2  UNL     1      21.448 -17.127   5.632  1.00  0.00    -0.385 N 
ATOM      7  H2  UNL     1      21.405 -18.065   5.232  1.00  0.00     0.160 HD
BRANCH   6   8
HETATM    8  C1  UNL     1      21.673 -16.012   4.796  1.00  0.00     0.168 C 
HETATM    9  N1  UNL     1      22.564 -16.095   3.878  1.00  0.00    -0.396 N 
ATOM     10  H12 UNL     1      23.093 -16.960   3.767  1.00  0.00     0.156 HD
ATOM     11  H11 UNL     1      22.728 -15.290   3.273  1.00  0.00     0.156 HD
ENDBRANCH   6   8
ENDBRANCH   5   6
ENDBRANCH   4   5
ENDBRANCH   1   4
BRANCH   3  12
HETATM   12  N4  UNL     1      24.344 -14.419   6.998  1.00  0.00    -0.275 N 
ATOM     13  H4  UNL     1      23.549 -14.207   6.395  1.00  0.00     0.189 HD
BRANCH  12  14
HETATM   14  N5  UNL     1      25.441 -13.576   7.121  1.00  0.00    -0.189 N 
HETATM   15  C5  UNL     1      26.677 -13.290   7.493  1.00  0.00     0.245 A 
HETATM   16  N6  UNL     1      25.919 -12.288   6.850  1.00  0.00    -0.271 N 
ATOM     17  H6  UNL     1      25.806 -11.346   6.475  1.00  0.00     0.190 HD
ENDBRANCH  12  14
ENDBRANCH   3  12
TORSDOF 6
ENDMDL
MODEL 5
REMARK VINA RESULT: -5.696009840      2.088      5.979
REMARK  6 active torsions:
REMARK  status: ('A' for Active; 'I' for Inactive)
REMARK    1  A    between atoms: C1_4  and  N2_5 
REMARK    2  A    between atoms: N2_5  and  C2_7 
REMARK    3  A    between atoms: C2_7  and  C3_8 
REMARK    4  A    between atoms: C3_8  and  N3_9 
REMARK    5  A    between atoms: C4_11  and  N4_12 
REMARK    6  A    between atoms: N4_12  and  N5_14 
ROOT
HETATM    1  N3  UNL     1      23.234 -15.748   5.857  1.00  0.00    -0.384 N 
ATOM      2  H3  UNL     1      24.075 -16.011   5.342  1.00  0.00     0.160 HD
HETATM    3  C4  UNL     1      22.075 -16.082   5.457  1.00  0.00     0.195 C 
ENDROOT
BRANCH   1   4
HETATM    4  C3  UNL     1      23.305 -14.978   7.075  1.00  0.00     0.140 C 
BRANCH   4   5
HETATM    5  C2  UNL     1      24.760 -14.711   7.421  1.00  0.00     0.140 C 
BRANCH   5   6
HETATM    6  N2  UNL     1      25.117 -13.373   7.020  1.00  0.00    -0.385 N 
ATOM      7  H2  UNL     1      24.396 -12.728   6.696  1.00  0.00     0.160 HD
BRANCH   6   8
HETATM    8  C1  UNL     1      26.465 -12.955   7.076  1.00  0.00     0.168 C 
HETATM    9  N1  UNL     1      27.258 -13.528   7.904  1.00  0.00    -0.396 N 
ATOM     10  H12 UNL     1      26.906 -14.272   8.506  1.00  0.00     0.156 HD
ATOM     11  H11 UNL     1      28.232 -13.227   7.944  1.00  0.00     0.156 HD
ENDBRANCH   6   8
ENDBRANCH   5   6
ENDBRANCH   4   5
ENDBRANCH   1   4
BRANCH   3  12
HETATM   12  N4  UNL     1      20.925 -15.714   6.174  1.00  0.00    -0.275 N 
ATOM     13  H4  UNL     1      20.594 -14.750   6.231  1.00  0.00     0.189 HD
BRANCH  12  14
HETATM   14  N5  UNL     1      20.275 -16.770   6.801  1.00  0.00    -0.189 N 
HETATM   15  C5  UNL     1      20.243 -17.892   7.497  1.00  0.00     0.245 A 
HETATM   16  N6  UNL     1      19.020 -17.321   7.085  1.00  0.00    -0.271 N 
ATOM     17  H6  UNL     1      18.001 -17.315   7.034  1.00  0.00     0.190 HD
ENDBRANCH  12  14
ENDBRANCH   3  12
TORSDOF 6
ENDMDL
