MODEL 1
REMARK VINA RESULT: -6.229206904      0.000      0.000
REMARK  11 active torsions:
REMARK  status: ('A' for Active; 'I' for Inactive)
REMARK    1  A    between atoms: C3_3  and  C4_4 
REMARK    2  A    between atoms: C3_3  and  N6_21 
REMARK    3  A    between atoms: C4_4  and  N1_5 
REMARK    4  A    between atoms: C7_9  and  N2_10 
REMARK    5  A    between atoms: C9_15  and  C10_16 
REMARK    6  A    between atoms: C10_16  and  N5_17 
REMARK    7  A    between atoms: N6_21  and  C11_24 
REMARK    8  A    between atoms: C11_24  and  C12_25 
REMARK    9  A    between atoms: C12_25  and  C13_26 
REMARK   10  A    between atoms: C13_26  and  C14_27 
REMARK   11  A    between atoms: C14_27  and  N7_28 
ROOT
HETATM    1  C1  UNL     1       1.423  28.212 -16.646  1.00  0.00     0.014 C 
HETATM    2  C2  UNL     1       0.528  28.860 -16.162  1.00  0.00    -0.083 C 
HETATM    3  C3  UNL     1      -0.554  29.640 -15.602  1.00  0.00     0.281 C 
ENDROOT
BRANCH   3   4
HETATM    4  C4  UNL     1      -1.784  28.841 -15.245  1.00  0.00     0.172 C 
BRANCH   4   5
HETATM    5  N1  UNL     1      -2.843  28.840 -16.180  1.00  0.00    -0.341 N 
HETATM    6  C5  UNL     1      -2.833  28.101 -17.423  1.00  0.00     0.222 C 
HETATM    7  O1  UNL     1      -2.092  27.164 -17.785  1.00  0.00    -0.273 OA
HETATM    8  C6  UNL     1      -3.925  28.634 -18.324  1.00  0.00     0.130 C 
HETATM    9  C7  UNL     1      -4.162  29.966 -17.655  1.00  0.00     0.117 C 
HETATM   10  C9  UNL     1      -4.122  29.541 -16.195  1.00  0.00     0.135 C 
BRANCH   9  11
HETATM   11  N2  UNL     1      -5.407  30.502 -18.084  1.00  0.00    -0.360 N 
HETATM   12  C8  UNL     1      -5.514  31.480 -18.927  1.00  0.00     0.197 C 
HETATM   13  N3  UNL     1      -4.395  32.117 -19.506  1.00  0.00    -0.067 NA
HETATM   14  N4  UNL     1      -6.821  31.915 -19.260  1.00  0.00    -0.067 NA
ATOM     15  H2  UNL     1      -6.264  30.094 -17.708  1.00  0.00     0.162 HD
ENDBRANCH   9  11
BRANCH  10  16
HETATM   16  C10 UNL     1      -4.198  30.718 -15.292  1.00  0.00     0.256 C 
BRANCH  16  17
HETATM   17  N5  UNL     1      -4.907  30.468 -14.064  1.00  0.00    -0.077 N 
ATOM     18  H53 UNL     1      -5.838  30.882 -14.097  1.00  0.00     0.274 HD
ATOM     19  H52 UNL     1      -5.159  29.482 -13.991  1.00  0.00     0.274 HD
ATOM     20  H51 UNL     1      -4.408  30.774 -13.230  1.00  0.00     0.274 HD
ENDBRANCH  16  17
ENDBRANCH  10  16
ENDBRANCH   4   5
ENDBRANCH   3   4
BRANCH   3  21
HETATM   21  N6  UNL     1      -0.813  30.783 -16.390  1.00  0.00    -0.059 N 
ATOM     22  H62 UNL     1      -1.801  31.037 -16.361  1.00  0.00     0.278 HD
ATOM     23  H61 UNL     1      -0.418  31.623 -15.965  1.00  0.00     0.278 HD
BRANCH  21  24
HETATM   24  C11 UNL     1      -0.357  30.618 -17.739  1.00  0.00     0.234 C 
BRANCH  24  25
HETATM   25  C12 UNL     1      -0.928  31.628 -18.664  1.00  0.00     0.029 C 
BRANCH  25  26
HETATM   26  C13 UNL     1      -0.347  33.031 -18.469  1.00  0.00     0.029 C 
BRANCH  26  27
HETATM   27  C14 UNL     1      -1.340  34.074 -18.857  1.00  0.00     0.229 C 
BRANCH  27  28
HETATM   28  N7  UNL     1      -2.538  33.954 -18.009  1.00  0.00    -0.079 N 
ATOM     29  H73 UNL     1      -3.401  34.022 -18.549  1.00  0.00     0.274 HD
ATOM     30  H72 UNL     1      -2.665  33.007 -17.652  1.00  0.00     0.274 HD
ATOM     31  H71 UNL     1      -2.496  34.645 -17.259  1.00  0.00     0.274 HD
ENDBRANCH  27  28
ENDBRANCH  26  27
ENDBRANCH  25  26
ENDBRANCH  24  25
ENDBRANCH  21  24
ENDBRANCH   3  21
TORSDOF 11
ENDMDL
MODEL 2
REMARK VINA RESULT: -6.025730265      1.975      2.683
REMARK  11 active torsions:
REMARK  status: ('A' for Active; 'I' for Inactive)
REMARK    1  A    between atoms: C3_3  and  C4_4 
REMARK    2  A    between atoms: C3_3  and  N6_21 
REMARK    3  A    between atoms: C4_4  and  N1_5 
REMARK    4  A    between atoms: C7_9  and  N2_10 
REMARK    5  A    between atoms: C9_15  and  C10_16 
REMARK    6  A    between atoms: C10_16  and  N5_17 
REMARK    7  A    between atoms: N6_21  and  C11_24 
REMARK    8  A    between atoms: C11_24  and  C12_25 
REMARK    9  A    between atoms: C12_25  and  C13_26 
REMARK   10  A    between atoms: C13_26  and  C14_27 
REMARK   11  A    between atoms: C14_27  and  N7_28 
ROOT
HETATM    1  C1  UNL     1      -0.373  28.158 -16.778  1.00  0.00     0.014 C 
HETATM    2  C2  UNL     1      -0.912  29.226 -16.935  1.00  0.00    -0.083 C 
HETATM    3  C3  UNL     1      -1.543  30.511 -17.138  1.00  0.00     0.281 C 
ENDROOT
BRANCH   3   4
HETATM    4  C4  UNL     1      -2.614  30.522 -18.202  1.00  0.00     0.172 C 
BRANCH   4   5
HETATM    5  N1  UNL     1      -3.945  30.328 -17.773  1.00  0.00    -0.341 N 
HETATM    6  C5  UNL     1      -4.586  29.036 -17.661  1.00  0.00     0.222 C 
HETATM    7  O1  UNL     1      -4.079  27.896 -17.643  1.00  0.00    -0.273 OA
HETATM    8  C6  UNL     1      -6.082  29.234 -17.559  1.00  0.00     0.130 C 
HETATM    9  C7  UNL     1      -6.178  30.643 -18.090  1.00  0.00     0.117 C 
HETATM   10  C9  UNL     1      -4.986  31.273 -17.385  1.00  0.00     0.135 C 
BRANCH   9  11
HETATM   11  N2  UNL     1      -7.438  31.201 -17.741  1.00  0.00    -0.360 N 
HETATM   12  C8  UNL     1      -8.465  31.201 -18.532  1.00  0.00     0.197 C 
HETATM   13  N3  UNL     1      -8.433  30.643 -19.828  1.00  0.00    -0.067 NA
HETATM   14  N4  UNL     1      -9.658  31.798 -18.052  1.00  0.00    -0.067 NA
ATOM     15  H2  UNL     1      -7.540  31.624 -16.819  1.00  0.00     0.162 HD
ENDBRANCH   9  11
BRANCH  10  16
HETATM   16  C10 UNL     1      -4.766  32.667 -17.850  1.00  0.00     0.256 C 
BRANCH  16  17
HETATM   17  N5  UNL     1      -4.446  33.591 -16.792  1.00  0.00    -0.077 N 
ATOM     18  H53 UNL     1      -4.779  33.238 -15.896  1.00  0.00     0.274 HD
ATOM     19  H52 UNL     1      -3.442  33.597 -16.614  1.00  0.00     0.274 HD
ATOM     20  H51 UNL     1      -4.787  34.538 -16.954  1.00  0.00     0.274 HD
ENDBRANCH  16  17
ENDBRANCH  10  16
ENDBRANCH   4   5
ENDBRANCH   3   4
BRANCH   3  21
HETATM   21  N6  UNL     1      -0.577  31.532 -17.276  1.00  0.00    -0.059 N 
ATOM     22  H62 UNL     1      -0.607  32.179 -16.489  1.00  0.00     0.278 HD
ATOM     23  H61 UNL     1       0.368  31.168 -17.150  1.00  0.00     0.278 HD
BRANCH  21  24
HETATM   24  C11 UNL     1      -0.706  32.225 -18.525  1.00  0.00     0.234 C 
BRANCH  24  25
HETATM   25  C12 UNL     1      -0.938  33.680 -18.351  1.00  0.00     0.029 C 
BRANCH  25  26
HETATM   26  C13 UNL     1       0.011  34.552 -19.179  1.00  0.00     0.029 C 
BRANCH  26  27
HETATM   27  C14 UNL     1       1.378  34.560 -18.583  1.00  0.00     0.229 C 
BRANCH  27  28
HETATM   28  N7  UNL     1       1.298  34.977 -17.172  1.00  0.00    -0.079 N 
ATOM     29  H73 UNL     1       1.910  35.767 -16.969  1.00  0.00     0.274 HD
ATOM     30  H72 UNL     1       0.407  35.423 -16.952  1.00  0.00     0.274 HD
ATOM     31  H71 UNL     1       1.487  34.177 -16.568  1.00  0.00     0.274 HD
ENDBRANCH  27  28
ENDBRANCH  26  27
ENDBRANCH  25  26
ENDBRANCH  24  25
ENDBRANCH  21  24
ENDBRANCH   3  21
TORSDOF 11
ENDMDL
MODEL 3
REMARK VINA RESULT: -6.022947303      2.312      4.291
REMARK  11 active torsions:
REMARK  status: ('A' for Active; 'I' for Inactive)
REMARK    1  A    between atoms: C3_3  and  C4_4 
REMARK    2  A    between atoms: C3_3  and  N6_21 
REMARK    3  A    between atoms: C4_4  and  N1_5 
REMARK    4  A    between atoms: C7_9  and  N2_10 
REMARK    5  A    between atoms: C9_15  and  C10_16 
REMARK    6  A    between atoms: C10_16  and  N5_17 
REMARK    7  A    between atoms: N6_21  and  C11_24 
REMARK    8  A    between atoms: C11_24  and  C12_25 
REMARK    9  A    between atoms: C12_25  and  C13_26 
REMARK   10  A    between atoms: C13_26  and  C14_27 
REMARK   11  A    between atoms: C14_27  and  N7_28 
ROOT
HETATM    1  C1  UNL     1      -4.763  32.726 -16.897  1.00  0.00     0.014 C 
HETATM    2  C2  UNL     1      -3.789  32.778 -17.607  1.00  0.00    -0.083 C 
HETATM    3  C3  UNL     1      -2.609  32.843 -18.440  1.00  0.00     0.281 C 
ENDROOT
BRANCH   3   4
HETATM    4  C4  UNL     1      -1.862  31.539 -18.574  1.00  0.00     0.172 C 
BRANCH   4   5
HETATM    5  N1  UNL     1      -2.590  30.354 -18.328  1.00  0.00    -0.341 N 
HETATM    6  C5  UNL     1      -3.793  29.974 -19.034  1.00  0.00     0.222 C 
HETATM    7  O1  UNL     1      -4.258  30.413 -20.106  1.00  0.00    -0.273 OA
HETATM    8  C6  UNL     1      -4.497  28.881 -18.260  1.00  0.00     0.130 C 
HETATM    9  C7  UNL     1      -3.832  29.068 -16.918  1.00  0.00     0.117 C 
HETATM   10  C9  UNL     1      -2.393  29.279 -17.362  1.00  0.00     0.135 C 
BRANCH   9  11
HETATM   11  N2  UNL     1      -4.044  27.915 -16.114  1.00  0.00    -0.360 N 
HETATM   12  C8  UNL     1      -4.538  27.957 -14.917  1.00  0.00     0.197 C 
HETATM   13  N3  UNL     1      -4.916  29.161 -14.287  1.00  0.00    -0.067 NA
HETATM   14  N4  UNL     1      -4.689  26.725 -14.231  1.00  0.00    -0.067 NA
ATOM     15  H2  UNL     1      -3.794  27.004 -16.501  1.00  0.00     0.162 HD
ENDBRANCH   9  11
BRANCH  10  16
HETATM   16  C10 UNL     1      -1.523  29.629 -16.209  1.00  0.00     0.256 C 
BRANCH  16  17
HETATM   17  N5  UNL     1      -2.159  30.478 -15.235  1.00  0.00    -0.077 N 
ATOM     18  H53 UNL     1      -3.097  30.735 -15.541  1.00  0.00     0.274 HD
ATOM     19  H52 UNL     1      -2.391  29.948 -14.395  1.00  0.00     0.274 HD
ATOM     20  H51 UNL     1      -1.619  31.310 -14.997  1.00  0.00     0.274 HD
ENDBRANCH  16  17
ENDBRANCH  10  16
ENDBRANCH   4   5
ENDBRANCH   3   4
BRANCH   3  21
HETATM   21  N6  UNL     1      -1.798  33.943 -18.082  1.00  0.00    -0.059 N 
ATOM     22  H62 UNL     1      -2.137  34.807 -18.505  1.00  0.00     0.278 HD
ATOM     23  H61 UNL     1      -1.918  34.187 -17.098  1.00  0.00     0.278 HD
BRANCH  21  24
HETATM   24  C11 UNL     1      -0.418  33.714 -18.397  1.00  0.00     0.234 C 
BRANCH  24  25
HETATM   25  C12 UNL     1       0.196  34.847 -19.134  1.00  0.00     0.029 C 
BRANCH  25  26
HETATM   26  C13 UNL     1       0.784  34.445 -20.489  1.00  0.00     0.029 C 
BRANCH  26  27
HETATM   27  C14 UNL     1      -0.274  33.891 -21.382  1.00  0.00     0.229 C 
BRANCH  27  28
HETATM   28  N7  UNL     1      -0.531  34.833 -22.485  1.00  0.00    -0.079 N 
ATOM     29  H73 UNL     1      -1.526  34.920 -22.694  1.00  0.00     0.274 HD
ATOM     30  H72 UNL     1      -0.354  35.801 -22.214  1.00  0.00     0.274 HD
ATOM     31  H71 UNL     1       0.013  34.557 -23.303  1.00  0.00     0.274 HD
ENDBRANCH  27  28
ENDBRANCH  26  27
ENDBRANCH  25  26
ENDBRANCH  24  25
ENDBRANCH  21  24
ENDBRANCH   3  21
TORSDOF 11
ENDMDL
MODEL 4
REMARK VINA RESULT: -5.996809694      2.183      2.972
REMARK  11 active torsions:
REMARK  status: ('A' for Active; 'I' for Inactive)
REMARK    1  A    between atoms: C3_3  and  C4_4 
REMARK    2  A    between atoms: C3_3  and  N6_21 
REMARK    3  A    between atoms: C4_4  and  N1_5 
REMARK    4  A    between atoms: C7_9  and  N2_10 
REMARK    5  A    between atoms: C9_15  and  C10_16 
REMARK    6  A    between atoms: C10_16  and  N5_17 
REMARK    7  A    between atoms: N6_21  and  C11_24 
REMARK    8  A    between atoms: C11_24  and  C12_25 
REMARK    9  A    between atoms: C12_25  and  C13_26 
REMARK   10  A    between atoms: C13_26  and  C14_27 
REMARK   11  A    between atoms: C14_27  and  N7_28 
ROOT
HETATM    1  C1  UNL     1       0.208  29.469 -17.162  1.00  0.00     0.014 C 
HETATM    2  C2  UNL     1      -0.527  30.402 -17.377  1.00  0.00    -0.083 C 
HETATM    3  C3  UNL     1      -1.394  31.525 -17.652  1.00  0.00     0.281 C 
ENDROOT
BRANCH   3   4
HETATM    4  C4  UNL     1      -2.517  31.230 -18.617  1.00  0.00     0.172 C 
BRANCH   4   5
HETATM    5  N1  UNL     1      -3.697  30.672 -18.077  1.00  0.00    -0.341 N 
HETATM    6  C5  UNL     1      -3.992  29.256 -18.051  1.00  0.00     0.222 C 
HETATM    7  O1  UNL     1      -3.230  28.282 -18.219  1.00  0.00    -0.273 OA
HETATM    8  C6  UNL     1      -5.466  29.064 -17.769  1.00  0.00     0.130 C 
HETATM    9  C7  UNL     1      -5.961  30.446 -18.119  1.00  0.00     0.117 C 
HETATM   10  C9  UNL     1      -4.872  31.290 -17.474  1.00  0.00     0.135 C 
BRANCH   9  11
HETATM   11  N2  UNL     1      -7.262  30.638 -17.577  1.00  0.00    -0.360 N 
HETATM   12  C8  UNL     1      -8.334  30.720 -18.300  1.00  0.00     0.197 C 
HETATM   13  N3  UNL     1      -8.317  30.627 -19.709  1.00  0.00    -0.067 NA
HETATM   14  N4  UNL     1      -9.564  30.918 -17.623  1.00  0.00    -0.067 NA
ATOM     15  H2  UNL     1      -7.356  30.716 -16.564  1.00  0.00     0.162 HD
ENDBRANCH   9  11
BRANCH  10  16
HETATM   16  C10 UNL     1      -5.052  32.730 -17.792  1.00  0.00     0.256 C 
BRANCH  16  17
HETATM   17  N5  UNL     1      -4.511  33.619 -16.798  1.00  0.00    -0.077 N 
ATOM     18  H53 UNL     1      -4.411  33.139 -15.904  1.00  0.00     0.274 HD
ATOM     19  H52 UNL     1      -3.531  33.823 -16.995  1.00  0.00     0.274 HD
ATOM     20  H51 UNL     1      -5.041  34.482 -16.683  1.00  0.00     0.274 HD
ENDBRANCH  16  17
ENDBRANCH  10  16
ENDBRANCH   4   5
ENDBRANCH   3   4
BRANCH   3  21
HETATM   21  N6  UNL     1      -0.643  32.678 -17.971  1.00  0.00    -0.059 N 
ATOM     22  H62 UNL     1      -0.618  33.333 -17.189  1.00  0.00     0.278 HD
ATOM     23  H61 UNL     1       0.353  32.465 -18.035  1.00  0.00     0.278 HD
BRANCH  21  24
HETATM   24  C11 UNL     1      -1.118  33.312 -19.166  1.00  0.00     0.234 C 
BRANCH  24  25
HETATM   25  C12 UNL     1      -0.140  33.242 -20.280  1.00  0.00     0.029 C 
BRANCH  25  26
HETATM   26  C13 UNL     1       0.504  34.591 -20.611  1.00  0.00     0.029 C 
BRANCH  26  27
HETATM   27  C14 UNL     1       1.573  34.923 -19.625  1.00  0.00     0.229 C 
BRANCH  27  28
HETATM   28  N7  UNL     1       1.623  36.382 -19.424  1.00  0.00    -0.079 N 
ATOM     29  H73 UNL     1       2.279  36.836 -20.059  1.00  0.00     0.274 HD
ATOM     30  H72 UNL     1       0.770  36.843 -19.741  1.00  0.00     0.274 HD
ATOM     31  H71 UNL     1       1.829  36.584 -18.445  1.00  0.00     0.274 HD
ENDBRANCH  27  28
ENDBRANCH  26  27
ENDBRANCH  25  26
ENDBRANCH  24  25
ENDBRANCH  21  24
ENDBRANCH   3  21
TORSDOF 11
ENDMDL
MODEL 5
REMARK VINA RESULT: -5.917899452      2.049      2.744
REMARK  11 active torsions:
REMARK  status: ('A' for Active; 'I' for Inactive)
REMARK    1  A    between atoms: C3_3  and  C4_4 
REMARK    2  A    between atoms: C3_3  and  N6_21 
REMARK    3  A    between atoms: C4_4  and  N1_5 
REMARK    4  A    between atoms: C7_9  and  N2_10 
REMARK    5  A    between atoms: C9_15  and  C10_16 
REMARK    6  A    between atoms: C10_16  and  N5_17 
REMARK    7  A    between atoms: N6_21  and  C11_24 
REMARK    8  A    between atoms: C11_24  and  C12_25 
REMARK    9  A    between atoms: C12_25  and  C13_26 
REMARK   10  A    between atoms: C13_26  and  C14_27 
REMARK   11  A    between atoms: C14_27  and  N7_28 
ROOT
HETATM    1  C1  UNL     1      -0.515  28.171 -16.552  1.00  0.00     0.014 C 
HETATM    2  C2  UNL     1      -1.020  29.240 -16.792  1.00  0.00    -0.083 C 
HETATM    3  C3  UNL     1      -1.611  30.524 -17.096  1.00  0.00     0.281 C 
ENDROOT
BRANCH   3   4
HETATM    4  C4  UNL     1      -2.673  30.488 -18.168  1.00  0.00     0.172 C 
BRANCH   4   5
HETATM    5  N1  UNL     1      -4.008  30.309 -17.743  1.00  0.00    -0.341 N 
HETATM    6  C5  UNL     1      -4.663  29.024 -17.628  1.00  0.00     0.222 C 
HETATM    7  O1  UNL     1      -4.168  27.879 -17.603  1.00  0.00    -0.273 OA
HETATM    8  C6  UNL     1      -6.157  29.238 -17.531  1.00  0.00     0.130 C 
HETATM    9  C7  UNL     1      -6.236  30.646 -18.068  1.00  0.00     0.117 C 
HETATM   10  C9  UNL     1      -5.040  31.267 -17.362  1.00  0.00     0.135 C 
BRANCH   9  11
HETATM   11  N2  UNL     1      -7.492  31.219 -17.726  1.00  0.00    -0.360 N 
HETATM   12  C8  UNL     1      -8.515  31.227 -18.519  1.00  0.00     0.197 C 
HETATM   13  N3  UNL     1      -8.485  30.664 -19.814  1.00  0.00    -0.067 NA
HETATM   14  N4  UNL     1      -9.704  31.838 -18.046  1.00  0.00    -0.067 NA
ATOM     15  H2  UNL     1      -7.592  31.647 -16.805  1.00  0.00     0.162 HD
ENDBRANCH   9  11
BRANCH  10  16
HETATM   16  C10 UNL     1      -4.803  32.657 -17.831  1.00  0.00     0.256 C 
BRANCH  16  17
HETATM   17  N5  UNL     1      -4.471  33.580 -16.777  1.00  0.00    -0.077 N 
ATOM     18  H53 UNL     1      -3.861  33.136 -16.092  1.00  0.00     0.274 HD
ATOM     19  H52 UNL     1      -3.844  34.307 -17.122  1.00  0.00     0.274 HD
ATOM     20  H51 UNL     1      -5.283  33.994 -16.320  1.00  0.00     0.274 HD
ENDBRANCH  16  17
ENDBRANCH  10  16
ENDBRANCH   4   5
ENDBRANCH   3   4
BRANCH   3  21
HETATM   21  N6  UNL     1      -0.615  31.504 -17.299  1.00  0.00    -0.059 N 
ATOM     22  H62 UNL     1      -0.404  32.003 -16.435  1.00  0.00     0.278 HD
ATOM     23  H61 UNL     1       0.297  31.076 -17.465  1.00  0.00     0.278 HD
BRANCH  21  24
HETATM   24  C11 UNL     1      -0.964  32.412 -18.353  1.00  0.00     0.234 C 
BRANCH  24  25
HETATM   25  C12 UNL     1      -0.118  33.631 -18.362  1.00  0.00     0.029 C 
BRANCH  25  26
HETATM   26  C13 UNL     1      -0.338  34.516 -19.592  1.00  0.00     0.029 C 
BRANCH  26  27
HETATM   27  C14 UNL     1       0.039  33.791 -20.839  1.00  0.00     0.229 C 
BRANCH  27  28
HETATM   28  N7  UNL     1      -0.325  34.606 -22.012  1.00  0.00    -0.079 N 
ATOM     29  H73 UNL     1      -1.209  34.309 -22.427  1.00  0.00     0.274 HD
ATOM     30  H72 UNL     1      -0.597  35.554 -21.752  1.00  0.00     0.274 HD
ATOM     31  H71 UNL     1       0.441  34.595 -22.685  1.00  0.00     0.274 HD
ENDBRANCH  27  28
ENDBRANCH  26  27
ENDBRANCH  25  26
ENDBRANCH  24  25
ENDBRANCH  21  24
ENDBRANCH   3  21
TORSDOF 11
ENDMDL
