MODEL 1
REMARK VINA RESULT: -7.645632500      0.000      0.000
REMARK  4 active torsions:
REMARK  status: ('A' for Active; 'I' for Inactive)
REMARK    1  A    between atoms: N1_1  and  S1_4 
REMARK    2  A    between atoms: S1_4  and  C1_7 
REMARK    3  A    between atoms: C4_10  and  N2_11 
REMARK    4  A    between atoms: C5_13  and  C6_14 
ROOT
HETATM    1  N2  UNL     1       3.854  16.915   6.969  1.00  0.00    -0.365 N 
ATOM      2  H2  UNL     1       3.187  17.657   6.759  1.00  0.00     0.165 HD
HETATM    3  C5  UNL     1       3.685  15.728   6.508  1.00  0.00     0.100 C 
ENDROOT
BRANCH   1   4
HETATM    4  C4  UNL     1       4.993  17.166   7.779  1.00  0.00     0.032 A 
HETATM    5  C3  UNL     1       4.991  18.349   8.525  1.00  0.00     0.031 A 
HETATM    6  C2  UNL     1       6.056  18.675   9.339  1.00  0.00     0.027 A 
HETATM    7  C1  UNL     1       7.132  17.814   9.410  1.00  0.00     0.079 A 
HETATM    8  C15 UNL     1       7.140  16.637   8.671  1.00  0.00     0.027 A 
HETATM    9  C14 UNL     1       6.074  16.314   7.857  1.00  0.00     0.031 A 
BRANCH   7  10
HETATM   10  S1  UNL     1       8.484  18.246  10.456  1.00  0.00     0.256 S 
HETATM   11  O1  UNL     1       8.196  17.747  11.819  1.00  0.00    -0.201 OA
HETATM   12  O2  UNL     1       9.731  17.687   9.856  1.00  0.00    -0.201 OA
BRANCH  10  13
HETATM   13  N1  UNL     1       8.562  19.968  10.501  1.00  0.00    -0.324 N 
ATOM     14  H12 UNL     1       9.111  20.544   9.863  1.00  0.00     0.169 HD
ATOM     15  H11 UNL     1       7.972  20.303  11.264  1.00  0.00     0.169 HD
ENDBRANCH  10  13
ENDBRANCH   7  10
ENDBRANCH   1   4
BRANCH   3  16
HETATM   16  C6  UNL     1       2.527  15.424   5.671  1.00  0.00    -0.018 A 
HETATM   17  C7  UNL     1       2.055  16.358   4.776  1.00  0.00     0.016 A 
HETATM   18  C8  UNL     1       0.956  16.078   3.977  1.00  0.00     0.040 A 
HETATM   19  C9  UNL     1       0.323  14.847   4.079  1.00  0.00     0.102 A 
HETATM   20  C10 UNL     1       0.780  13.897   4.970  1.00  0.00     0.102 A 
HETATM   21  O4  UNL     1      -0.791  14.542   3.279  1.00  0.00    -0.346 OA
HETATM   22  C11 UNL     1       1.871  14.214   5.741  1.00  0.00     0.052 A 
HETATM   23  O3  UNL     1       0.146  12.647   5.079  1.00  0.00    -0.346 OA
HETATM   24  C12 UNL     1      -0.651  12.280   3.944  1.00  0.00     0.202 C 
HETATM   25  C13 UNL     1      -1.588  13.455   3.709  1.00  0.00     0.202 C 
ENDBRANCH   3  16
TORSDOF 4
ENDMDL
MODEL 2
REMARK VINA RESULT: -7.537650958      1.404      2.189
REMARK  4 active torsions:
REMARK  status: ('A' for Active; 'I' for Inactive)
REMARK    1  A    between atoms: N1_1  and  S1_4 
REMARK    2  A    between atoms: S1_4  and  C1_7 
REMARK    3  A    between atoms: C4_10  and  N2_11 
REMARK    4  A    between atoms: C5_13  and  C6_14 
ROOT
HETATM    1  N2  UNL     1       3.026  16.224   6.119  1.00  0.00    -0.365 N 
ATOM      2  H2  UNL     1       2.821  16.792   5.297  1.00  0.00     0.165 HD
HETATM    3  C5  UNL     1       2.290  15.215   6.424  1.00  0.00     0.100 C 
ENDROOT
BRANCH   1   4
HETATM    4  C4  UNL     1       4.132  16.527   6.957  1.00  0.00     0.032 A 
HETATM    5  C3  UNL     1       4.001  17.634   7.802  1.00  0.00     0.031 A 
HETATM    6  C2  UNL     1       5.024  18.002   8.650  1.00  0.00     0.027 A 
HETATM    7  C1  UNL     1       6.188  17.260   8.656  1.00  0.00     0.079 A 
HETATM    8  C15 UNL     1       6.324  16.159   7.820  1.00  0.00     0.027 A 
HETATM    9  C14 UNL     1       5.298  15.793   6.972  1.00  0.00     0.031 A 
BRANCH   7  10
HETATM   10  S1  UNL     1       7.486  17.745   9.747  1.00  0.00     0.256 S 
HETATM   11  O1  UNL     1       7.000  17.606  11.138  1.00  0.00    -0.201 OA
HETATM   12  O2  UNL     1       8.686  16.914   9.438  1.00  0.00    -0.201 OA
BRANCH  10  13
HETATM   13  N1  UNL     1       7.814  19.410   9.438  1.00  0.00    -0.324 N 
ATOM     14  H12 UNL     1       8.690  19.882   9.663  1.00  0.00     0.169 HD
ATOM     15  H11 UNL     1       6.995  19.830   8.999  1.00  0.00     0.169 HD
ENDBRANCH  10  13
ENDBRANCH   7  10
ENDBRANCH   1   4
BRANCH   3  16
HETATM   16  C6  UNL     1       1.142  14.867   5.590  1.00  0.00    -0.018 A 
HETATM   17  C7  UNL     1       0.838  13.546   5.347  1.00  0.00     0.016 A 
HETATM   18  C8  UNL     1      -0.251  13.206   4.556  1.00  0.00     0.040 A 
HETATM   19  C9  UNL     1      -1.041  14.204   4.002  1.00  0.00     0.102 A 
HETATM   20  C10 UNL     1      -0.752  15.534   4.233  1.00  0.00     0.102 A 
HETATM   21  O4  UNL     1      -2.147  13.883   3.199  1.00  0.00    -0.346 OA
HETATM   22  C11 UNL     1       0.333  15.826   5.022  1.00  0.00     0.052 A 
HETATM   23  O3  UNL     1      -1.547  16.552   3.676  1.00  0.00    -0.346 OA
HETATM   24  C12 UNL     1      -2.861  16.133   3.279  1.00  0.00     0.202 C 
HETATM   25  C13 UNL     1      -2.647  14.924   2.381  1.00  0.00     0.202 C 
ENDBRANCH   3  16
TORSDOF 4
ENDMDL
MODEL 3
REMARK VINA RESULT: -7.422923725      1.346      1.648
REMARK  4 active torsions:
REMARK  status: ('A' for Active; 'I' for Inactive)
REMARK    1  A    between atoms: N1_1  and  S1_4 
REMARK    2  A    between atoms: S1_4  and  C1_7 
REMARK    3  A    between atoms: C4_10  and  N2_11 
REMARK    4  A    between atoms: C5_13  and  C6_14 
ROOT
HETATM    1  N2  UNL     1       4.635  17.318   7.852  1.00  0.00    -0.365 N 
ATOM      2  H2  UNL     1       3.785  17.861   7.999  1.00  0.00     0.165 HD
HETATM    3  C5  UNL     1       4.668  16.366   6.990  1.00  0.00     0.100 C 
ENDROOT
BRANCH   1   4
HETATM    4  C4  UNL     1       5.814  17.594   8.595  1.00  0.00     0.032 A 
HETATM    5  C3  UNL     1       6.001  18.913   9.019  1.00  0.00     0.031 A 
HETATM    6  C2  UNL     1       7.117  19.273   9.745  1.00  0.00     0.027 A 
HETATM    7  C1  UNL     1       8.055  18.308  10.052  1.00  0.00     0.079 A 
HETATM    8  C15 UNL     1       7.875  16.995   9.634  1.00  0.00     0.027 A 
HETATM    9  C14 UNL     1       6.758  16.638   8.907  1.00  0.00     0.031 A 
BRANCH   7  10
HETATM   10  S1  UNL     1       9.475  18.785  10.981  1.00  0.00     0.256 S 
HETATM   11  O1  UNL     1      10.637  18.832  10.065  1.00  0.00    -0.201 OA
HETATM   12  O2  UNL     1       9.176  20.086  11.649  1.00  0.00    -0.201 OA
BRANCH  10  13
HETATM   13  N1  UNL     1       9.748  17.556  12.160  1.00  0.00    -0.324 N 
ATOM     14  H12 UNL     1      10.304  16.715  12.007  1.00  0.00     0.169 HD
ATOM     15  H11 UNL     1       9.265  17.814  13.021  1.00  0.00     0.169 HD
ENDBRANCH  10  13
ENDBRANCH   7  10
ENDBRANCH   1   4
BRANCH   3  16
HETATM   16  C6  UNL     1       3.479  16.048   6.204  1.00  0.00    -0.018 A 
HETATM   17  C7  UNL     1       2.857  17.026   5.462  1.00  0.00     0.016 A 
HETATM   18  C8  UNL     1       1.726  16.733   4.712  1.00  0.00     0.040 A 
HETATM   19  C9  UNL     1       1.215  15.443   4.709  1.00  0.00     0.102 A 
HETATM   20  C10 UNL     1       1.824  14.447   5.447  1.00  0.00     0.102 A 
HETATM   21  O4  UNL     1       0.072  15.123   3.957  1.00  0.00    -0.346 OA
HETATM   22  C11 UNL     1       2.940  14.780   6.173  1.00  0.00     0.052 A 
HETATM   23  O3  UNL     1       1.313  13.137   5.449  1.00  0.00    -0.346 OA
HETATM   24  C12 UNL     1       0.464  12.824   4.335  1.00  0.00     0.202 C 
HETATM   25  C13 UNL     1      -0.589  13.922   4.308  1.00  0.00     0.202 C 
ENDBRANCH   3  16
TORSDOF 4
ENDMDL
MODEL 4
REMARK VINA RESULT: -7.361219034      3.097      9.310
REMARK  4 active torsions:
REMARK  status: ('A' for Active; 'I' for Inactive)
REMARK    1  A    between atoms: N1_1  and  S1_4 
REMARK    2  A    between atoms: S1_4  and  C1_7 
REMARK    3  A    between atoms: C4_10  and  N2_11 
REMARK    4  A    between atoms: C5_13  and  C6_14 
ROOT
HETATM    1  N2  UNL     1       5.047  17.218   7.206  1.00  0.00    -0.365 N 
ATOM      2  H2  UNL     1       5.946  17.227   6.724  1.00  0.00     0.165 HD
HETATM    3  C5  UNL     1       4.903  17.799   8.343  1.00  0.00     0.100 C 
ENDROOT
BRANCH   1   4
HETATM    4  C4  UNL     1       3.922  16.564   6.637  1.00  0.00     0.032 A 
HETATM    5  C3  UNL     1       3.408  15.466   7.335  1.00  0.00     0.031 A 
HETATM    6  C2  UNL     1       2.317  14.771   6.858  1.00  0.00     0.027 A 
HETATM    7  C1  UNL     1       1.733  15.173   5.674  1.00  0.00     0.079 A 
HETATM    8  C15 UNL     1       2.238  16.263   4.975  1.00  0.00     0.027 A 
HETATM    9  C14 UNL     1       3.330  16.957   5.456  1.00  0.00     0.031 A 
BRANCH   7  10
HETATM   10  S1  UNL     1       0.339  14.273   5.078  1.00  0.00     0.256 S 
HETATM   11  O1  UNL     1      -0.756  14.404   6.066  1.00  0.00    -0.201 OA
HETATM   12  O2  UNL     1      -0.003  14.792   3.722  1.00  0.00    -0.201 OA
BRANCH  10  13
HETATM   13  N1  UNL     1       0.806  12.616   4.985  1.00  0.00    -0.324 N 
ATOM     14  H12 UNL     1       1.086  12.044   5.781  1.00  0.00     0.169 HD
ATOM     15  H11 UNL     1       0.753  12.314   4.011  1.00  0.00     0.169 HD
ENDBRANCH  10  13
ENDBRANCH   7  10
ENDBRANCH   1   4
BRANCH   3  16
HETATM   16  C6  UNL     1       6.033  18.484   8.964  1.00  0.00    -0.018 A 
HETATM   17  C7  UNL     1       6.107  19.859   8.942  1.00  0.00     0.016 A 
HETATM   18  C8  UNL     1       7.178  20.518   9.530  1.00  0.00     0.040 A 
HETATM   19  C9  UNL     1       8.184  19.788  10.146  1.00  0.00     0.102 A 
HETATM   20  C10 UNL     1       8.129  18.409  10.180  1.00  0.00     0.102 A 
HETATM   21  O4  UNL     1       9.277  20.434  10.748  1.00  0.00    -0.346 OA
HETATM   22  C11 UNL     1       7.052  17.797   9.587  1.00  0.00     0.052 A 
HETATM   23  O3  UNL     1       9.144  17.661  10.803  1.00  0.00    -0.346 OA
HETATM   24  C12 UNL     1       9.934  18.397  11.748  1.00  0.00     0.202 C 
HETATM   25  C13 UNL     1      10.414  19.632  11.000  1.00  0.00     0.202 C 
ENDBRANCH   3  16
TORSDOF 4
ENDMDL
MODEL 5
REMARK VINA RESULT: -7.340437516      1.768      2.652
REMARK  4 active torsions:
REMARK  status: ('A' for Active; 'I' for Inactive)
REMARK    1  A    between atoms: N1_1  and  S1_4 
REMARK    2  A    between atoms: S1_4  and  C1_7 
REMARK    3  A    between atoms: C4_10  and  N2_11 
REMARK    4  A    between atoms: C5_13  and  C6_14 
ROOT
HETATM    1  N2  UNL     1       4.154  17.736   8.532  1.00  0.00    -0.365 N 
ATOM      2  H2  UNL     1       3.366  17.595   9.164  1.00  0.00     0.165 HD
HETATM    3  C5  UNL     1       4.181  17.172   7.377  1.00  0.00     0.100 C 
ENDROOT
BRANCH   1   4
HETATM    4  C4  UNL     1       5.249  18.560   8.904  1.00  0.00     0.032 A 
HETATM    5  C3  UNL     1       6.390  17.914   9.390  1.00  0.00     0.031 A 
HETATM    6  C2  UNL     1       7.502  18.634   9.775  1.00  0.00     0.027 A 
HETATM    7  C1  UNL     1       7.475  20.011   9.673  1.00  0.00     0.079 A 
HETATM    8  C15 UNL     1       6.345  20.658   9.190  1.00  0.00     0.027 A 
HETATM    9  C14 UNL     1       5.234  19.935   8.806  1.00  0.00     0.031 A 
BRANCH   7  10
HETATM   10  S1  UNL     1       8.905  20.915  10.169  1.00  0.00     0.256 S 
HETATM   11  O1  UNL     1       8.866  21.078  11.640  1.00  0.00    -0.201 OA
HETATM   12  O2  UNL     1      10.109  20.188   9.672  1.00  0.00    -0.201 OA
BRANCH  10  13
HETATM   13  N1  UNL     1       8.801  22.473   9.436  1.00  0.00    -0.324 N 
ATOM     14  H12 UNL     1       9.322  22.763   8.609  1.00  0.00     0.169 HD
ATOM     15  H11 UNL     1       8.139  23.041   9.965  1.00  0.00     0.169 HD
ENDBRANCH  10  13
ENDBRANCH   7  10
ENDBRANCH   1   4
BRANCH   3  16
HETATM   16  C6  UNL     1       3.075  16.317   6.953  1.00  0.00    -0.018 A 
HETATM   17  C7  UNL     1       2.540  15.393   7.823  1.00  0.00     0.016 A 
HETATM   18  C8  UNL     1       1.490  14.577   7.428  1.00  0.00     0.040 A 
HETATM   19  C9  UNL     1       0.972  14.689   6.146  1.00  0.00     0.102 A 
HETATM   20  C10 UNL     1       1.494  15.608   5.258  1.00  0.00     0.102 A 
HETATM   21  O4  UNL     1      -0.091  13.872   5.725  1.00  0.00    -0.346 OA
HETATM   22  C11 UNL     1       2.532  16.397   5.689  1.00  0.00     0.052 A 
HETATM   23  O3  UNL     1       0.976  15.729   3.956  1.00  0.00    -0.346 OA
HETATM   24  C12 UNL     1      -0.349  15.203   3.790  1.00  0.00     0.202 C 
HETATM   25  C13 UNL     1      -0.291  13.781   4.327  1.00  0.00     0.202 C 
ENDBRANCH   3  16
TORSDOF 4
ENDMDL
