MODEL 1
REMARK VINA RESULT: -7.755616763      0.000      0.000
REMARK  6 active torsions:
REMARK  status: ('A' for Active; 'I' for Inactive)
REMARK       I    between atoms: C1_2  and  N1_3 
REMARK       I    between atoms: C1_2  and  N3_20 
REMARK    1  A    between atoms: N1_3  and  C2_5 
REMARK    2  A    between atoms: C5_8  and  N2_9 
REMARK    3  A    between atoms: N2_9  and  C6_11 
REMARK    4  A    between atoms: C15_23  and  O2_24 
REMARK    5  A    between atoms: O2_24  and  C16_25 
REMARK    6  A    between atoms: N4_28  and  C19_29 
ROOT
HETATM    1  O1  UNL     1      21.874  73.159  20.638  1.00  0.00    -0.247 OA
HETATM    2  C1  UNL     1      20.894  72.989  21.401  1.00  0.00     0.318 C 
HETATM    3  N1  UNL     1      20.560  71.685  21.805  1.00  0.00    -0.338 N 
ATOM      4  H1  UNL     1      19.764  71.538  22.426  1.00  0.00     0.164 HD
HETATM    5  N3  UNL     1      20.173  74.138  21.814  1.00  0.00    -0.331 N 
HETATM    6  C13 UNL     1      20.540  75.475  21.407  1.00  0.00     0.130 C 
HETATM    7  C14 UNL     1      20.036  76.444  22.483  1.00  0.00     0.055 C 
HETATM    8  C15 UNL     1      18.524  76.395  22.609  1.00  0.00     0.159 C 
HETATM    9  C25 UNL     1      18.006  75.067  22.165  1.00  0.00     0.217 C 
HETATM   10  F4  UNL     1      16.755  74.753  22.633  1.00  0.00    -0.245 F 
HETATM   11  C26 UNL     1      19.011  74.017  22.666  1.00  0.00     0.167 C 
ENDROOT
BRANCH   3  12
HETATM   12  C2  UNL     1      21.337  70.547  21.348  1.00  0.00     0.086 C 
HETATM   13  C3  UNL     1      20.572  69.877  20.242  1.00  0.00     0.027 C 
HETATM   14  C4  UNL     1      21.313  68.684  19.679  1.00  0.00     0.027 C 
HETATM   15  C5  UNL     1      21.992  67.825  20.627  1.00  0.00     0.077 C 
HETATM   16  C11 UNL     1      22.274  68.393  22.000  1.00  0.00     0.027 C 
HETATM   17  C12 UNL     1      21.387  69.484  22.454  1.00  0.00     0.027 C 
BRANCH  15  18
HETATM   18  N2  UNL     1      23.139  67.126  20.216  1.00  0.00    -0.407 N 
ATOM     19  H2  UNL     1      23.191  66.857  19.234  1.00  0.00     0.154 HD
BRANCH  18  20
HETATM   20  C6  UNL     1      24.199  66.772  21.020  1.00  0.00     0.149 C 
HETATM   21  C7  UNL     1      24.686  65.367  20.864  1.00  0.00     0.031 C 
HETATM   22  C8  UNL     1      25.383  65.449  19.495  1.00  0.00     0.008 C 
HETATM   23  C9  UNL     1      25.906  66.865  19.411  1.00  0.00     0.081 C 
HETATM   24  C10 UNL     1      25.495  67.534  20.680  1.00  0.00     0.263 C 
HETATM   25  F1  UNL     1      26.406  67.211  21.665  1.00  0.00    -0.204 F 
HETATM   26  F2  UNL     1      25.272  68.878  20.557  1.00  0.00    -0.204 F 
ENDBRANCH  18  20
ENDBRANCH  15  18
ENDBRANCH   3  12
BRANCH   8  27
HETATM   27  O2  UNL     1      18.200  76.589  23.949  1.00  0.00    -0.376 OA
BRANCH  27  28
HETATM   28  C16 UNL     1      17.275  77.600  24.057  1.00  0.00     0.141 C 
HETATM   29  C17 UNL     1      17.457  78.680  23.016  1.00  0.00     0.053 C 
HETATM   30  C18 UNL     1      18.059  79.822  23.803  1.00  0.00     0.127 C 
HETATM   31  N4  UNL     1      17.392  79.677  25.073  1.00  0.00    -0.365 N 
HETATM   32  C24 UNL     1      17.419  78.282  25.416  1.00  0.00     0.156 C 
BRANCH  31  33
HETATM   33  C19 UNL     1      16.823  80.722  25.827  1.00  0.00     0.105 A 
HETATM   34  C20 UNL     1      17.387  81.987  25.786  1.00  0.00     0.048 A 
HETATM   35  C21 UNL     1      16.898  83.070  26.488  1.00  0.00     0.008 A 
HETATM   36  C22 UNL     1      15.776  82.854  27.277  1.00  0.00     0.061 A 
HETATM   37  C23 UNL     1      15.231  81.584  27.304  1.00  0.00     0.189 A 
HETATM   38  F3  UNL     1      14.137  81.362  28.069  1.00  0.00    -0.186 F 
HETATM   39  N5  UNL     1      15.737  80.562  26.604  1.00  0.00    -0.319 N 
ATOM     40  H5  UNL     1      15.292  79.646  26.661  1.00  0.00     0.169 HD
ENDBRANCH  31  33
ENDBRANCH  27  28
ENDBRANCH   8  27
TORSDOF 6
ENDMDL
MODEL 2
REMARK VINA RESULT: -7.647717584      5.495     13.210
REMARK  6 active torsions:
REMARK  status: ('A' for Active; 'I' for Inactive)
REMARK       I    between atoms: C1_2  and  N1_3 
REMARK       I    between atoms: C1_2  and  N3_20 
REMARK    1  A    between atoms: N1_3  and  C2_5 
REMARK    2  A    between atoms: C5_8  and  N2_9 
REMARK    3  A    between atoms: N2_9  and  C6_11 
REMARK    4  A    between atoms: C15_23  and  O2_24 
REMARK    5  A    between atoms: O2_24  and  C16_25 
REMARK    6  A    between atoms: N4_28  and  C19_29 
ROOT
HETATM    1  O1  UNL     1      19.838  73.103  20.537  1.00  0.00    -0.247 OA
HETATM    2  C1  UNL     1      18.811  72.633  21.082  1.00  0.00     0.318 C 
HETATM    3  N1  UNL     1      18.112  73.417  22.014  1.00  0.00    -0.338 N 
ATOM      4  H1  UNL     1      17.275  73.043  22.462  1.00  0.00     0.164 HD
HETATM    5  N3  UNL     1      18.413  71.321  20.717  1.00  0.00    -0.331 N 
HETATM    6  C13 UNL     1      19.130  70.534  19.740  1.00  0.00     0.130 C 
HETATM    7  C14 UNL     1      18.137  69.541  19.123  1.00  0.00     0.055 C 
HETATM    8  C15 UNL     1      17.581  68.592  20.169  1.00  0.00     0.159 C 
HETATM    9  C25 UNL     1      17.626  69.221  21.522  1.00  0.00     0.217 C 
HETATM   10  F4  UNL     1      16.775  68.662  22.442  1.00  0.00    -0.245 F 
HETATM   11  C26 UNL     1      17.258  70.701  21.328  1.00  0.00     0.167 C 
ENDROOT
BRANCH   3  12
HETATM   12  C2  UNL     1      18.569  74.754  22.348  1.00  0.00     0.086 C 
HETATM   13  C3  UNL     1      19.734  74.626  23.287  1.00  0.00     0.027 C 
HETATM   14  C4  UNL     1      20.300  75.973  23.680  1.00  0.00     0.027 C 
HETATM   15  C5  UNL     1      19.350  77.033  23.946  1.00  0.00     0.077 C 
HETATM   16  C11 UNL     1      17.946  76.857  23.412  1.00  0.00     0.027 C 
HETATM   17  C12 UNL     1      17.499  75.467  23.186  1.00  0.00     0.027 C 
BRANCH  15  18
HETATM   18  N2  UNL     1      19.727  78.365  23.708  1.00  0.00    -0.407 N 
ATOM     19  H2  UNL     1      20.634  78.662  24.067  1.00  0.00     0.154 HD
BRANCH  18  20
HETATM   20  C6  UNL     1      18.982  79.306  23.033  1.00  0.00     0.149 C 
HETATM   21  C7  UNL     1      19.050  80.696  23.580  1.00  0.00     0.031 C 
HETATM   22  C8  UNL     1      20.473  81.106  23.163  1.00  0.00     0.008 C 
HETATM   23  C9  UNL     1      20.726  80.364  21.870  1.00  0.00     0.081 C 
HETATM   24  C10 UNL     1      19.493  79.566  21.603  1.00  0.00     0.263 C 
HETATM   25  F1  UNL     1      18.560  80.385  20.999  1.00  0.00    -0.204 F 
HETATM   26  F2  UNL     1      19.718  78.399  20.927  1.00  0.00    -0.204 F 
ENDBRANCH  18  20
ENDBRANCH  15  18
ENDBRANCH   3  12
BRANCH   8  27
HETATM   27  O2  UNL     1      16.258  68.316  19.834  1.00  0.00    -0.376 OA
BRANCH  27  28
HETATM   28  C16 UNL     1      16.171  68.046  18.488  1.00  0.00     0.141 C 
HETATM   29  C17 UNL     1      14.827  68.406  17.901  1.00  0.00     0.053 C 
HETATM   30  C18 UNL     1      14.163  67.062  17.706  1.00  0.00     0.127 C 
HETATM   31  N4  UNL     1      15.288  66.235  17.347  1.00  0.00    -0.365 N 
HETATM   32  C24 UNL     1      16.357  66.548  18.255  1.00  0.00     0.156 C 
BRANCH  31  33
HETATM   33  C19 UNL     1      15.318  65.299  16.296  1.00  0.00     0.105 A 
HETATM   34  C20 UNL     1      14.933  65.681  15.021  1.00  0.00     0.048 A 
HETATM   35  C21 UNL     1      14.931  64.834  13.931  1.00  0.00     0.008 A 
HETATM   36  C22 UNL     1      15.341  63.526  14.151  1.00  0.00     0.061 A 
HETATM   37  C23 UNL     1      15.719  63.165  15.431  1.00  0.00     0.189 A 
HETATM   38  F3  UNL     1      16.121  61.893  15.656  1.00  0.00    -0.186 F 
HETATM   39  N5  UNL     1      15.707  64.021  16.459  1.00  0.00    -0.319 N 
ATOM     40  H5  UNL     1      15.998  63.700  17.383  1.00  0.00     0.169 HD
ENDBRANCH  31  33
ENDBRANCH  27  28
ENDBRANCH   8  27
TORSDOF 6
ENDMDL
MODEL 3
REMARK VINA RESULT: -7.499829867      5.572     13.186
REMARK  6 active torsions:
REMARK  status: ('A' for Active; 'I' for Inactive)
REMARK       I    between atoms: C1_2  and  N1_3 
REMARK       I    between atoms: C1_2  and  N3_20 
REMARK    1  A    between atoms: N1_3  and  C2_5 
REMARK    2  A    between atoms: C5_8  and  N2_9 
REMARK    3  A    between atoms: N2_9  and  C6_11 
REMARK    4  A    between atoms: C15_23  and  O2_24 
REMARK    5  A    between atoms: O2_24  and  C16_25 
REMARK    6  A    between atoms: N4_28  and  C19_29 
ROOT
HETATM    1  O1  UNL     1      19.793  73.217  20.541  1.00  0.00    -0.247 OA
HETATM    2  C1  UNL     1      18.777  72.738  21.097  1.00  0.00     0.318 C 
HETATM    3  N1  UNL     1      18.092  73.508  22.051  1.00  0.00    -0.338 N 
ATOM      4  H1  UNL     1      17.263  73.126  22.508  1.00  0.00     0.164 HD
HETATM    5  N3  UNL     1      18.377  71.429  20.723  1.00  0.00    -0.331 N 
HETATM    6  C13 UNL     1      19.079  70.656  19.724  1.00  0.00     0.130 C 
HETATM    7  C14 UNL     1      18.079  69.668  19.112  1.00  0.00     0.055 C 
HETATM    8  C15 UNL     1      17.543  68.705  20.155  1.00  0.00     0.159 C 
HETATM    9  C25 UNL     1      17.609  69.317  21.515  1.00  0.00     0.217 C 
HETATM   10  F4  UNL     1      16.776  68.745  22.443  1.00  0.00    -0.245 F 
HETATM   11  C26 UNL     1      17.234  70.798  21.346  1.00  0.00     0.167 C 
ENDROOT
BRANCH   3  12
HETATM   12  C2  UNL     1      18.550  74.843  22.393  1.00  0.00     0.086 C 
HETATM   13  C3  UNL     1      19.722  74.707  23.323  1.00  0.00     0.027 C 
HETATM   14  C4  UNL     1      20.291  76.051  23.723  1.00  0.00     0.027 C 
HETATM   15  C5  UNL     1      19.342  77.108  24.005  1.00  0.00     0.077 C 
HETATM   16  C11 UNL     1      17.934  76.935  23.481  1.00  0.00     0.027 C 
HETATM   17  C12 UNL     1      17.487  75.547  23.245  1.00  0.00     0.027 C 
BRANCH  15  18
HETATM   18  N2  UNL     1      19.717  78.442  23.777  1.00  0.00    -0.407 N 
ATOM     19  H2  UNL     1      20.589  78.758  24.201  1.00  0.00     0.154 HD
BRANCH  18  20
HETATM   20  C6  UNL     1      19.014  79.361  23.031  1.00  0.00     0.149 C 
HETATM   21  C7  UNL     1      19.052  80.767  23.538  1.00  0.00     0.031 C 
HETATM   22  C8  UNL     1      20.497  81.165  23.191  1.00  0.00     0.008 C 
HETATM   23  C9  UNL     1      20.823  80.383  21.939  1.00  0.00     0.081 C 
HETATM   24  C10 UNL     1      19.606  79.577  21.625  1.00  0.00     0.263 C 
HETATM   25  F1  UNL     1      18.710  80.375  20.944  1.00  0.00    -0.204 F 
HETATM   26  F2  UNL     1      19.868  78.389  21.001  1.00  0.00    -0.204 F 
ENDBRANCH  18  20
ENDBRANCH  15  18
ENDBRANCH   3  12
BRANCH   8  27
HETATM   27  O2  UNL     1      16.215  68.428  19.839  1.00  0.00    -0.376 OA
BRANCH  27  28
HETATM   28  C16 UNL     1      16.117  68.105  18.507  1.00  0.00     0.141 C 
HETATM   29  C17 UNL     1      14.740  68.353  17.939  1.00  0.00     0.053 C 
HETATM   30  C18 UNL     1      14.163  66.962  17.808  1.00  0.00     0.127 C 
HETATM   31  N4  UNL     1      15.333  66.199  17.451  1.00  0.00    -0.365 N 
HETATM   32  C24 UNL     1      16.398  66.615  18.322  1.00  0.00     0.156 C 
BRANCH  31  33
HETATM   33  C19 UNL     1      15.403  65.228  16.433  1.00  0.00     0.105 A 
HETATM   34  C20 UNL     1      16.136  64.070  16.634  1.00  0.00     0.048 A 
HETATM   35  C21 UNL     1      16.261  63.066  15.697  1.00  0.00     0.008 A 
HETATM   36  C22 UNL     1      15.605  63.250  14.487  1.00  0.00     0.061 A 
HETATM   37  C23 UNL     1      14.880  64.413  14.307  1.00  0.00     0.189 A 
HETATM   38  F3  UNL     1      14.236  64.602  13.132  1.00  0.00    -0.186 F 
HETATM   39  N5  UNL     1      14.785  65.361  15.246  1.00  0.00    -0.319 N 
ATOM     40  H5  UNL     1      14.235  66.200  15.058  1.00  0.00     0.169 HD
ENDBRANCH  31  33
ENDBRANCH  27  28
ENDBRANCH   8  27
TORSDOF 6
ENDMDL
MODEL 4
REMARK VINA RESULT: -7.462040798      5.644     13.082
REMARK  6 active torsions:
REMARK  status: ('A' for Active; 'I' for Inactive)
REMARK       I    between atoms: C1_2  and  N1_3 
REMARK       I    between atoms: C1_2  and  N3_20 
REMARK    1  A    between atoms: N1_3  and  C2_5 
REMARK    2  A    between atoms: C5_8  and  N2_9 
REMARK    3  A    between atoms: N2_9  and  C6_11 
REMARK    4  A    between atoms: C15_23  and  O2_24 
REMARK    5  A    between atoms: O2_24  and  C16_25 
REMARK    6  A    between atoms: N4_28  and  C19_29 
ROOT
HETATM    1  O1  UNL     1      19.876  73.106  20.557  1.00  0.00    -0.247 OA
HETATM    2  C1  UNL     1      18.846  72.643  21.102  1.00  0.00     0.318 C 
HETATM    3  N1  UNL     1      18.154  73.431  22.037  1.00  0.00    -0.338 N 
ATOM      4  H1  UNL     1      17.315  73.062  22.485  1.00  0.00     0.164 HD
HETATM    5  N3  UNL     1      18.439  71.335  20.736  1.00  0.00    -0.331 N 
HETATM    6  C13 UNL     1      19.148  70.544  19.757  1.00  0.00     0.130 C 
HETATM    7  C14 UNL     1      18.147  69.560  19.140  1.00  0.00     0.055 C 
HETATM    8  C15 UNL     1      17.585  68.613  20.184  1.00  0.00     0.159 C 
HETATM    9  C25 UNL     1      17.637  69.239  21.538  1.00  0.00     0.217 C 
HETATM   10  F4  UNL     1      16.784  68.685  22.460  1.00  0.00    -0.245 F 
HETATM   11  C26 UNL     1      17.280  70.722  21.348  1.00  0.00     0.167 C 
ENDROOT
BRANCH   3  12
HETATM   12  C2  UNL     1      18.621  74.764  22.372  1.00  0.00     0.086 C 
HETATM   13  C3  UNL     1      19.770  74.627  23.330  1.00  0.00     0.027 C 
HETATM   14  C4  UNL     1      20.346  75.970  23.725  1.00  0.00     0.027 C 
HETATM   15  C5  UNL     1      19.403  77.041  23.972  1.00  0.00     0.077 C 
HETATM   16  C11 UNL     1      18.006  76.878  23.418  1.00  0.00     0.027 C 
HETATM   17  C12 UNL     1      17.547  75.492  23.191  1.00  0.00     0.027 C 
BRANCH  15  18
HETATM   18  N2  UNL     1      19.799  78.368  23.735  1.00  0.00    -0.407 N 
ATOM     19  H2  UNL     1      19.463  79.076  24.387  1.00  0.00     0.154 HD
BRANCH  18  20
HETATM   20  C6  UNL     1      20.600  78.798  22.701  1.00  0.00     0.149 C 
HETATM   21  C7  UNL     1      19.927  79.652  21.675  1.00  0.00     0.031 C 
HETATM   22  C8  UNL     1      19.746  80.963  22.459  1.00  0.00     0.008 C 
HETATM   23  C9  UNL     1      20.923  81.013  23.406  1.00  0.00     0.081 C 
HETATM   24  C10 UNL     1      21.707  79.767  23.159  1.00  0.00     0.263 C 
HETATM   25  F1  UNL     1      22.524  79.969  22.065  1.00  0.00    -0.204 F 
HETATM   26  F2  UNL     1      22.368  79.295  24.258  1.00  0.00    -0.204 F 
ENDBRANCH  18  20
ENDBRANCH  15  18
ENDBRANCH   3  12
BRANCH   8  27
HETATM   27  O2  UNL     1      16.260  68.347  19.851  1.00  0.00    -0.376 OA
BRANCH  27  28
HETATM   28  C16 UNL     1      16.171  68.068  18.508  1.00  0.00     0.141 C 
HETATM   29  C17 UNL     1      14.824  68.420  17.921  1.00  0.00     0.053 C 
HETATM   30  C18 UNL     1      14.163  67.073  17.737  1.00  0.00     0.127 C 
HETATM   31  N4  UNL     1      15.290  66.247  17.381  1.00  0.00    -0.365 N 
HETATM   32  C24 UNL     1      16.360  66.568  18.284  1.00  0.00     0.156 C 
BRANCH  31  33
HETATM   33  C19 UNL     1      15.320  65.303  16.336  1.00  0.00     0.105 A 
HETATM   34  C20 UNL     1      14.919  65.672  15.062  1.00  0.00     0.048 A 
HETATM   35  C21 UNL     1      14.916  64.818  13.979  1.00  0.00     0.008 A 
HETATM   36  C22 UNL     1      15.342  63.515  14.204  1.00  0.00     0.061 A 
HETATM   37  C23 UNL     1      15.736  63.168  15.482  1.00  0.00     0.189 A 
HETATM   38  F3  UNL     1      16.154  61.902  15.712  1.00  0.00    -0.186 F 
HETATM   39  N5  UNL     1      15.725  64.031  16.504  1.00  0.00    -0.319 N 
ATOM     40  H5  UNL     1      16.028  63.720  17.428  1.00  0.00     0.169 HD
ENDBRANCH  31  33
ENDBRANCH  27  28
ENDBRANCH   8  27
TORSDOF 6
ENDMDL
MODEL 5
REMARK VINA RESULT: -7.376884147      3.883     13.502
REMARK  6 active torsions:
REMARK  status: ('A' for Active; 'I' for Inactive)
REMARK       I    between atoms: C1_2  and  N1_3 
REMARK       I    between atoms: C1_2  and  N3_20 
REMARK    1  A    between atoms: N1_3  and  C2_5 
REMARK    2  A    between atoms: C5_8  and  N2_9 
REMARK    3  A    between atoms: N2_9  and  C6_11 
REMARK    4  A    between atoms: C15_23  and  O2_24 
REMARK    5  A    between atoms: O2_24  and  C16_25 
REMARK    6  A    between atoms: N4_28  and  C19_29 
ROOT
HETATM    1  O1  UNL     1      20.552  75.800  23.137  1.00  0.00    -0.247 OA
HETATM    2  C1  UNL     1      19.473  75.241  22.827  1.00  0.00     0.318 C 
HETATM    3  N1  UNL     1      18.262  75.903  23.088  1.00  0.00    -0.338 N 
ATOM      4  H1  UNL     1      17.379  75.456  22.839  1.00  0.00     0.164 HD
HETATM    5  N3  UNL     1      19.544  73.959  22.225  1.00  0.00    -0.331 N 
HETATM    6  C13 UNL     1      20.799  73.300  21.944  1.00  0.00     0.130 C 
HETATM    7  C14 UNL     1      20.567  72.339  20.771  1.00  0.00     0.055 C 
HETATM    8  C15 UNL     1      19.548  71.271  21.124  1.00  0.00     0.159 C 
HETATM    9  C25 UNL     1      18.623  71.762  22.187  1.00  0.00     0.217 C 
HETATM   10  F4  UNL     1      17.432  71.084  22.269  1.00  0.00    -0.245 F 
HETATM   11  C26 UNL     1      18.341  73.240  21.871  1.00  0.00     0.167 C 
ENDROOT
BRANCH   3  12
HETATM   12  C2  UNL     1      18.253  77.215  23.708  1.00  0.00     0.086 C 
HETATM   13  C3  UNL     1      17.066  77.287  24.627  1.00  0.00     0.027 C 
HETATM   14  C4  UNL     1      16.979  78.617  25.343  1.00  0.00     0.027 C 
HETATM   15  C5  UNL     1      17.289  79.801  24.569  1.00  0.00     0.077 C 
HETATM   16  C11 UNL     1      18.066  79.609  23.287  1.00  0.00     0.027 C 
HETATM   17  C12 UNL     1      17.958  78.282  22.646  1.00  0.00     0.027 C 
BRANCH  15  18
HETATM   18  N2  UNL     1      17.823  80.924  25.222  1.00  0.00    -0.407 N 
ATOM     19  H2  UNL     1      18.287  80.764  26.116  1.00  0.00     0.154 HD
BRANCH  18  20
HETATM   20  C6  UNL     1      17.778  82.221  24.763  1.00  0.00     0.149 C 
HETATM   21  C7  UNL     1      16.474  82.928  24.956  1.00  0.00     0.031 C 
HETATM   22  C8  UNL     1      16.491  83.164  26.476  1.00  0.00     0.008 C 
HETATM   23  C9  UNL     1      17.952  83.328  26.826  1.00  0.00     0.081 C 
HETATM   24  C10 UNL     1      18.705  83.171  25.547  1.00  0.00     0.263 C 
HETATM   25  F1  UNL     1      18.688  84.375  24.873  1.00  0.00    -0.204 F 
HETATM   26  F2  UNL     1      19.958  82.643  25.696  1.00  0.00    -0.204 F 
ENDBRANCH  18  20
ENDBRANCH  15  18
ENDBRANCH   3  12
BRANCH   8  27
HETATM   27  O2  UNL     1      18.817  70.982  19.975  1.00  0.00    -0.376 OA
BRANCH  27  28
HETATM   28  C16 UNL     1      18.880  69.633  19.716  1.00  0.00     0.141 C 
HETATM   29  C17 UNL     1      19.902  69.282  18.660  1.00  0.00     0.053 C 
HETATM   30  C18 UNL     1      19.054  68.970  17.448  1.00  0.00     0.127 C 
HETATM   31  N4  UNL     1      17.903  68.349  18.055  1.00  0.00    -0.365 N 
HETATM   32  C24 UNL     1      17.530  69.151  19.188  1.00  0.00     0.156 C 
BRANCH  31  33
HETATM   33  C19 UNL     1      17.273  67.171  17.609  1.00  0.00     0.105 A 
HETATM   34  C20 UNL     1      16.035  66.816  18.120  1.00  0.00     0.048 A 
HETATM   35  C21 UNL     1      15.343  65.684  17.743  1.00  0.00     0.008 A 
HETATM   36  C22 UNL     1      15.943  64.866  16.795  1.00  0.00     0.061 A 
HETATM   37  C23 UNL     1      17.179  65.238  16.299  1.00  0.00     0.189 A 
HETATM   38  F3  UNL     1      17.773  64.449  15.374  1.00  0.00    -0.186 F 
HETATM   39  N5  UNL     1      17.814  66.348  16.693  1.00  0.00    -0.319 N 
ATOM     40  H5  UNL     1      18.725  66.574  16.292  1.00  0.00     0.169 HD
ENDBRANCH  31  33
ENDBRANCH  27  28
ENDBRANCH   8  27
TORSDOF 6
ENDMDL
