MODEL 1
REMARK VINA RESULT: -8.168609023      0.000      0.000
REMARK  8 active torsions:
REMARK  status: ('A' for Active; 'I' for Inactive)
REMARK    1  A    between atoms: N2_5  and  C4_6 
REMARK    2  A    between atoms: C4_6  and  C5_7 
REMARK       I    between atoms: C5_7  and  N3_9 
REMARK    3  A    between atoms: N3_9  and  C6_11 
REMARK    4  A    between atoms: C6_11  and  C8_13 
REMARK    5  A    between atoms: C6_11  and  C15_28 
REMARK       I    between atoms: C8_13  and  N4_15 
REMARK    6  A    between atoms: N4_15  and  C9_17 
REMARK    7  A    between atoms: C12_22  and  S1_23 
REMARK    8  A    between atoms: S1_23  and  C13_24 
ROOT
HETATM    1  C6  UNL     1       5.030  41.399  62.148  1.00  0.00     0.140 C 
HETATM    2  C7  UNL     1       4.043  42.381  61.665  1.00  0.00     0.054 C 
ENDROOT
BRANCH   1   3
HETATM    3  N3  UNL     1       5.968  42.081  63.032  1.00  0.00    -0.338 N 
HETATM    4  C5  UNL     1       5.638  43.455  63.348  1.00  0.00     0.247 C 
HETATM    5  O1  UNL     1       4.612  44.006  62.885  1.00  0.00    -0.272 OA
ATOM      6  H3  UNL     1       6.799  41.620  63.404  1.00  0.00     0.164 HD
BRANCH   4   7
HETATM    7  C4  UNL     1       6.524  44.242  64.238  1.00  0.00     0.374 C 
BRANCH   7   8
HETATM    8  N2  UNL     1       7.821  43.612  64.275  1.00  0.00     0.100 N 
HETATM    9  C3  UNL     1       8.397  43.710  65.580  1.00  0.00     0.303 C 
HETATM   10  C2  UNL     1       9.842  44.159  65.505  1.00  0.00     0.302 C 
HETATM   11  N1  UNL     1       9.898  45.451  64.893  1.00  0.00     0.087 N 
HETATM   12  C1  UNL     1      11.274  45.758  64.571  1.00  0.00     0.310 C 
HETATM   13  C20 UNL     1       9.073  45.559  63.702  1.00  0.00     0.302 C 
HETATM   14  C19 UNL     1       8.649  44.200  63.241  1.00  0.00     0.303 C 
ENDBRANCH   7   8
ENDBRANCH   4   7
ENDBRANCH   1   3
BRANCH   1  15
HETATM   15  C8  UNL     1       5.868  41.028  60.938  1.00  0.00     0.251 C 
HETATM   16  O2  UNL     1       7.123  41.144  61.129  1.00  0.00    -0.270 OA
HETATM   17  N4  UNL     1       5.453  40.589  59.701  1.00  0.00    -0.354 N 
ATOM     18  H4  UNL     1       4.454  40.476  59.530  1.00  0.00     0.163 HD
BRANCH  17  19
HETATM   19  C9  UNL     1       6.397  40.277  58.613  1.00  0.00     0.092 C 
HETATM   20  C10 UNL     1       6.088  41.051  57.381  1.00  0.00     0.045 C 
HETATM   21  C11 UNL     1       5.563  40.228  56.227  1.00  0.00     0.122 C 
HETATM   22  N5  UNL     1       6.521  39.173  55.941  1.00  0.00    -0.388 N 
HETATM   23  C12 UNL     1       7.104  38.556  57.074  1.00  0.00     0.049 C 
ATOM     24  H5  UNL     1       6.758  38.897  54.988  1.00  0.00     0.159 HD
HETATM   25  C14 UNL     1       6.474  38.787  58.385  1.00  0.00     0.089 C 
BRANCH  23  26
HETATM   26  S1  UNL     1       8.421  37.615  56.975  1.00  0.00    -0.048 SA
BRANCH  26  27
HETATM   27  C13 UNL     1       9.773  37.764  58.218  1.00  0.00     0.421 C 
HETATM   28  F1  UNL     1       9.533  36.917  59.286  1.00  0.00    -0.202 F 
HETATM   29  F2  UNL     1       9.793  39.072  58.637  1.00  0.00    -0.202 F 
ENDBRANCH  26  27
ENDBRANCH  23  26
ENDBRANCH  17  19
ENDBRANCH   1  15
BRANCH   1  30
HETATM   30  C15 UNL     1       4.471  40.202  62.831  1.00  0.00     0.010 A 
HETATM   31  C16 UNL     1       4.801  38.935  62.464  1.00  0.00     0.043 A 
HETATM   32  C17 UNL     1       4.175  37.907  63.108  1.00  0.00     0.076 A 
HETATM   33 CL1  UNL     1       4.373  36.160  62.875  1.00  0.00    -0.076 Cl
HETATM   34  S2  UNL     1       3.146  38.693  64.202  1.00  0.00    -0.065 SA
HETATM   35  C18 UNL     1       3.521  40.298  63.833  1.00  0.00     0.085 A 
HETATM   36 CL2  UNL     1       2.858  41.696  64.654  1.00  0.00    -0.076 Cl
ENDBRANCH   1  30
TORSDOF 8
ENDMDL
MODEL 2
REMARK VINA RESULT: -8.029860204      1.529      1.988
REMARK  8 active torsions:
REMARK  status: ('A' for Active; 'I' for Inactive)
REMARK    1  A    between atoms: N2_5  and  C4_6 
REMARK    2  A    between atoms: C4_6  and  C5_7 
REMARK       I    between atoms: C5_7  and  N3_9 
REMARK    3  A    between atoms: N3_9  and  C6_11 
REMARK    4  A    between atoms: C6_11  and  C8_13 
REMARK    5  A    between atoms: C6_11  and  C15_28 
REMARK       I    between atoms: C8_13  and  N4_15 
REMARK    6  A    between atoms: N4_15  and  C9_17 
REMARK    7  A    between atoms: C12_22  and  S1_23 
REMARK    8  A    between atoms: S1_23  and  C13_24 
ROOT
HETATM    1  C6  UNL     1       5.352  41.621  60.558  1.00  0.00     0.140 C 
HETATM    2  C7  UNL     1       4.395  42.542  59.921  1.00  0.00     0.054 C 
ENDROOT
BRANCH   1   3
HETATM    3  N3  UNL     1       6.330  42.408  61.300  1.00  0.00    -0.338 N 
HETATM    4  C5  UNL     1       5.788  43.506  62.072  1.00  0.00     0.247 C 
HETATM    5  O1  UNL     1       4.558  43.749  62.092  1.00  0.00    -0.272 OA
ATOM      6  H3  UNL     1       7.328  42.199  61.276  1.00  0.00     0.164 HD
BRANCH   4   7
HETATM    7  C4  UNL     1       6.693  44.372  62.863  1.00  0.00     0.374 C 
BRANCH   7   8
HETATM    8  N2  UNL     1       7.721  43.551  63.453  1.00  0.00     0.100 N 
HETATM    9  C3  UNL     1       7.597  43.525  64.877  1.00  0.00     0.303 C 
HETATM   10  C2  UNL     1       8.939  43.749  65.545  1.00  0.00     0.302 C 
HETATM   11  N1  UNL     1       9.441  45.033  65.163  1.00  0.00     0.087 N 
HETATM   12  C1  UNL     1      10.826  45.134  65.568  1.00  0.00     0.310 C 
HETATM   13  C20 UNL     1       9.319  45.297  63.739  1.00  0.00     0.302 C 
HETATM   14  C19 UNL     1       9.012  44.032  63.002  1.00  0.00     0.303 C 
ENDBRANCH   7   8
ENDBRANCH   4   7
ENDBRANCH   1   3
BRANCH   1  15
HETATM   15  C8  UNL     1       6.153  41.010  59.424  1.00  0.00     0.251 C 
HETATM   16  O2  UNL     1       7.329  41.490  59.310  1.00  0.00    -0.270 OA
HETATM   17  N4  UNL     1       5.782  40.028  58.533  1.00  0.00    -0.354 N 
ATOM     18  H4  UNL     1       4.851  39.620  58.614  1.00  0.00     0.163 HD
BRANCH  17  19
HETATM   19  C9  UNL     1       6.678  39.544  57.468  1.00  0.00     0.092 C 
HETATM   20  C10 UNL     1       6.053  39.679  56.124  1.00  0.00     0.045 C 
HETATM   21  C11 UNL     1       5.689  38.372  55.458  1.00  0.00     0.122 C 
HETATM   22  N5  UNL     1       6.882  37.544  55.387  1.00  0.00    -0.388 N 
HETATM   23  C12 UNL     1       7.714  37.574  56.532  1.00  0.00     0.049 C 
ATOM     24  H5  UNL     1       7.105  36.980  54.567  1.00  0.00     0.159 HD
HETATM   25  C14 UNL     1       7.160  38.147  57.770  1.00  0.00     0.089 C 
BRANCH  23  26
HETATM   26  S1  UNL     1       9.233  37.005  56.523  1.00  0.00    -0.048 SA
BRANCH  26  27
HETATM   27  C13 UNL     1      10.328  37.238  57.986  1.00  0.00     0.421 C 
HETATM   28  F1  UNL     1      11.376  36.335  57.944  1.00  0.00    -0.202 F 
HETATM   29  F2  UNL     1       9.557  37.028  59.104  1.00  0.00    -0.202 F 
ENDBRANCH  26  27
ENDBRANCH  23  26
ENDBRANCH  17  19
ENDBRANCH   1  15
BRANCH   1  30
HETATM   30  C15 UNL     1       4.759  40.585  61.446  1.00  0.00     0.010 A 
HETATM   31  C16 UNL     1       3.463  40.631  61.853  1.00  0.00     0.043 A 
HETATM   32  C17 UNL     1       3.039  39.670  62.726  1.00  0.00     0.076 A 
HETATM   33 CL1  UNL     1       1.433  39.445  63.443  1.00  0.00    -0.076 Cl
HETATM   34  S2  UNL     1       4.423  38.722  62.973  1.00  0.00    -0.065 SA
HETATM   35  C18 UNL     1       5.508  39.548  61.975  1.00  0.00     0.085 A 
HETATM   36 CL2  UNL     1       7.166  39.066  61.685  1.00  0.00    -0.076 Cl
ENDBRANCH   1  30
TORSDOF 8
ENDMDL
MODEL 3
REMARK VINA RESULT: -7.714878393      3.659      4.892
REMARK  8 active torsions:
REMARK  status: ('A' for Active; 'I' for Inactive)
REMARK    1  A    between atoms: N2_5  and  C4_6 
REMARK    2  A    between atoms: C4_6  and  C5_7 
REMARK       I    between atoms: C5_7  and  N3_9 
REMARK    3  A    between atoms: N3_9  and  C6_11 
REMARK    4  A    between atoms: C6_11  and  C8_13 
REMARK    5  A    between atoms: C6_11  and  C15_28 
REMARK       I    between atoms: C8_13  and  N4_15 
REMARK    6  A    between atoms: N4_15  and  C9_17 
REMARK    7  A    between atoms: C12_22  and  S1_23 
REMARK    8  A    between atoms: S1_23  and  C13_24 
ROOT
HETATM    1  C6  UNL     1       6.757  44.768  59.740  1.00  0.00     0.140 C 
HETATM    2  C7  UNL     1       7.924  45.273  58.996  1.00  0.00     0.054 C 
ENDROOT
BRANCH   1   3
HETATM    3  N3  UNL     1       7.059  44.819  61.165  1.00  0.00    -0.338 N 
HETATM    4  C5  UNL     1       7.954  45.881  61.574  1.00  0.00     0.247 C 
HETATM    5  O1  UNL     1       8.429  46.693  60.746  1.00  0.00    -0.272 OA
ATOM      6  H3  UNL     1       6.665  44.152  61.829  1.00  0.00     0.164 HD
BRANCH   4   7
HETATM    7  C4  UNL     1       8.329  46.024  63.001  1.00  0.00     0.374 C 
BRANCH   7   8
HETATM    8  N2  UNL     1       8.525  44.710  63.563  1.00  0.00     0.100 N 
HETATM    9  C3  UNL     1       8.098  44.671  64.926  1.00  0.00     0.303 C 
HETATM   10  C2  UNL     1       9.132  43.989  65.800  1.00  0.00     0.302 C 
HETATM   11  N1  UNL     1      10.357  44.725  65.735  1.00  0.00     0.087 N 
HETATM   12  C1  UNL     1      11.410  43.936  66.336  1.00  0.00     0.310 C 
HETATM   13  C20 UNL     1      10.729  45.102  64.382  1.00  0.00     0.302 C 
HETATM   14  C19 UNL     1       9.914  44.336  63.389  1.00  0.00     0.303 C 
ENDBRANCH   7   8
ENDBRANCH   4   7
ENDBRANCH   1   3
BRANCH   1  15
HETATM   15  C8  UNL     1       6.682  43.285  59.431  1.00  0.00     0.251 C 
HETATM   16  O2  UNL     1       6.138  43.022  58.309  1.00  0.00    -0.270 OA
HETATM   17  N4  UNL     1       7.120  42.220  60.187  1.00  0.00    -0.354 N 
ATOM     18  H4  UNL     1       7.571  42.408  61.083  1.00  0.00     0.163 HD
BRANCH  17  19
HETATM   19  C9  UNL     1       6.964  40.821  59.753  1.00  0.00     0.092 C 
HETATM   20  C10 UNL     1       6.221  40.016  60.759  1.00  0.00     0.045 C 
HETATM   21  C11 UNL     1       7.048  38.974  61.476  1.00  0.00     0.122 C 
HETATM   22  N5  UNL     1       7.662  38.110  60.481  1.00  0.00    -0.388 N 
HETATM   23  C12 UNL     1       8.152  38.764  59.326  1.00  0.00     0.049 C 
ATOM     24  H5  UNL     1       7.735  37.100  60.608  1.00  0.00     0.159 HD
HETATM   25  C14 UNL     1       8.298  40.228  59.373  1.00  0.00     0.089 C 
BRANCH  23  26
HETATM   26  S1  UNL     1       8.554  37.963  57.974  1.00  0.00    -0.048 SA
BRANCH  26  27
HETATM   27  C13 UNL     1      10.100  36.962  57.902  1.00  0.00     0.421 C 
HETATM   28  F1  UNL     1      11.196  37.761  58.174  1.00  0.00    -0.202 F 
HETATM   29  F2  UNL     1      10.185  36.445  56.632  1.00  0.00    -0.202 F 
ENDBRANCH  26  27
ENDBRANCH  23  26
ENDBRANCH  17  19
ENDBRANCH   1  15
BRANCH   1  30
HETATM   30  C15 UNL     1       5.469  45.463  59.471  1.00  0.00     0.010 A 
HETATM   31  C16 UNL     1       5.386  46.553  58.662  1.00  0.00     0.043 A 
HETATM   32  C17 UNL     1       4.168  47.158  58.540  1.00  0.00     0.076 A 
HETATM   33 CL1  UNL     1       3.721  48.579  57.579  1.00  0.00    -0.076 Cl
HETATM   34  S2  UNL     1       3.160  46.223  59.534  1.00  0.00    -0.065 SA
HETATM   35  C18 UNL     1       4.285  45.089  60.083  1.00  0.00     0.085 A 
HETATM   36 CL2  UNL     1       3.913  43.735  61.130  1.00  0.00    -0.076 Cl
ENDBRANCH   1  30
TORSDOF 8
ENDMDL
MODEL 4
REMARK VINA RESULT: -7.545704602      1.139      1.541
REMARK  8 active torsions:
REMARK  status: ('A' for Active; 'I' for Inactive)
REMARK    1  A    between atoms: N2_5  and  C4_6 
REMARK    2  A    between atoms: C4_6  and  C5_7 
REMARK       I    between atoms: C5_7  and  N3_9 
REMARK    3  A    between atoms: N3_9  and  C6_11 
REMARK    4  A    between atoms: C6_11  and  C8_13 
REMARK    5  A    between atoms: C6_11  and  C15_28 
REMARK       I    between atoms: C8_13  and  N4_15 
REMARK    6  A    between atoms: N4_15  and  C9_17 
REMARK    7  A    between atoms: C12_22  and  S1_23 
REMARK    8  A    between atoms: S1_23  and  C13_24 
ROOT
HETATM    1  C6  UNL     1       4.533  40.142  62.109  1.00  0.00     0.140 C 
HETATM    2  C7  UNL     1       3.491  41.057  61.611  1.00  0.00     0.054 C 
ENDROOT
BRANCH   1   3
HETATM    3  N3  UNL     1       5.317  40.840  63.122  1.00  0.00    -0.338 N 
HETATM    4  C5  UNL     1       4.978  42.233  63.319  1.00  0.00     0.247 C 
HETATM    5  O1  UNL     1       4.070  42.787  62.657  1.00  0.00    -0.272 OA
ATOM      6  H3  UNL     1       6.053  40.377  63.655  1.00  0.00     0.164 HD
BRANCH   4   7
HETATM    7  C4  UNL     1       5.713  43.038  64.324  1.00  0.00     0.374 C 
BRANCH   7   8
HETATM    8  N2  UNL     1       6.463  44.062  63.638  1.00  0.00     0.100 N 
HETATM    9  C3  UNL     1       7.490  43.484  62.829  1.00  0.00     0.303 C 
HETATM   10  C2  UNL     1       8.809  44.203  63.028  1.00  0.00     0.302 C 
HETATM   11  N1  UNL     1       9.201  44.087  64.399  1.00  0.00     0.087 N 
HETATM   12  C1  UNL     1      10.301  44.993  64.650  1.00  0.00     0.310 C 
HETATM   13  C20 UNL     1       8.118  44.350  65.330  1.00  0.00     0.302 C 
HETATM   14  C19 UNL     1       6.971  44.998  64.621  1.00  0.00     0.303 C 
ENDBRANCH   7   8
ENDBRANCH   4   7
ENDBRANCH   1   3
BRANCH   1  15
HETATM   15  C8  UNL     1       5.502  39.955  60.957  1.00  0.00     0.251 C 
HETATM   16  O2  UNL     1       6.718  39.842  61.323  1.00  0.00    -0.270 OA
HETATM   17  N4  UNL     1       5.239  39.890  59.607  1.00  0.00    -0.354 N 
ATOM     18  H4  UNL     1       4.272  39.965  59.292  1.00  0.00     0.163 HD
BRANCH  17  19
HETATM   19  C9  UNL     1       6.300  39.715  58.599  1.00  0.00     0.092 C 
HETATM   20  C10 UNL     1       6.057  40.557  57.397  1.00  0.00     0.045 C 
HETATM   21  C11 UNL     1       5.700  39.789  56.145  1.00  0.00     0.122 C 
HETATM   22  N5  UNL     1       6.750  38.818  55.886  1.00  0.00    -0.388 N 
HETATM   23  C12 UNL     1       7.264  38.157  57.027  1.00  0.00     0.049 C 
ATOM     24  H5  UNL     1       7.094  38.627  54.945  1.00  0.00     0.159 HD
HETATM   25  C14 UNL     1       6.499  38.254  58.282  1.00  0.00     0.089 C 
BRANCH  23  26
HETATM   26  S1  UNL     1       8.646  37.308  56.997  1.00  0.00    -0.048 SA
BRANCH  26  27
HETATM   27  C13 UNL     1       9.833  37.401  58.402  1.00  0.00     0.421 C 
HETATM   28  F1  UNL     1      10.190  38.718  58.637  1.00  0.00    -0.202 F 
HETATM   29  F2  UNL     1      10.934  36.660  58.049  1.00  0.00    -0.202 F 
ENDBRANCH  26  27
ENDBRANCH  23  26
ENDBRANCH  17  19
ENDBRANCH   1  15
BRANCH   1  30
HETATM   30  C15 UNL     1       4.050  38.843  62.650  1.00  0.00     0.010 A 
HETATM   31  C16 UNL     1       4.353  37.654  62.066  1.00  0.00     0.043 A 
HETATM   32  C17 UNL     1       3.799  36.527  62.600  1.00  0.00     0.076 A 
HETATM   33 CL1  UNL     1       3.986  34.840  62.087  1.00  0.00    -0.076 Cl
HETATM   34  S2  UNL     1       2.872  37.116  63.892  1.00  0.00    -0.065 SA
HETATM   35  C18 UNL     1       3.199  38.767  63.740  1.00  0.00     0.085 A 
HETATM   36 CL2  UNL     1       2.606  40.009  64.821  1.00  0.00    -0.076 Cl
ENDBRANCH   1  30
TORSDOF 8
ENDMDL
MODEL 5
REMARK VINA RESULT: -7.413167717      1.305      1.608
REMARK  8 active torsions:
REMARK  status: ('A' for Active; 'I' for Inactive)
REMARK    1  A    between atoms: N2_5  and  C4_6 
REMARK    2  A    between atoms: C4_6  and  C5_7 
REMARK       I    between atoms: C5_7  and  N3_9 
REMARK    3  A    between atoms: N3_9  and  C6_11 
REMARK    4  A    between atoms: C6_11  and  C8_13 
REMARK    5  A    between atoms: C6_11  and  C15_28 
REMARK       I    between atoms: C8_13  and  N4_15 
REMARK    6  A    between atoms: N4_15  and  C9_17 
REMARK    7  A    between atoms: C12_22  and  S1_23 
REMARK    8  A    between atoms: S1_23  and  C13_24 
ROOT
HETATM    1  C6  UNL     1       5.135  41.057  61.111  1.00  0.00     0.140 C 
HETATM    2  C7  UNL     1       4.436  42.260  60.627  1.00  0.00     0.054 C 
ENDROOT
BRANCH   1   3
HETATM    3  N3  UNL     1       6.096  41.458  62.131  1.00  0.00    -0.338 N 
HETATM    4  C5  UNL     1       5.623  42.447  63.076  1.00  0.00     0.247 C 
HETATM    5  O1  UNL     1       4.463  42.916  63.009  1.00  0.00    -0.272 OA
ATOM      6  H3  UNL     1       7.037  41.068  62.175  1.00  0.00     0.164 HD
BRANCH   4   7
HETATM    7  C4  UNL     1       6.519  42.927  64.155  1.00  0.00     0.374 C 
BRANCH   7   8
HETATM    8  N2  UNL     1       7.121  44.170  63.738  1.00  0.00     0.100 N 
HETATM    9  C3  UNL     1       8.244  43.931  62.886  1.00  0.00     0.303 C 
HETATM   10  C2  UNL     1       9.432  44.775  63.303  1.00  0.00     0.302 C 
HETATM   11  N1  UNL     1       9.803  44.429  64.641  1.00  0.00     0.087 N 
HETATM   12  C1  UNL     1      10.744  45.410  65.135  1.00  0.00     0.310 C 
HETATM   13  C20 UNL     1       8.669  44.329  65.544  1.00  0.00     0.302 C 
HETATM   14  C19 UNL     1       7.455  44.940  64.920  1.00  0.00     0.303 C 
ENDBRANCH   7   8
ENDBRANCH   4   7
ENDBRANCH   1   3
BRANCH   1  15
HETATM   15  C8  UNL     1       5.998  40.589  59.954  1.00  0.00     0.251 C 
HETATM   16  O2  UNL     1       7.241  40.819  60.116  1.00  0.00    -0.270 OA
HETATM   17  N4  UNL     1       5.617  39.961  58.789  1.00  0.00    -0.354 N 
ATOM     18  H4  UNL     1       4.629  39.754  58.644  1.00  0.00     0.163 HD
BRANCH  17  19
HETATM   19  C9  UNL     1       6.582  39.575  57.745  1.00  0.00     0.092 C 
HETATM   20  C10 UNL     1       6.069  39.886  56.384  1.00  0.00     0.045 C 
HETATM   21  C11 UNL     1       5.727  38.679  55.541  1.00  0.00     0.122 C 
HETATM   22  N5  UNL     1       6.902  37.826  55.462  1.00  0.00    -0.388 N 
HETATM   23  C12 UNL     1       7.641  37.694  56.662  1.00  0.00     0.049 C 
ATOM     24  H5  UNL     1       7.174  37.354  54.599  1.00  0.00     0.159 HD
HETATM   25  C14 UNL     1       7.005  38.136  57.914  1.00  0.00     0.089 C 
BRANCH  23  26
HETATM   26  S1  UNL     1       9.141  37.080  56.700  1.00  0.00    -0.048 SA
BRANCH  26  27
HETATM   27  C13 UNL     1      10.191  37.266  58.202  1.00  0.00     0.421 C 
HETATM   28  F1  UNL     1      10.210  38.588  58.609  1.00  0.00    -0.202 F 
HETATM   29  F2  UNL     1      11.456  36.849  57.863  1.00  0.00    -0.202 F 
ENDBRANCH  26  27
ENDBRANCH  23  26
ENDBRANCH  17  19
ENDBRANCH   1  15
BRANCH   1  30
HETATM   30  C15 UNL     1       4.264  39.971  61.636  1.00  0.00     0.010 A 
HETATM   31  C16 UNL     1       4.763  38.775  62.049  1.00  0.00     0.043 A 
HETATM   32  C17 UNL     1       3.871  37.821  62.445  1.00  0.00     0.076 A 
HETATM   33 CL1  UNL     1       4.184  36.178  63.034  1.00  0.00    -0.076 Cl
HETATM   34  S2  UNL     1       2.367  38.577  62.244  1.00  0.00    -0.065 SA
HETATM   35  C18 UNL     1       2.885  40.078  61.668  1.00  0.00     0.085 A 
HETATM   36 CL2  UNL     1       1.831  41.428  61.300  1.00  0.00    -0.076 Cl
ENDBRANCH   1  30
TORSDOF 8
ENDMDL
