MODEL 1
REMARK VINA RESULT: -6.223766958      0.000      0.000
REMARK  7 active torsions:
REMARK  status: ('A' for Active; 'I' for Inactive)
REMARK    1  A    between atoms: C2_2  and  N1_3 
REMARK    2  A    between atoms: C3_4  and  C4_5 
REMARK    3  A    between atoms: C4_5  and  O2_7 
REMARK    4  A    between atoms: O2_7  and  C5_8 
REMARK    5  A    between atoms: C6_10  and  O3_11 
REMARK    6  A    between atoms: N2_13  and  C7_14 
REMARK    7  A    between atoms: C7_14  and  N3_15 
ROOT
HETATM    1  N1  UNL     1      -4.462   1.620  12.974  1.00  0.00    -0.315 N 
HETATM    2  C3  UNL     1      -4.465   1.702  14.314  1.00  0.00     0.164 A 
HETATM    3  C6  UNL     1      -4.224   3.057  14.577  1.00  0.00     0.183 A 
HETATM    4  N2  UNL     1      -4.088   3.725  13.420  1.00  0.00    -0.267 N 
HETATM    5  C12 UNL     1      -4.238   2.816  12.410  1.00  0.00     0.188 A 
HETATM    6  S1  UNL     1      -4.146   3.220  10.828  1.00  0.00    -0.040 SA
ENDROOT
BRANCH   4   7
HETATM    7  C7  UNL     1      -3.821   5.136  13.244  1.00  0.00     0.164 C 
BRANCH   7   8
HETATM    8  N3  UNL     1      -2.705   5.660  13.920  1.00  0.00    -0.275 NA
HETATM    9  C8  UNL     1      -1.434   5.220  13.357  1.00  0.00     0.122 C 
HETATM   10  C9  UNL     1      -0.918   6.217  12.341  1.00  0.00     0.182 C 
HETATM   11  O4  UNL     1      -0.843   7.469  12.905  1.00  0.00    -0.389 OA
HETATM   12  C10 UNL     1      -2.164   7.912  13.129  1.00  0.00     0.182 C 
HETATM   13  C11 UNL     1      -2.719   7.035  14.238  1.00  0.00     0.122 C 
ENDBRANCH   7   8
ENDBRANCH   4   7
BRANCH   3  14
HETATM   14  O3  UNL     1      -4.156   3.537  15.882  1.00  0.00    -0.344 OA
ATOM     15  H3  UNL     1      -3.327   3.793  16.270  1.00  0.00     0.219 HD
ENDBRANCH   3  14
BRANCH   2  16
HETATM   16  C4  UNL     1      -4.670   0.652  15.304  1.00  0.00     0.315 C 
HETATM   17  O1  UNL     1      -3.754  -0.146  15.592  1.00  0.00    -0.257 OA
BRANCH  16  18
HETATM   18  O2  UNL     1      -5.883   0.524  15.944  1.00  0.00    -0.301 OA
BRANCH  18  19
HETATM   19  C5  UNL     1      -5.998   0.557  17.362  1.00  0.00     0.293 C 
HETATM   20 CL1  UNL     1      -6.661   2.153  17.789  1.00  0.00    -0.101 Cl
ENDBRANCH  18  19
ENDBRANCH  16  18
ENDBRANCH   2  16
BRANCH   1  21
HETATM   21  C2  UNL     1      -4.666   0.416  12.196  1.00  0.00     0.127 C 
HETATM   22  C1  UNL     1      -3.385  -0.264  11.813  1.00  0.00     0.027 C 
ENDBRANCH   1  21
TORSDOF 7
ENDMDL
MODEL 2
REMARK VINA RESULT: -6.210646474      3.092      5.870
REMARK  7 active torsions:
REMARK  status: ('A' for Active; 'I' for Inactive)
REMARK    1  A    between atoms: C2_2  and  N1_3 
REMARK    2  A    between atoms: C3_4  and  C4_5 
REMARK    3  A    between atoms: C4_5  and  O2_7 
REMARK    4  A    between atoms: O2_7  and  C5_8 
REMARK    5  A    between atoms: C6_10  and  O3_11 
REMARK    6  A    between atoms: N2_13  and  C7_14 
REMARK    7  A    between atoms: C7_14  and  N3_15 
ROOT
HETATM    1  N1  UNL     1      -3.067   3.805  12.970  1.00  0.00    -0.315 N 
HETATM    2  C3  UNL     1      -3.406   2.624  12.429  1.00  0.00     0.164 A 
HETATM    3  C6  UNL     1      -4.577   2.259  13.107  1.00  0.00     0.183 A 
HETATM    4  N2  UNL     1      -4.893   3.204  14.007  1.00  0.00    -0.267 N 
HETATM    5  C12 UNL     1      -3.939   4.180  13.918  1.00  0.00     0.188 A 
HETATM    6  S1  UNL     1      -3.951   5.525  14.848  1.00  0.00    -0.040 SA
ENDROOT
BRANCH   4   7
HETATM    7  C7  UNL     1      -6.017   3.214  14.918  1.00  0.00     0.164 C 
BRANCH   7   8
HETATM    8  N3  UNL     1      -5.769   2.782  16.233  1.00  0.00    -0.275 NA
HETATM    9  C8  UNL     1      -6.987   2.502  16.985  1.00  0.00     0.122 C 
HETATM   10  C9  UNL     1      -7.359   1.038  16.887  1.00  0.00     0.182 C 
HETATM   11  O4  UNL     1      -6.299   0.255  17.283  1.00  0.00    -0.389 OA
HETATM   12  C10 UNL     1      -5.290   0.383  16.306  1.00  0.00     0.182 C 
HETATM   13  C11 UNL     1      -4.769   1.806  16.424  1.00  0.00     0.122 C 
ENDBRANCH   7   8
ENDBRANCH   4   7
BRANCH   3  14
HETATM   14  O3  UNL     1      -5.238   1.069  12.814  1.00  0.00    -0.344 OA
ATOM     15  H3  UNL     1      -6.168   1.057  12.620  1.00  0.00     0.219 HD
ENDBRANCH   3  14
BRANCH   2  16
HETATM   16  C4  UNL     1      -2.743   1.863  11.378  1.00  0.00     0.315 C 
HETATM   17  O1  UNL     1      -2.390   2.411  10.314  1.00  0.00    -0.257 OA
BRANCH  16  18
HETATM   18  O2  UNL     1      -2.492   0.519  11.544  1.00  0.00    -0.301 OA
BRANCH  18  19
HETATM   19  C5  UNL     1      -2.974  -0.459  10.628  1.00  0.00     0.293 C 
HETATM   20 CL1  UNL     1      -2.912  -2.027  11.469  1.00  0.00    -0.101 Cl
ENDBRANCH  18  19
ENDBRANCH  16  18
ENDBRANCH   2  16
BRANCH   1  21
HETATM   21  C2  UNL     1      -1.916   4.605  12.608  1.00  0.00     0.127 C 
HETATM   22  C1  UNL     1      -2.217   5.630  11.554  1.00  0.00     0.027 C 
ENDBRANCH   1  21
TORSDOF 7
ENDMDL
MODEL 3
REMARK VINA RESULT: -6.174939331      3.645      5.713
REMARK  7 active torsions:
REMARK  status: ('A' for Active; 'I' for Inactive)
REMARK    1  A    between atoms: C2_2  and  N1_3 
REMARK    2  A    between atoms: C3_4  and  C4_5 
REMARK    3  A    between atoms: C4_5  and  O2_7 
REMARK    4  A    between atoms: O2_7  and  C5_8 
REMARK    5  A    between atoms: C6_10  and  O3_11 
REMARK    6  A    between atoms: N2_13  and  C7_14 
REMARK    7  A    between atoms: C7_14  and  N3_15 
ROOT
HETATM    1  N1  UNL     1      -4.222   2.751  11.896  1.00  0.00    -0.315 N 
HETATM    2  C3  UNL     1      -4.278   1.410  11.859  1.00  0.00     0.164 A 
HETATM    3  C6  UNL     1      -4.469   1.037  13.196  1.00  0.00     0.183 A 
HETATM    4  N2  UNL     1      -4.519   2.133  13.970  1.00  0.00    -0.267 N 
HETATM    5  C12 UNL     1      -4.363   3.214  13.147  1.00  0.00     0.188 A 
HETATM    6  S1  UNL     1      -4.365   4.756  13.692  1.00  0.00    -0.040 SA
ENDROOT
BRANCH   4   7
HETATM    7  C7  UNL     1      -4.693   2.192  15.405  1.00  0.00     0.164 C 
BRANCH   7   8
HETATM    8  N3  UNL     1      -5.917   1.722  15.915  1.00  0.00    -0.275 NA
HETATM    9  C8  UNL     1      -5.756   0.784  17.020  1.00  0.00     0.122 C 
HETATM   10  C9  UNL     1      -5.813   1.501  18.352  1.00  0.00     0.182 C 
HETATM   11  O4  UNL     1      -6.972   2.235  18.443  1.00  0.00    -0.389 OA
HETATM   12  C10 UNL     1      -6.874   3.300  17.523  1.00  0.00     0.182 C 
HETATM   13  C11 UNL     1      -6.938   2.669  16.142  1.00  0.00     0.122 C 
ENDBRANCH   7   8
ENDBRANCH   4   7
BRANCH   3  14
HETATM   14  O3  UNL     1      -4.578  -0.302  13.562  1.00  0.00    -0.344 OA
ATOM     15  H3  UNL     1      -4.571  -0.993  12.910  1.00  0.00     0.219 HD
ENDBRANCH   3  14
BRANCH   2  16
HETATM   16  C4  UNL     1      -4.173   0.511  10.717  1.00  0.00     0.315 C 
HETATM   17  O1  UNL     1      -5.193   0.067  10.153  1.00  0.00    -0.257 OA
BRANCH  16  18
HETATM   18  O2  UNL     1      -2.937   0.135  10.238  1.00  0.00    -0.301 OA
BRANCH  18  19
HETATM   19  C5  UNL     1      -2.034  -0.650  11.009  1.00  0.00     0.293 C 
HETATM   20 CL1  UNL     1      -2.853  -2.195  11.348  1.00  0.00    -0.101 Cl
ENDBRANCH  18  19
ENDBRANCH  16  18
ENDBRANCH   2  16
BRANCH   1  21
HETATM   21  C2  UNL     1      -4.032   3.625  10.757  1.00  0.00     0.127 C 
HETATM   22  C1  UNL     1      -2.587   3.872  10.437  1.00  0.00     0.027 C 
ENDBRANCH   1  21
TORSDOF 7
ENDMDL
MODEL 4
REMARK VINA RESULT: -6.135148069      3.178      5.883
REMARK  7 active torsions:
REMARK  status: ('A' for Active; 'I' for Inactive)
REMARK    1  A    between atoms: C2_2  and  N1_3 
REMARK    2  A    between atoms: C3_4  and  C4_5 
REMARK    3  A    between atoms: C4_5  and  O2_7 
REMARK    4  A    between atoms: O2_7  and  C5_8 
REMARK    5  A    between atoms: C6_10  and  O3_11 
REMARK    6  A    between atoms: N2_13  and  C7_14 
REMARK    7  A    between atoms: C7_14  and  N3_15 
ROOT
HETATM    1  N1  UNL     1      -3.538   4.317  12.662  1.00  0.00    -0.315 N 
HETATM    2  C3  UNL     1      -3.971   3.188  12.079  1.00  0.00     0.164 A 
HETATM    3  C6  UNL     1      -4.897   2.663  12.990  1.00  0.00     0.183 A 
HETATM    4  N2  UNL     1      -4.987   3.470  14.060  1.00  0.00    -0.267 N 
HETATM    5  C12 UNL     1      -4.128   4.513  13.850  1.00  0.00     0.188 A 
HETATM    6  S1  UNL     1      -3.931   5.733  14.921  1.00  0.00    -0.040 SA
ENDROOT
BRANCH   4   7
HETATM    7  C7  UNL     1      -5.817   3.292  15.231  1.00  0.00     0.164 C 
BRANCH   7   8
HETATM    8  N3  UNL     1      -5.221   2.665  16.341  1.00  0.00    -0.275 NA
HETATM    9  C8  UNL     1      -6.191   2.174  17.312  1.00  0.00     0.122 C 
HETATM   10  C9  UNL     1      -6.534   0.723  17.049  1.00  0.00     0.182 C 
HETATM   11  O4  UNL     1      -5.387  -0.034  17.015  1.00  0.00    -0.389 OA
HETATM   12  C10 UNL     1      -4.673   0.329  15.854  1.00  0.00     0.182 C 
HETATM   13  C11 UNL     1      -4.179   1.747  16.091  1.00  0.00     0.122 C 
ENDBRANCH   7   8
ENDBRANCH   4   7
BRANCH   3  14
HETATM   14  O3  UNL     1      -5.572   1.473  12.728  1.00  0.00    -0.344 OA
ATOM     15  H3  UNL     1      -5.737   0.840  13.416  1.00  0.00     0.219 HD
ENDBRANCH   3  14
BRANCH   2  16
HETATM   16  C4  UNL     1      -3.596   2.606  10.796  1.00  0.00     0.315 C 
HETATM   17  O1  UNL     1      -4.465   2.216   9.990  1.00  0.00    -0.257 OA
BRANCH  16  18
HETATM   18  O2  UNL     1      -2.269   2.478  10.451  1.00  0.00    -0.301 OA
BRANCH  18  19
HETATM   19  C5  UNL     1      -1.415   1.524  11.072  1.00  0.00     0.293 C 
HETATM   20 CL1  UNL     1      -2.306  -0.017  11.114  1.00  0.00    -0.101 Cl
ENDBRANCH  18  19
ENDBRANCH  16  18
ENDBRANCH   2  16
BRANCH   1  21
HETATM   21  C2  UNL     1      -2.559   5.233  12.116  1.00  0.00     0.127 C 
HETATM   22  C1  UNL     1      -1.159   4.945  12.577  1.00  0.00     0.027 C 
ENDBRANCH   1  21
TORSDOF 7
ENDMDL
MODEL 5
REMARK VINA RESULT: -6.070084614      2.425      3.340
REMARK  7 active torsions:
REMARK  status: ('A' for Active; 'I' for Inactive)
REMARK    1  A    between atoms: C2_2  and  N1_3 
REMARK    2  A    between atoms: C3_4  and  C4_5 
REMARK    3  A    between atoms: C4_5  and  O2_7 
REMARK    4  A    between atoms: O2_7  and  C5_8 
REMARK    5  A    between atoms: C6_10  and  O3_11 
REMARK    6  A    between atoms: N2_13  and  C7_14 
REMARK    7  A    between atoms: C7_14  and  N3_15 
ROOT
HETATM    1  N1  UNL     1      -5.717   2.617  15.508  1.00  0.00    -0.315 N 
HETATM    2  C3  UNL     1      -4.754   1.949  14.854  1.00  0.00     0.164 A 
HETATM    3  C6  UNL     1      -4.157   2.917  14.036  1.00  0.00     0.183 A 
HETATM    4  N2  UNL     1      -4.763   4.101  14.219  1.00  0.00    -0.267 N 
HETATM    5  C12 UNL     1      -5.748   3.909  15.149  1.00  0.00     0.188 A 
HETATM    6  S1  UNL     1      -6.732   5.110  15.663  1.00  0.00    -0.040 SA
ENDROOT
BRANCH   4   7
HETATM    7  C7  UNL     1      -4.463   5.356  13.565  1.00  0.00     0.164 C 
BRANCH   7   8
HETATM    8  N3  UNL     1      -3.119   5.586  13.221  1.00  0.00    -0.275 NA
HETATM    9  C8  UNL     1      -2.963   6.328  11.976  1.00  0.00     0.122 C 
HETATM   10  C9  UNL     1      -2.843   7.814  12.243  1.00  0.00     0.182 C 
HETATM   11  O4  UNL     1      -1.822   8.052  13.133  1.00  0.00    -0.389 OA
HETATM   12  C10 UNL     1      -2.226   7.545  14.386  1.00  0.00     0.182 C 
HETATM   13  C11 UNL     1      -2.250   6.033  14.240  1.00  0.00     0.122 C 
ENDBRANCH   7   8
ENDBRANCH   4   7
BRANCH   3  14
HETATM   14  O3  UNL     1      -3.096   2.595  13.194  1.00  0.00    -0.344 OA
ATOM     15  H3  UNL     1      -3.246   2.290  12.307  1.00  0.00     0.219 HD
ENDBRANCH   3  14
BRANCH   2  16
HETATM   16  C4  UNL     1      -4.378   0.543  14.945  1.00  0.00     0.315 C 
HETATM   17  O1  UNL     1      -3.691   0.123  15.898  1.00  0.00    -0.257 OA
BRANCH  16  18
HETATM   18  O2  UNL     1      -4.780  -0.349  13.975  1.00  0.00    -0.301 OA
BRANCH  18  19
HETATM   19  C5  UNL     1      -4.019  -0.575  12.794  1.00  0.00     0.293 C 
HETATM   20 CL1  UNL     1      -4.828   0.315  11.481  1.00  0.00    -0.101 Cl
ENDBRANCH  18  19
ENDBRANCH  16  18
ENDBRANCH   2  16
BRANCH   1  21
HETATM   21  C2  UNL     1      -6.630   2.056  16.481  1.00  0.00     0.127 C 
HETATM   22  C1  UNL     1      -6.038   1.957  17.857  1.00  0.00     0.027 C 
ENDBRANCH   1  21
TORSDOF 7
ENDMDL
