MODEL 1
REMARK VINA RESULT: -6.738708791      0.000      0.000
REMARK  5 active torsions:
REMARK  status: ('A' for Active; 'I' for Inactive)
REMARK    1  A    between atoms: S1_2  and  C2_3 
REMARK    2  A    between atoms: C6_8  and  C7_9 
REMARK    3  A    between atoms: N1_10  and  C8_12 
REMARK    4  A    between atoms: C8_12  and  C9_14 
REMARK    5  A    between atoms: C11_19  and  O4_20 
ROOT
HETATM    1  C7  UNL     1      -2.511   3.802  13.953  1.00  0.00     0.119 C 
HETATM    2  N1  UNL     1      -2.257   3.422  12.682  1.00  0.00    -0.352 N 
ATOM      3  H1  UNL     1      -1.259   3.474  12.478  1.00  0.00     0.166 HD
ENDROOT
BRANCH   2   4
HETATM    4  C8  UNL     1      -2.986   2.971  11.550  1.00  0.00     0.140 C 
HETATM    5  S2  UNL     1      -3.603   3.924  10.486  1.00  0.00    -0.057 SA
BRANCH   4   6
HETATM    6  C9  UNL     1      -3.206   1.510  11.527  1.00  0.00     0.177 A 
HETATM    7  O1  UNL     1      -2.588   0.450  11.207  1.00  0.00    -0.247 OA
HETATM    8  C10 UNL     1      -3.325  -0.630  11.447  1.00  0.00     0.419 A 
HETATM    9  O2  UNL     1      -3.062  -1.845  11.281  1.00  0.00    -0.229 OA
HETATM   10  O3  UNL     1      -4.497  -0.225  11.935  1.00  0.00    -0.228 OA
HETATM   11  C11 UNL     1      -4.470   1.076  12.001  1.00  0.00     0.226 A 
BRANCH  11  12
HETATM   12  O4  UNL     1      -5.475   1.899  12.435  1.00  0.00    -0.338 OA
ATOM     13  H4  UNL     1      -6.386   1.647  12.529  1.00  0.00     0.220 HD
ENDBRANCH  11  12
ENDBRANCH   4   6
ENDBRANCH   2   4
BRANCH   1  14
HETATM   14  C6  UNL     1      -3.714   3.873  14.801  1.00  0.00     0.059 A 
HETATM   15  C4  UNL     1      -4.577   4.969  14.543  1.00  0.00     0.008 A 
HETATM   16  C3  UNL     1      -5.747   4.688  15.130  1.00  0.00     0.158 A 
HETATM   17  C5  UNL     1      -4.086   6.186  13.838  1.00  0.00     0.054 C 
HETATM   18  C2  UNL     1      -5.645   3.478  15.725  1.00  0.00     0.111 A 
HETATM   19  F1  UNL     1      -6.884   5.513  15.108  1.00  0.00    -0.203 F 
HETATM   20  N2  UNL     1      -4.378   2.980  15.515  1.00  0.00    -0.342 N 
HETATM   21  C12 UNL     1      -3.875   1.687  15.959  1.00  0.00     0.157 C 
BRANCH  18  22
HETATM   22  S1  UNL     1      -6.945   2.587  16.517  1.00  0.00    -0.114 SA
HETATM   23  C1  UNL     1      -6.434   2.151  18.217  1.00  0.00     0.097 C 
ENDBRANCH  18  22
ENDBRANCH   1  14
TORSDOF 5
ENDMDL
MODEL 2
REMARK VINA RESULT: -6.728920049      3.565      6.187
REMARK  5 active torsions:
REMARK  status: ('A' for Active; 'I' for Inactive)
REMARK    1  A    between atoms: S1_2  and  C2_3 
REMARK    2  A    between atoms: C6_8  and  C7_9 
REMARK    3  A    between atoms: N1_10  and  C8_12 
REMARK    4  A    between atoms: C8_12  and  C9_14 
REMARK    5  A    between atoms: C11_19  and  O4_20 
ROOT
HETATM    1  C7  UNL     1      -3.889   2.472  12.144  1.00  0.00     0.119 C 
HETATM    2  N1  UNL     1      -4.598   2.327  13.284  1.00  0.00    -0.352 N 
ATOM      3  H1  UNL     1      -5.440   1.774  13.122  1.00  0.00     0.166 HD
ENDROOT
BRANCH   2   4
HETATM    4  C8  UNL     1      -4.504   2.727  14.643  1.00  0.00     0.140 C 
HETATM    5  S2  UNL     1      -3.503   3.799  15.160  1.00  0.00    -0.057 SA
BRANCH   4   6
HETATM    6  C9  UNL     1      -5.370   1.949  15.553  1.00  0.00     0.177 A 
HETATM    7  O1  UNL     1      -6.502   2.044  16.118  1.00  0.00    -0.247 OA
HETATM    8  C10 UNL     1      -6.776   0.960  16.837  1.00  0.00     0.419 A 
HETATM    9  O2  UNL     1      -7.788   0.674  17.520  1.00  0.00    -0.229 OA
HETATM   10  O3  UNL     1      -5.739   0.130  16.735  1.00  0.00    -0.228 OA
HETATM   11  C11 UNL     1      -4.855   0.693  15.960  1.00  0.00     0.226 A 
BRANCH  11  12
HETATM   12  O4  UNL     1      -3.635   0.186  15.601  1.00  0.00    -0.338 OA
ATOM     13  H4  UNL     1      -3.029  -0.250  16.187  1.00  0.00     0.220 HD
ENDBRANCH  11  12
ENDBRANCH   4   6
ENDBRANCH   2   4
BRANCH   1  14
HETATM   14  C6  UNL     1      -2.603   3.097  11.787  1.00  0.00     0.059 A 
HETATM   15  C4  UNL     1      -1.686   2.259  11.102  1.00  0.00     0.008 A 
HETATM   16  C3  UNL     1      -0.759   3.059  10.560  1.00  0.00     0.158 A 
HETATM   17  C5  UNL     1      -1.802   0.775  11.169  1.00  0.00     0.054 C 
HETATM   18  C2  UNL     1      -1.065   4.338  10.872  1.00  0.00     0.111 A 
HETATM   19  F1  UNL     1       0.332   2.628   9.788  1.00  0.00    -0.203 F 
HETATM   20  N2  UNL     1      -2.213   4.351  11.635  1.00  0.00    -0.342 N 
HETATM   21  C12 UNL     1      -2.897   5.533  12.143  1.00  0.00     0.157 C 
BRANCH  18  22
HETATM   22  S1  UNL     1      -0.242   5.785  10.290  1.00  0.00    -0.114 SA
HETATM   23  C1  UNL     1       0.951   6.354  11.553  1.00  0.00     0.097 C 
ENDBRANCH  18  22
ENDBRANCH   1  14
TORSDOF 5
ENDMDL
MODEL 3
REMARK VINA RESULT: -6.726719267      2.281      3.076
REMARK  5 active torsions:
REMARK  status: ('A' for Active; 'I' for Inactive)
REMARK    1  A    between atoms: S1_2  and  C2_3 
REMARK    2  A    between atoms: C6_8  and  C7_9 
REMARK    3  A    between atoms: N1_10  and  C8_12 
REMARK    4  A    between atoms: C8_12  and  C9_14 
REMARK    5  A    between atoms: C11_19  and  O4_20 
ROOT
HETATM    1  C7  UNL     1      -4.856   2.769  12.823  1.00  0.00     0.119 C 
HETATM    2  N1  UNL     1      -3.833   3.183  12.044  1.00  0.00    -0.352 N 
ATOM      3  H1  UNL     1      -4.084   3.137  11.056  1.00  0.00     0.166 HD
ENDROOT
BRANCH   2   4
HETATM    4  C8  UNL     1      -2.507   3.664  12.211  1.00  0.00     0.140 C 
HETATM    5  S2  UNL     1      -2.062   4.577  13.389  1.00  0.00    -0.057 SA
BRANCH   4   6
HETATM    6  C9  UNL     1      -1.602   3.312  11.097  1.00  0.00     0.177 A 
HETATM    7  O1  UNL     1      -0.884   3.887  10.224  1.00  0.00    -0.247 OA
HETATM    8  C10 UNL     1      -0.238   3.002   9.471  1.00  0.00     0.419 A 
HETATM    9  O2  UNL     1       0.567   3.176   8.524  1.00  0.00    -0.229 OA
HETATM   10  O3  UNL     1      -0.583   1.784   9.885  1.00  0.00    -0.228 OA
HETATM   11  C11 UNL     1      -1.416   1.924  10.877  1.00  0.00     0.226 A 
BRANCH  11  12
HETATM   12  O4  UNL     1      -2.025   0.924  11.587  1.00  0.00    -0.338 OA
ATOM     13  H4  UNL     1      -2.076   0.015  11.318  1.00  0.00     0.220 HD
ENDBRANCH  11  12
ENDBRANCH   4   6
ENDBRANCH   2   4
BRANCH   1  14
HETATM   14  C6  UNL     1      -5.090   2.675  14.275  1.00  0.00     0.059 A 
HETATM   15  C4  UNL     1      -5.830   3.743  14.844  1.00  0.00     0.008 A 
HETATM   16  C3  UNL     1      -6.242   3.330  16.050  1.00  0.00     0.158 A 
HETATM   17  C5  UNL     1      -5.936   5.059  14.155  1.00  0.00     0.054 C 
HETATM   18  C2  UNL     1      -5.798   2.067  16.242  1.00  0.00     0.111 A 
HETATM   19  F1  UNL     1      -7.016   4.087  16.944  1.00  0.00    -0.203 F 
HETATM   20  N2  UNL     1      -5.083   1.669  15.133  1.00  0.00    -0.342 N 
HETATM   21  C12 UNL     1      -4.471   0.364  14.925  1.00  0.00     0.157 C 
BRANCH  18  22
HETATM   22  S1  UNL     1      -6.181   1.019  17.607  1.00  0.00    -0.114 SA
HETATM   23  C1  UNL     1      -6.288   2.022  19.132  1.00  0.00     0.097 C 
ENDBRANCH  18  22
ENDBRANCH   1  14
TORSDOF 5
ENDMDL
MODEL 4
REMARK VINA RESULT: -6.710049836      3.052      5.437
REMARK  5 active torsions:
REMARK  status: ('A' for Active; 'I' for Inactive)
REMARK    1  A    between atoms: S1_2  and  C2_3 
REMARK    2  A    between atoms: C6_8  and  C7_9 
REMARK    3  A    between atoms: N1_10  and  C8_12 
REMARK    4  A    between atoms: C8_12  and  C9_14 
REMARK    5  A    between atoms: C11_19  and  O4_20 
ROOT
HETATM    1  C7  UNL     1      -2.269   4.323  14.463  1.00  0.00     0.119 C 
HETATM    2  N1  UNL     1      -3.185   3.758  15.279  1.00  0.00    -0.352 N 
ATOM      3  H1  UNL     1      -2.745   3.386  16.121  1.00  0.00     0.166 HD
ENDROOT
BRANCH   2   4
HETATM    4  C8  UNL     1      -4.588   3.534  15.296  1.00  0.00     0.140 C 
HETATM    5  S2  UNL     1      -5.638   4.608  14.893  1.00  0.00    -0.057 SA
BRANCH   4   6
HETATM    6  C9  UNL     1      -4.974   2.216  15.842  1.00  0.00     0.177 A 
HETATM    7  O1  UNL     1      -5.539   1.729  16.867  1.00  0.00    -0.247 OA
HETATM    8  C10 UNL     1      -5.637   0.405  16.782  1.00  0.00     0.419 A 
HETATM    9  O2  UNL     1      -6.139  -0.424  17.577  1.00  0.00    -0.229 OA
HETATM   10  O3  UNL     1      -5.078   0.028  15.633  1.00  0.00    -0.228 OA
HETATM   11  C11 UNL     1      -4.659   1.102  15.025  1.00  0.00     0.226 A 
BRANCH  11  12
HETATM   12  O4  UNL     1      -4.015   1.164  13.818  1.00  0.00    -0.338 OA
ATOM     13  H4  UNL     1      -4.434   1.086  12.969  1.00  0.00     0.220 HD
ENDBRANCH  11  12
ENDBRANCH   4   6
ENDBRANCH   2   4
BRANCH   1  14
HETATM   14  C6  UNL     1      -2.319   5.048  13.181  1.00  0.00     0.059 A 
HETATM   15  C4  UNL     1      -2.138   6.452  13.267  1.00  0.00     0.008 A 
HETATM   16  C3  UNL     1      -1.862   6.884  12.030  1.00  0.00     0.158 A 
HETATM   17  C5  UNL     1      -2.364   7.181  14.546  1.00  0.00     0.054 C 
HETATM   18  C2  UNL     1      -1.860   5.818  11.197  1.00  0.00     0.111 A 
HETATM   19  F1  UNL     1      -1.606   8.219  11.676  1.00  0.00    -0.203 F 
HETATM   20  N2  UNL     1      -2.146   4.682  11.923  1.00  0.00    -0.342 N 
HETATM   21  C12 UNL     1      -2.201   3.321  11.406  1.00  0.00     0.157 C 
BRANCH  18  22
HETATM   22  S1  UNL     1      -1.420   5.824   9.490  1.00  0.00    -0.114 SA
HETATM   23  C1  UNL     1      -2.913   5.525   8.477  1.00  0.00     0.097 C 
ENDBRANCH  18  22
ENDBRANCH   1  14
TORSDOF 5
ENDMDL
MODEL 5
REMARK VINA RESULT: -6.657051834      1.312      1.973
REMARK  5 active torsions:
REMARK  status: ('A' for Active; 'I' for Inactive)
REMARK    1  A    between atoms: S1_2  and  C2_3 
REMARK    2  A    between atoms: C6_8  and  C7_9 
REMARK    3  A    between atoms: N1_10  and  C8_12 
REMARK    4  A    between atoms: C8_12  and  C9_14 
REMARK    5  A    between atoms: C11_19  and  O4_20 
ROOT
HETATM    1  C7  UNL     1      -2.003   4.052  14.582  1.00  0.00     0.119 C 
HETATM    2  N1  UNL     1      -1.489   4.080  13.334  1.00  0.00    -0.352 N 
ATOM      3  H1  UNL     1      -0.470   4.036  13.357  1.00  0.00     0.166 HD
ENDROOT
BRANCH   2   4
HETATM    4  C8  UNL     1      -1.966   4.152  11.998  1.00  0.00     0.140 C 
HETATM    5  S2  UNL     1      -1.460   5.190  10.957  1.00  0.00    -0.057 SA
BRANCH   4   6
HETATM    6  C9  UNL     1      -3.075   3.219  11.710  1.00  0.00     0.177 A 
HETATM    7  O1  UNL     1      -4.336   3.236  11.579  1.00  0.00    -0.247 OA
HETATM    8  C10 UNL     1      -4.808   2.030  11.277  1.00  0.00     0.419 A 
HETATM    9  O2  UNL     1      -5.983   1.650  11.058  1.00  0.00    -0.229 OA
HETATM   10  O3  UNL     1      -3.776   1.188  11.232  1.00  0.00    -0.228 OA
HETATM   11  C11 UNL     1      -2.696   1.870  11.490  1.00  0.00     0.226 A 
BRANCH  11  12
HETATM   12  O4  UNL     1      -1.416   1.389  11.556  1.00  0.00    -0.338 OA
ATOM     13  H4  UNL     1      -0.743   1.533  10.901  1.00  0.00     0.220 HD
ENDBRANCH  11  12
ENDBRANCH   4   6
ENDBRANCH   2   4
BRANCH   1  14
HETATM   14  C6  UNL     1      -3.363   4.031  15.151  1.00  0.00     0.059 A 
HETATM   15  C4  UNL     1      -4.191   5.125  14.793  1.00  0.00     0.008 A 
HETATM   16  C3  UNL     1      -5.448   4.774  15.089  1.00  0.00     0.158 A 
HETATM   17  C5  UNL     1      -3.607   6.404  14.301  1.00  0.00     0.054 C 
HETATM   18  C2  UNL     1      -5.431   3.523  15.604  1.00  0.00     0.111 A 
HETATM   19  F1  UNL     1      -6.584   5.573  14.882  1.00  0.00    -0.203 F 
HETATM   20  N2  UNL     1      -4.130   3.071  15.638  1.00  0.00    -0.342 N 
HETATM   21  C12 UNL     1      -3.685   1.757  16.086  1.00  0.00     0.157 C 
BRANCH  18  22
HETATM   22  S1  UNL     1      -6.835   2.544  16.028  1.00  0.00    -0.114 SA
HETATM   23  C1  UNL     1      -6.745   2.088  17.796  1.00  0.00     0.097 C 
ENDBRANCH  18  22
ENDBRANCH   1  14
TORSDOF 5
ENDMDL
