MODEL 1
REMARK VINA RESULT: -7.384614005      0.000      0.000
REMARK  7 active torsions:
REMARK  status: ('A' for Active; 'I' for Inactive)
REMARK    1  A    between atoms: C2_2  and  O1_3 
REMARK    2  A    between atoms: O1_3  and  C3_4 
REMARK    3  A    between atoms: C3_4  and  C4_5 
REMARK    4  A    between atoms: N1_7  and  C6_8 
REMARK    5  A    between atoms: C8_11  and  C9_12 
REMARK    6  A    between atoms: C12_16  and  C13_17 
REMARK    7  A    between atoms: C13_17  and  O3_18 
ROOT
HETATM    1  C4  UNL     1      -2.746   6.731  13.858  1.00  0.00     0.049 A 
HETATM    2  C5  UNL     1      -3.507   5.730  14.390  1.00  0.00     0.111 A 
HETATM    3  N1  UNL     1      -3.595   4.490  13.820  1.00  0.00    -0.304 N 
HETATM    4  C14 UNL     1      -2.893   4.293  12.691  1.00  0.00     0.182 A 
HETATM    5  S1  UNL     1      -2.916   2.888  11.852  1.00  0.00    -0.040 SA
HETATM    6  N2  UNL     1      -2.119   5.278  12.134  1.00  0.00    -0.299 N 
ATOM      7  H2  UNL     1      -1.602   5.081  11.277  1.00  0.00     0.171 HD
HETATM    8  C15 UNL     1      -2.025   6.490  12.686  1.00  0.00     0.257 A 
HETATM    9  O5  UNL     1      -1.292   7.388  12.146  1.00  0.00    -0.267 OA
ENDROOT
BRANCH   3  10
HETATM   10  C6  UNL     1      -4.340   3.416  14.423  1.00  0.00     0.254 C 
HETATM   11  C7  UNL     1      -5.711   3.837  14.842  1.00  0.00     0.222 C 
HETATM   12  O2  UNL     1      -6.362   2.814  15.505  1.00  0.00    -0.376 OA
HETATM   13  C8  UNL     1      -5.569   2.359  16.527  1.00  0.00     0.191 C 
HETATM   14  C12 UNL     1      -4.372   1.690  15.944  1.00  0.00     0.180 C 
HETATM   15  O4  UNL     1      -3.610   2.716  15.336  1.00  0.00    -0.354 OA
BRANCH  13  16
HETATM   16  C9  UNL     1      -6.281   1.621  17.606  1.00  0.00     0.124 C 
HETATM   17  C10 UNL     1      -6.537   2.333  18.872  1.00  0.00     0.054 C 
HETATM   18  C11 UNL     1      -7.563   1.047  17.044  1.00  0.00     0.054 C 
HETATM   19  F1  UNL     1      -5.478   0.506  17.894  1.00  0.00    -0.241 F 
ENDBRANCH  13  16
BRANCH  14  20
HETATM   20  C13 UNL     1      -4.758   0.698  14.858  1.00  0.00     0.198 C 
BRANCH  20  21
HETATM   21  O3  UNL     1      -4.740  -0.601  15.396  1.00  0.00    -0.398 OA
ATOM     22  H3  UNL     1      -4.813  -1.230  14.689  1.00  0.00     0.209 HD
ENDBRANCH  20  21
ENDBRANCH  14  20
ENDBRANCH   3  10
BRANCH   1  23
HETATM   23  C3  UNL     1      -2.564   8.080  14.457  1.00  0.00     0.213 C 
BRANCH  23  24
HETATM   24  O1  UNL     1      -1.409   8.002  15.281  1.00  0.00    -0.387 OA
BRANCH  24  25
HETATM   25  C2  UNL     1      -0.998   9.301  15.507  1.00  0.00     0.163 C 
HETATM   26  C1  UNL     1      -1.748  10.264  14.602  1.00  0.00     0.033 C 
ENDBRANCH  24  25
ENDBRANCH  23  24
ENDBRANCH   1  23
TORSDOF 7
ENDMDL
MODEL 2
REMARK VINA RESULT: -7.244137444      1.160      1.374
REMARK  7 active torsions:
REMARK  status: ('A' for Active; 'I' for Inactive)
REMARK    1  A    between atoms: C2_2  and  O1_3 
REMARK    2  A    between atoms: O1_3  and  C3_4 
REMARK    3  A    between atoms: C3_4  and  C4_5 
REMARK    4  A    between atoms: N1_7  and  C6_8 
REMARK    5  A    between atoms: C8_11  and  C9_12 
REMARK    6  A    between atoms: C12_16  and  C13_17 
REMARK    7  A    between atoms: C13_17  and  O3_18 
ROOT
HETATM    1  C4  UNL     1      -1.797   6.261  13.425  1.00  0.00     0.049 A 
HETATM    2  C5  UNL     1      -2.720   5.449  14.019  1.00  0.00     0.111 A 
HETATM    3  N1  UNL     1      -3.065   4.230  13.504  1.00  0.00    -0.304 N 
HETATM    4  C14 UNL     1      -2.453   3.858  12.368  1.00  0.00     0.182 A 
HETATM    5  S1  UNL     1      -2.776   2.454  11.590  1.00  0.00    -0.040 SA
HETATM    6  N2  UNL     1      -1.522   4.652  11.750  1.00  0.00    -0.299 N 
ATOM      7  H2  UNL     1      -1.081   4.326  10.890  1.00  0.00     0.171 HD
HETATM    8  C15 UNL     1      -1.176   5.841  12.247  1.00  0.00     0.257 A 
HETATM    9  O5  UNL     1      -0.301   6.558  11.651  1.00  0.00    -0.267 OA
ENDROOT
BRANCH   3  10
HETATM   10  C6  UNL     1      -3.984   3.344  14.171  1.00  0.00     0.254 C 
HETATM   11  C7  UNL     1      -5.406   3.783  14.026  1.00  0.00     0.222 C 
HETATM   12  O2  UNL     1      -6.252   2.971  14.758  1.00  0.00    -0.376 OA
HETATM   13  C8  UNL     1      -5.806   2.902  16.053  1.00  0.00     0.191 C 
HETATM   14  C12 UNL     1      -4.510   2.167  16.077  1.00  0.00     0.180 C 
HETATM   15  O4  UNL     1      -3.574   3.006  15.425  1.00  0.00    -0.354 OA
BRANCH  13  16
HETATM   16  C9  UNL     1      -6.823   2.484  17.056  1.00  0.00     0.124 C 
HETATM   17  C10 UNL     1      -7.721   1.369  16.701  1.00  0.00     0.054 C 
HETATM   18  C11 UNL     1      -6.131   2.217  18.374  1.00  0.00     0.054 C 
HETATM   19  F1  UNL     1      -7.617   3.619  17.285  1.00  0.00    -0.241 F 
ENDBRANCH  13  16
BRANCH  14  20
HETATM   20  C13 UNL     1      -4.589   0.868  15.290  1.00  0.00     0.198 C 
BRANCH  20  21
HETATM   21  O3  UNL     1      -3.760  -0.089  15.902  1.00  0.00    -0.398 OA
ATOM     22  H3  UNL     1      -3.627  -0.813  15.302  1.00  0.00     0.209 HD
ENDBRANCH  20  21
ENDBRANCH  14  20
ENDBRANCH   3  10
BRANCH   1  23
HETATM   23  C3  UNL     1      -1.338   7.571  13.961  1.00  0.00     0.213 C 
BRANCH  23  24
HETATM   24  O1  UNL     1      -2.357   8.025  14.841  1.00  0.00    -0.387 OA
BRANCH  24  25
HETATM   25  C2  UNL     1      -1.736   8.819  15.786  1.00  0.00     0.163 C 
HETATM   26  C1  UNL     1      -0.778   9.792  15.119  1.00  0.00     0.033 C 
ENDBRANCH  24  25
ENDBRANCH  23  24
ENDBRANCH   1  23
TORSDOF 7
ENDMDL
MODEL 3
REMARK VINA RESULT: -7.028054649      3.237      5.322
REMARK  7 active torsions:
REMARK  status: ('A' for Active; 'I' for Inactive)
REMARK    1  A    between atoms: C2_2  and  O1_3 
REMARK    2  A    between atoms: O1_3  and  C3_4 
REMARK    3  A    between atoms: C3_4  and  C4_5 
REMARK    4  A    between atoms: N1_7  and  C6_8 
REMARK    5  A    between atoms: C8_11  and  C9_12 
REMARK    6  A    between atoms: C12_16  and  C13_17 
REMARK    7  A    between atoms: C13_17  and  O3_18 
ROOT
HETATM    1  C4  UNL     1      -2.357   1.942  11.122  1.00  0.00     0.049 A 
HETATM    2  C5  UNL     1      -3.104   2.149  12.245  1.00  0.00     0.111 A 
HETATM    3  N1  UNL     1      -3.512   3.394  12.637  1.00  0.00    -0.304 N 
HETATM    4  C14 UNL     1      -3.136   4.426  11.863  1.00  0.00     0.182 A 
HETATM    5  S1  UNL     1      -3.496   5.985  12.205  1.00  0.00    -0.040 SA
HETATM    6  N2  UNL     1      -2.386   4.247  10.728  1.00  0.00    -0.299 N 
ATOM      7  H2  UNL     1      -2.127   5.061  10.171  1.00  0.00     0.171 HD
HETATM    8  C15 UNL     1      -1.988   3.036  10.336  1.00  0.00     0.257 A 
HETATM    9  O5  UNL     1      -1.293   2.900   9.271  1.00  0.00    -0.267 OA
ENDROOT
BRANCH   3  10
HETATM   10  C6  UNL     1      -4.361   3.602  13.782  1.00  0.00     0.254 C 
HETATM   11  C7  UNL     1      -3.763   3.063  15.041  1.00  0.00     0.222 C 
HETATM   12  O2  UNL     1      -4.643   3.188  16.100  1.00  0.00    -0.376 OA
HETATM   13  C8  UNL     1      -5.848   2.631  15.756  1.00  0.00     0.191 C 
HETATM   14  C12 UNL     1      -6.472   3.457  14.685  1.00  0.00     0.180 C 
HETATM   15  O4  UNL     1      -5.662   3.282  13.537  1.00  0.00    -0.354 OA
BRANCH  13  16
HETATM   16  C9  UNL     1      -6.725   2.255  16.899  1.00  0.00     0.124 C 
HETATM   17  C10 UNL     1      -7.757   1.228  16.665  1.00  0.00     0.054 C 
HETATM   18  C11 UNL     1      -5.857   1.883  18.081  1.00  0.00     0.054 C 
HETATM   19  F1  UNL     1      -7.374   3.439  17.282  1.00  0.00    -0.241 F 
ENDBRANCH  13  16
BRANCH  14  20
HETATM   20  C13 UNL     1      -6.457   4.936  15.038  1.00  0.00     0.198 C 
BRANCH  20  21
HETATM   21  O3  UNL     1      -6.875   5.678  13.920  1.00  0.00    -0.398 OA
ATOM     22  H3  UNL     1      -6.699   5.178  13.132  1.00  0.00     0.209 HD
ENDBRANCH  20  21
ENDBRANCH  14  20
ENDBRANCH   3  10
BRANCH   1  23
HETATM   23  C3  UNL     1      -1.929   0.612  10.610  1.00  0.00     0.213 C 
BRANCH  23  24
HETATM   24  O1  UNL     1      -3.107  -0.042  10.157  1.00  0.00    -0.387 OA
BRANCH  24  25
HETATM   25  C2  UNL     1      -3.157  -1.258  10.810  1.00  0.00     0.163 C 
HETATM   26  C1  UNL     1      -4.291  -1.275  11.821  1.00  0.00     0.033 C 
ENDBRANCH  24  25
ENDBRANCH  23  24
ENDBRANCH   1  23
TORSDOF 7
ENDMDL
MODEL 4
REMARK VINA RESULT: -6.961106915      3.240      7.105
REMARK  7 active torsions:
REMARK  status: ('A' for Active; 'I' for Inactive)
REMARK    1  A    between atoms: C2_2  and  O1_3 
REMARK    2  A    between atoms: O1_3  and  C3_4 
REMARK    3  A    between atoms: C3_4  and  C4_5 
REMARK    4  A    between atoms: N1_7  and  C6_8 
REMARK    5  A    between atoms: C8_11  and  C9_12 
REMARK    6  A    between atoms: C12_16  and  C13_17 
REMARK    7  A    between atoms: C13_17  and  O3_18 
ROOT
HETATM    1  C4  UNL     1      -4.562   1.765  15.261  1.00  0.00     0.049 A 
HETATM    2  C5  UNL     1      -4.374   2.880  14.497  1.00  0.00     0.111 A 
HETATM    3  N1  UNL     1      -4.177   2.821  13.145  1.00  0.00    -0.304 N 
HETATM    4  C14 UNL     1      -4.170   1.597  12.588  1.00  0.00     0.182 A 
HETATM    5  S1  UNL     1      -3.905   1.336  10.994  1.00  0.00    -0.040 SA
HETATM    6  N2  UNL     1      -4.357   0.460  13.330  1.00  0.00    -0.299 N 
ATOM      7  H2  UNL     1      -4.346  -0.446  12.863  1.00  0.00     0.171 HD
HETATM    8  C15 UNL     1      -4.554   0.510  14.649  1.00  0.00     0.257 A 
HETATM    9  O5  UNL     1      -4.730  -0.568  15.315  1.00  0.00    -0.267 OA
ENDROOT
BRANCH   3  10
HETATM   10  C6  UNL     1      -4.052   4.002  12.331  1.00  0.00     0.254 C 
HETATM   11  C7  UNL     1      -2.677   4.586  12.380  1.00  0.00     0.222 C 
HETATM   12  O2  UNL     1      -2.617   5.770  11.670  1.00  0.00    -0.376 OA
HETATM   13  C8  UNL     1      -3.608   6.611  12.106  1.00  0.00     0.191 C 
HETATM   14  C12 UNL     1      -4.928   6.039  11.718  1.00  0.00     0.180 C 
HETATM   15  O4  UNL     1      -5.090   4.868  12.497  1.00  0.00    -0.354 OA
BRANCH  13  16
HETATM   16  C9  UNL     1      -3.398   8.054  11.808  1.00  0.00     0.124 C 
HETATM   17  C10 UNL     1      -4.590   8.887  11.565  1.00  0.00     0.054 C 
HETATM   18  C11 UNL     1      -2.533   8.658  12.893  1.00  0.00     0.054 C 
HETATM   19  F1  UNL     1      -2.606   8.089  10.650  1.00  0.00    -0.241 F 
ENDBRANCH  13  16
BRANCH  14  20
HETATM   20  C13 UNL     1      -4.950   5.625  10.255  1.00  0.00     0.198 C 
BRANCH  20  21
HETATM   21  O3  UNL     1      -6.256   5.774   9.756  1.00  0.00    -0.398 OA
ATOM     22  H3  UNL     1      -6.371   6.666   9.451  1.00  0.00     0.209 HD
ENDBRANCH  20  21
ENDBRANCH  14  20
ENDBRANCH   3  10
BRANCH   1  23
HETATM   23  C3  UNL     1      -4.835   1.764  16.723  1.00  0.00     0.213 C 
BRANCH  23  24
HETATM   24  O1  UNL     1      -5.934   2.642  16.927  1.00  0.00    -0.387 OA
BRANCH  24  25
HETATM   25  C2  UNL     1      -6.793   2.002  17.799  1.00  0.00     0.163 C 
HETATM   26  C1  UNL     1      -7.598   0.938  17.071  1.00  0.00     0.033 C 
ENDBRANCH  24  25
ENDBRANCH  23  24
ENDBRANCH   1  23
TORSDOF 7
ENDMDL
MODEL 5
REMARK VINA RESULT: -6.911300952      3.449      7.051
REMARK  7 active torsions:
REMARK  status: ('A' for Active; 'I' for Inactive)
REMARK    1  A    between atoms: C2_2  and  O1_3 
REMARK    2  A    between atoms: O1_3  and  C3_4 
REMARK    3  A    between atoms: C3_4  and  C4_5 
REMARK    4  A    between atoms: N1_7  and  C6_8 
REMARK    5  A    between atoms: C8_11  and  C9_12 
REMARK    6  A    between atoms: C12_16  and  C13_17 
REMARK    7  A    between atoms: C13_17  and  O3_18 
ROOT
HETATM    1  C4  UNL     1      -4.738   1.787  15.167  1.00  0.00     0.049 A 
HETATM    2  C5  UNL     1      -4.547   2.915  14.422  1.00  0.00     0.111 A 
HETATM    3  N1  UNL     1      -4.146   2.873  13.115  1.00  0.00    -0.304 N 
HETATM    4  C14 UNL     1      -3.938   1.656  12.584  1.00  0.00     0.182 A 
HETATM    5  S1  UNL     1      -3.415   1.421  11.051  1.00  0.00    -0.040 SA
HETATM    6  N2  UNL     1      -4.124   0.507  13.308  1.00  0.00    -0.299 N 
ATOM      7  H2  UNL     1      -3.956  -0.395  12.861  1.00  0.00     0.171 HD
HETATM    8  C15 UNL     1      -4.518   0.538  14.582  1.00  0.00     0.257 A 
HETATM    9  O5  UNL     1      -4.687  -0.551  15.231  1.00  0.00    -0.267 OA
ENDROOT
BRANCH   3  10
HETATM   10  C6  UNL     1      -4.016   4.061  12.310  1.00  0.00     0.254 C 
HETATM   11  C7  UNL     1      -3.705   5.273  13.129  1.00  0.00     0.222 C 
HETATM   12  O2  UNL     1      -3.685   6.409  12.342  1.00  0.00    -0.376 OA
HETATM   13  C8  UNL     1      -4.854   6.487  11.629  1.00  0.00     0.191 C 
HETATM   14  C12 UNL     1      -4.887   5.376  10.636  1.00  0.00     0.180 C 
HETATM   15  O4  UNL     1      -5.012   4.185  11.389  1.00  0.00    -0.354 OA
BRANCH  13  16
HETATM   16  C9  UNL     1      -5.200   7.843  11.120  1.00  0.00     0.124 C 
HETATM   17  C10 UNL     1      -6.500   8.415  11.516  1.00  0.00     0.054 C 
HETATM   18  C11 UNL     1      -4.072   8.794  11.451  1.00  0.00     0.054 C 
HETATM   19  F1  UNL     1      -5.186   7.735   9.720  1.00  0.00    -0.241 F 
ENDBRANCH  13  16
BRANCH  14  20
HETATM   20  C13 UNL     1      -3.588   5.290   9.850  1.00  0.00     0.198 C 
BRANCH  20  21
HETATM   21  O3  UNL     1      -3.765   4.408   8.769  1.00  0.00    -0.398 OA
ATOM     22  H3  UNL     1      -2.924   4.254   8.355  1.00  0.00     0.209 HD
ENDBRANCH  20  21
ENDBRANCH  14  20
ENDBRANCH   3  10
BRANCH   1  23
HETATM   23  C3  UNL     1      -5.225   1.761  16.572  1.00  0.00     0.213 C 
BRANCH  23  24
HETATM   24  O1  UNL     1      -6.145   2.836  16.699  1.00  0.00    -0.387 OA
BRANCH  24  25
HETATM   25  C2  UNL     1      -7.407   2.274  16.723  1.00  0.00     0.163 C 
HETATM   26  C1  UNL     1      -7.353   0.865  17.290  1.00  0.00     0.033 C 
ENDBRANCH  24  25
ENDBRANCH  23  24
ENDBRANCH   1  23
TORSDOF 7
ENDMDL
