MODEL 1
REMARK VINA RESULT: -6.869597794      0.000      0.000
REMARK  6 active torsions:
REMARK  status: ('A' for Active; 'I' for Inactive)
REMARK    1  A    between atoms: C2_2  and  O1_4 
REMARK    2  A    between atoms: O1_4  and  C4_5 
REMARK    3  A    between atoms: C4_5  and  C5_7 
REMARK    4  A    between atoms: C5_7  and  N1_10 
REMARK       I    between atoms: N1_10  and  C8_12 
REMARK    5  A    between atoms: C8_12  and  C9_14 
REMARK    6  A    between atoms: C9_14  and  N2_15 
ROOT
HETATM    1  C9  UNL     1      -2.996   5.465  11.725  1.00  0.00     0.118 C 
HETATM    2  C14 UNL     1      -2.726   6.788  12.427  1.00  0.00     0.052 C 
HETATM    3  C15 UNL     1      -1.800   7.719  11.785  1.00  0.00     0.084 C 
HETATM    4  S1  UNL     1      -2.717   8.869  10.686  1.00  0.00    -0.111 SA
HETATM    5  C16 UNL     1      -4.381   8.168  10.530  1.00  0.00     0.091 A 
HETATM    6  N3  UNL     1      -5.610   8.705  10.480  1.00  0.00    -0.320 N 
ATOM      7  H3  UNL     1      -5.962   9.662  10.515  1.00  0.00     0.175 HD
HETATM    8  S2  UNL     1      -6.348   7.207  10.338  1.00  0.00    -0.015 SA
HETATM    9  C17 UNL     1      -4.688   6.806  10.424  1.00  0.00     0.040 A 
HETATM   10  C18 UNL     1      -3.716   5.699  10.412  1.00  0.00     0.063 C 
HETATM   11  C19 UNL     1      -2.835   5.850   9.215  1.00  0.00     0.018 C 
ENDROOT
BRANCH   1  12
HETATM   12  C8  UNL     1      -4.036   4.875  12.610  1.00  0.00     0.247 C 
HETATM   13  N1  UNL     1      -4.250   5.091  13.962  1.00  0.00    -0.341 N 
ATOM     14  H1  UNL     1      -3.629   5.737  14.448  1.00  0.00     0.163 HD
HETATM   15  O3  UNL     1      -4.831   4.063  12.034  1.00  0.00    -0.271 OA
BRANCH  13  16
HETATM   16  C5  UNL     1      -5.310   4.450  14.730  1.00  0.00     0.113 C 
HETATM   17  C6  UNL     1      -6.451   3.981  13.883  1.00  0.00     0.049 C 
HETATM   18  C7  UNL     1      -5.859   5.356  15.809  1.00  0.00     0.049 C 
BRANCH  16  19
HETATM   19  C4  UNL     1      -4.773   3.259  15.456  1.00  0.00     0.287 C 
HETATM   20  O2  UNL     1      -3.534   3.219  15.663  1.00  0.00    -0.262 OA
BRANCH  19  21
HETATM   21  O1  UNL     1      -5.560   2.233  15.896  1.00  0.00    -0.315 OA
BRANCH  21  22
HETATM   22  C2  UNL     1      -5.441   1.730  17.193  1.00  0.00     0.123 C 
HETATM   23  C1  UNL     1      -6.228   2.583  18.192  1.00  0.00     0.040 C 
HETATM   24  C3  UNL     1      -5.892   0.318  17.366  1.00  0.00     0.040 C 
ENDBRANCH  21  22
ENDBRANCH  19  21
ENDBRANCH  16  19
ENDBRANCH  13  16
ENDBRANCH   1  12
BRANCH   1  25
HETATM   25  N2  UNL     1      -1.811   4.750  11.557  1.00  0.00    -0.391 N 
HETATM   26  C10 UNL     1      -1.832   3.348  11.372  1.00  0.00     0.144 C 
HETATM   27  C11 UNL     1      -0.721   2.985  10.365  1.00  0.00     0.187 C 
HETATM   28  O4  UNL     1       0.088   4.092  10.127  1.00  0.00    -0.388 OA
HETATM   29  C12 UNL     1       0.540   4.704  11.298  1.00  0.00     0.187 C 
HETATM   30  C13 UNL     1      -0.612   5.142  12.192  1.00  0.00     0.144 C 
ENDBRANCH   1  25
TORSDOF 6
ENDMDL
MODEL 2
REMARK VINA RESULT: -6.768663119      2.424      3.776
REMARK  6 active torsions:
REMARK  status: ('A' for Active; 'I' for Inactive)
REMARK    1  A    between atoms: C2_2  and  O1_4 
REMARK    2  A    between atoms: O1_4  and  C4_5 
REMARK    3  A    between atoms: C4_5  and  C5_7 
REMARK    4  A    between atoms: C5_7  and  N1_10 
REMARK       I    between atoms: N1_10  and  C8_12 
REMARK    5  A    between atoms: C8_12  and  C9_14 
REMARK    6  A    between atoms: C9_14  and  N2_15 
ROOT
HETATM    1  C9  UNL     1      -2.188   6.271  12.352  1.00  0.00     0.118 C 
HETATM    2  C14 UNL     1      -2.504   6.522  10.885  1.00  0.00     0.052 C 
HETATM    3  C15 UNL     1      -1.487   7.193  10.078  1.00  0.00     0.084 C 
HETATM    4  S1  UNL     1      -0.386   5.956   9.286  1.00  0.00    -0.111 SA
HETATM    5  C16 UNL     1      -0.752   4.383  10.109  1.00  0.00     0.091 A 
HETATM    6  N3  UNL     1      -0.852   3.115   9.679  1.00  0.00    -0.320 N 
ATOM      7  H3  UNL     1      -0.750   2.671   8.766  1.00  0.00     0.175 HD
HETATM    8  S2  UNL     1      -1.208   2.538  11.212  1.00  0.00    -0.015 SA
HETATM    9  C17 UNL     1      -1.020   4.217  11.473  1.00  0.00     0.040 A 
HETATM   10  C18 UNL     1      -1.043   5.286  12.486  1.00  0.00     0.063 C 
HETATM   11  C19 UNL     1       0.319   5.893  12.571  1.00  0.00     0.018 C 
ENDROOT
BRANCH   1  12
HETATM   12  C8  UNL     1      -3.385   5.497  12.777  1.00  0.00     0.247 C 
HETATM   13  N1  UNL     1      -3.529   4.648  13.863  1.00  0.00    -0.341 N 
ATOM     14  H1  UNL     1      -2.725   4.512  14.475  1.00  0.00     0.163 HD
HETATM   15  O3  UNL     1      -4.410   5.645  12.035  1.00  0.00    -0.271 OA
BRANCH  13  16
HETATM   16  C5  UNL     1      -4.761   3.938  14.182  1.00  0.00     0.113 C 
HETATM   17  C6  UNL     1      -5.082   2.847  13.208  1.00  0.00     0.049 C 
HETATM   18  C7  UNL     1      -5.950   4.868  14.265  1.00  0.00     0.049 C 
BRANCH  16  19
HETATM   19  C4  UNL     1      -4.661   3.312  15.536  1.00  0.00     0.287 C 
HETATM   20  O2  UNL     1      -3.562   2.790  15.850  1.00  0.00    -0.262 OA
BRANCH  19  21
HETATM   21  O1  UNL     1      -5.694   3.288  16.428  1.00  0.00    -0.315 OA
BRANCH  21  22
HETATM   22  C2  UNL     1      -5.956   2.159  17.206  1.00  0.00     0.123 C 
HETATM   23  C1  UNL     1      -6.036   2.518  18.693  1.00  0.00     0.040 C 
HETATM   24  C3  UNL     1      -7.212   1.430  16.860  1.00  0.00     0.040 C 
ENDBRANCH  21  22
ENDBRANCH  19  21
ENDBRANCH  16  19
ENDBRANCH  13  16
ENDBRANCH   1  12
BRANCH   1  25
HETATM   25  N2  UNL     1      -1.930   7.473  13.008  1.00  0.00    -0.391 N 
HETATM   26  C10 UNL     1      -2.120   7.589  14.405  1.00  0.00     0.144 C 
HETATM   27  C11 UNL     1      -1.005   8.497  14.963  1.00  0.00     0.187 C 
HETATM   28  O4  UNL     1      -0.305   9.090  13.916  1.00  0.00    -0.388 OA
HETATM   29  C12 UNL     1      -1.138   9.702  12.977  1.00  0.00     0.187 C 
HETATM   30  C13 UNL     1      -2.139   8.721  12.381  1.00  0.00     0.144 C 
ENDBRANCH   1  25
TORSDOF 6
ENDMDL
MODEL 3
REMARK VINA RESULT: -6.661926977      2.216      3.058
REMARK  6 active torsions:
REMARK  status: ('A' for Active; 'I' for Inactive)
REMARK    1  A    between atoms: C2_2  and  O1_4 
REMARK    2  A    between atoms: O1_4  and  C4_5 
REMARK    3  A    between atoms: C4_5  and  C5_7 
REMARK    4  A    between atoms: C5_7  and  N1_10 
REMARK       I    between atoms: N1_10  and  C8_12 
REMARK    5  A    between atoms: C8_12  and  C9_14 
REMARK    6  A    between atoms: C9_14  and  N2_15 
ROOT
HETATM    1  C9  UNL     1      -2.634   3.412  11.794  1.00  0.00     0.118 C 
HETATM    2  C14 UNL     1      -1.150   3.664  12.018  1.00  0.00     0.052 C 
HETATM    3  C15 UNL     1      -0.236   3.356  10.921  1.00  0.00     0.084 C 
HETATM    4  S1  UNL     1       0.010   4.837   9.864  1.00  0.00    -0.111 SA
HETATM    5  C16 UNL     1      -1.269   6.016  10.374  1.00  0.00     0.091 A 
HETATM    6  N3  UNL     1      -1.288   7.348  10.536  1.00  0.00    -0.320 N 
ATOM      7  H3  UNL     1      -0.589   8.082  10.417  1.00  0.00     0.175 HD
HETATM    8  S2  UNL     1      -2.897   7.349  11.005  1.00  0.00    -0.015 SA
HETATM    9  C17 UNL     1      -2.586   5.693  10.721  1.00  0.00     0.040 A 
HETATM   10  C18 UNL     1      -3.173   4.341  10.724  1.00  0.00     0.063 C 
HETATM   11  C19 UNL     1      -3.142   3.803   9.332  1.00  0.00     0.018 C 
ENDROOT
BRANCH   1  12
HETATM   12  C8  UNL     1      -3.212   3.939  13.059  1.00  0.00     0.247 C 
HETATM   13  N1  UNL     1      -4.544   4.047  13.426  1.00  0.00    -0.341 N 
ATOM     14  H1  UNL     1      -5.251   3.731  12.763  1.00  0.00     0.163 HD
HETATM   15  O3  UNL     1      -2.355   4.341  13.912  1.00  0.00    -0.271 OA
BRANCH  13  16
HETATM   16  C5  UNL     1      -4.994   4.585  14.704  1.00  0.00     0.113 C 
HETATM   17  C6  UNL     1      -6.356   5.201  14.637  1.00  0.00     0.049 C 
HETATM   18  C7  UNL     1      -4.034   5.612  15.260  1.00  0.00     0.049 C 
BRANCH  16  19
HETATM   19  C4  UNL     1      -5.043   3.501  15.732  1.00  0.00     0.287 C 
HETATM   20  O2  UNL     1      -3.970   2.897  15.985  1.00  0.00    -0.262 OA
BRANCH  19  21
HETATM   21  O1  UNL     1      -6.183   3.148  16.393  1.00  0.00    -0.315 OA
BRANCH  21  22
HETATM   22  C2  UNL     1      -6.211   2.056  17.263  1.00  0.00     0.123 C 
HETATM   23  C1  UNL     1      -6.202   2.513  18.725  1.00  0.00     0.040 C 
HETATM   24  C3  UNL     1      -7.380   1.143  17.094  1.00  0.00     0.040 C 
ENDBRANCH  21  22
ENDBRANCH  19  21
ENDBRANCH  16  19
ENDBRANCH  13  16
ENDBRANCH   1  12
BRANCH   1  25
HETATM   25  N2  UNL     1      -2.860   2.070  11.491  1.00  0.00    -0.391 N 
HETATM   26  C10 UNL     1      -3.985   1.391  12.014  1.00  0.00     0.144 C 
HETATM   27  C11 UNL     1      -4.502   0.422  10.930  1.00  0.00     0.187 C 
HETATM   28  O4  UNL     1      -3.591   0.351   9.881  1.00  0.00    -0.388 OA
HETATM   29  C12 UNL     1      -2.283   0.107  10.305  1.00  0.00     0.187 C 
HETATM   30  C13 UNL     1      -1.795   1.166  11.284  1.00  0.00     0.144 C 
ENDBRANCH   1  25
TORSDOF 6
ENDMDL
MODEL 4
REMARK VINA RESULT: -6.632276018      2.611      3.880
REMARK  6 active torsions:
REMARK  status: ('A' for Active; 'I' for Inactive)
REMARK    1  A    between atoms: C2_2  and  O1_4 
REMARK    2  A    between atoms: O1_4  and  C4_5 
REMARK    3  A    between atoms: C4_5  and  C5_7 
REMARK    4  A    between atoms: C5_7  and  N1_10 
REMARK       I    between atoms: N1_10  and  C8_12 
REMARK    5  A    between atoms: C8_12  and  C9_14 
REMARK    6  A    between atoms: C9_14  and  N2_15 
ROOT
HETATM    1  C9  UNL     1      -1.846   5.514  11.623  1.00  0.00     0.118 C 
HETATM    2  C14 UNL     1      -0.410   5.308  12.081  1.00  0.00     0.052 C 
HETATM    3  C15 UNL     1       0.639   6.041  11.376  1.00  0.00     0.084 C 
HETATM    4  S1  UNL     1       0.956   7.649  12.206  1.00  0.00    -0.111 SA
HETATM    5  C16 UNL     1      -0.416   7.875  13.368  1.00  0.00     0.091 A 
HETATM    6  N3  UNL     1      -0.503   8.368  14.613  1.00  0.00    -0.320 N 
ATOM      7  H3  UNL     1       0.179   8.759  15.264  1.00  0.00     0.175 HD
HETATM    8  S2  UNL     1      -2.155   8.099  14.692  1.00  0.00    -0.015 SA
HETATM    9  C17 UNL     1      -1.753   7.534  13.130  1.00  0.00     0.040 A 
HETATM   10  C18 UNL     1      -2.287   6.940  11.892  1.00  0.00     0.063 C 
HETATM   11  C19 UNL     1      -2.071   7.901  10.769  1.00  0.00     0.018 C 
ENDROOT
BRANCH   1  12
HETATM   12  C8  UNL     1      -2.589   4.708  12.628  1.00  0.00     0.247 C 
HETATM   13  N1  UNL     1      -3.955   4.651  12.858  1.00  0.00    -0.341 N 
ATOM     14  H1  UNL     1      -4.563   5.226  12.276  1.00  0.00     0.163 HD
HETATM   15  O3  UNL     1      -1.859   3.975  13.372  1.00  0.00    -0.271 OA
BRANCH  13  16
HETATM   16  C5  UNL     1      -4.574   3.817  13.880  1.00  0.00     0.113 C 
HETATM   17  C6  UNL     1      -6.038   4.074  14.044  1.00  0.00     0.049 C 
HETATM   18  C7  UNL     1      -3.907   3.978  15.227  1.00  0.00     0.049 C 
BRANCH  16  19
HETATM   19  C4  UNL     1      -4.409   2.371  13.535  1.00  0.00     0.287 C 
HETATM   20  O2  UNL     1      -4.159   1.578  14.478  1.00  0.00    -0.262 OA
BRANCH  19  21
HETATM   21  O1  UNL     1      -4.519   1.888  12.263  1.00  0.00    -0.315 OA
BRANCH  21  22
HETATM   22  C2  UNL     1      -3.714   0.841  11.811  1.00  0.00     0.123 C 
HETATM   23  C1  UNL     1      -4.450  -0.017  10.778  1.00  0.00     0.040 C 
HETATM   24  C3  UNL     1      -2.421   1.260  11.195  1.00  0.00     0.040 C 
ENDBRANCH  21  22
ENDBRANCH  19  21
ENDBRANCH  16  19
ENDBRANCH  13  16
ENDBRANCH   1  12
BRANCH   1  25
HETATM   25  N2  UNL     1      -1.986   5.162  10.282  1.00  0.00    -0.391 N 
HETATM   26  C10 UNL     1      -3.268   4.988   9.710  1.00  0.00     0.144 C 
HETATM   27  C11 UNL     1      -3.221   5.522   8.264  1.00  0.00     0.187 C 
HETATM   28  O4  UNL     1      -1.906   5.797   7.900  1.00  0.00    -0.388 OA
HETATM   29  C12 UNL     1      -1.033   4.738   8.159  1.00  0.00     0.187 C 
HETATM   30  C13 UNL     1      -1.044   4.339   9.629  1.00  0.00     0.144 C 
ENDBRANCH   1  25
TORSDOF 6
ENDMDL
MODEL 5
REMARK VINA RESULT: -6.554750310      3.217      6.439
REMARK  6 active torsions:
REMARK  status: ('A' for Active; 'I' for Inactive)
REMARK    1  A    between atoms: C2_2  and  O1_4 
REMARK    2  A    between atoms: O1_4  and  C4_5 
REMARK    3  A    between atoms: C4_5  and  C5_7 
REMARK    4  A    between atoms: C5_7  and  N1_10 
REMARK       I    between atoms: N1_10  and  C8_12 
REMARK    5  A    between atoms: C8_12  and  C9_14 
REMARK    6  A    between atoms: C9_14  and  N2_15 
ROOT
HETATM    1  C9  UNL     1      -3.418   5.265  11.332  1.00  0.00     0.118 C 
HETATM    2  C14 UNL     1      -4.256   4.097  10.835  1.00  0.00     0.052 C 
HETATM    3  C15 UNL     1      -3.677   2.758  10.929  1.00  0.00     0.084 C 
HETATM    4  S1  UNL     1      -4.137   1.978  12.526  1.00  0.00    -0.111 SA
HETATM    5  C16 UNL     1      -4.828   3.314  13.538  1.00  0.00     0.091 A 
HETATM    6  N3  UNL     1      -5.851   3.385  14.404  1.00  0.00    -0.320 N 
ATOM      7  H3  UNL     1      -6.534   2.707  14.743  1.00  0.00     0.175 HD
HETATM    8  S2  UNL     1      -5.579   5.009  14.717  1.00  0.00    -0.015 SA
HETATM    9  C17 UNL     1      -4.356   4.631  13.585  1.00  0.00     0.040 A 
HETATM   10  C18 UNL     1      -3.209   5.167  12.831  1.00  0.00     0.063 C 
HETATM   11  C19 UNL     1      -1.975   4.444  13.260  1.00  0.00     0.018 C 
ENDROOT
BRANCH   1  12
HETATM   12  C8  UNL     1      -4.373   6.395  11.172  1.00  0.00     0.247 C 
HETATM   13  N1  UNL     1      -5.532   6.451  10.414  1.00  0.00    -0.341 N 
ATOM     14  H1  UNL     1      -5.798   5.623   9.882  1.00  0.00     0.163 HD
HETATM   15  O3  UNL     1      -4.072   7.446  11.825  1.00  0.00    -0.271 OA
BRANCH  13  16
HETATM   16  C5  UNL     1      -6.395   7.623  10.334  1.00  0.00     0.113 C 
HETATM   17  C6  UNL     1      -5.644   8.890  10.069  1.00  0.00     0.049 C 
HETATM   18  C7  UNL     1      -7.220   7.811  11.587  1.00  0.00     0.049 C 
BRANCH  16  19
HETATM   19  C4  UNL     1      -7.392   7.455   9.233  1.00  0.00     0.287 C 
HETATM   20  O2  UNL     1      -7.434   6.338   8.658  1.00  0.00    -0.262 OA
BRANCH  19  21
HETATM   21  O1  UNL     1      -8.242   8.447   8.834  1.00  0.00    -0.315 OA
BRANCH  21  22
HETATM   22  C2  UNL     1      -8.457   8.721   7.483  1.00  0.00     0.123 C 
HETATM   23  C1  UNL     1      -9.529   9.799   7.300  1.00  0.00     0.040 C 
HETATM   24  C3  UNL     1      -7.249   9.168   6.729  1.00  0.00     0.040 C 
ENDBRANCH  21  22
ENDBRANCH  19  21
ENDBRANCH  16  19
ENDBRANCH  13  16
ENDBRANCH   1  12
BRANCH   1  25
HETATM   25  N2  UNL     1      -2.214   5.334  10.634  1.00  0.00    -0.391 N 
HETATM   26  C10 UNL     1      -1.268   6.346  10.923  1.00  0.00     0.144 C 
HETATM   27  C11 UNL     1       0.141   5.731  10.793  1.00  0.00     0.187 C 
HETATM   28  O4  UNL     1       0.057   4.462  10.225  1.00  0.00    -0.388 OA
HETATM   29  C12 UNL     1      -0.702   4.435   9.053  1.00  0.00     0.187 C 
HETATM   30  C13 UNL     1      -2.118   4.947   9.280  1.00  0.00     0.144 C 
ENDBRANCH   1  25
TORSDOF 6
ENDMDL
