MODEL 1
REMARK VINA RESULT: -7.515932558      0.000      0.000
REMARK  14 active torsions:
REMARK  status: ('A' for Active; 'I' for Inactive)
REMARK    1  A    between atoms: C2_2  and  C3_3 
REMARK    2  A    between atoms: C3_3  and  N1_4 
REMARK    3  A    between atoms: N1_4  and  C4_7 
REMARK    4  A    between atoms: C4_7  and  C5_8 
REMARK    5  A    between atoms: C5_8  and  C6_9 
REMARK    6  A    between atoms: C6_9  and  N2_10 
REMARK    7  A    between atoms: N2_10  and  C7_12 
REMARK    8  A    between atoms: C16_25  and  N5_26 
REMARK    9  A    between atoms: N5_26  and  C17_28 
REMARK   10  A    between atoms: C17_28  and  C18_29 
REMARK   11  A    between atoms: C18_29  and  O1_30 
REMARK   12  A    between atoms: O1_30  and  C19_31 
REMARK   13  A    between atoms: C19_31  and  C20_32 
REMARK   14  A    between atoms: C20_32  and  N6_33 
ROOT
HETATM    1  C7  UNL     1      17.125   6.995  23.809  1.00  0.00     0.113 A 
HETATM    2  N3  UNL     1      17.969   6.040  23.301  1.00  0.00    -0.352 N 
ATOM      3  H3  UNL     1      18.960   6.262  23.208  1.00  0.00     0.166 HD
HETATM    4  C8  UNL     1      17.544   4.825  22.921  1.00  0.00     0.090 A 
HETATM    5  C9  UNL     1      16.242   4.470  23.022  1.00  0.00     0.029 A 
HETATM    6  C10 UNL     1      15.369   5.396  23.523  1.00  0.00    -0.020 A 
HETATM    7  C11 UNL     1      14.060   5.006  23.735  1.00  0.00     0.013 A 
HETATM    8  C12 UNL     1      13.188   5.860  24.318  1.00  0.00     0.013 A 
HETATM    9  C13 UNL     1      13.584   7.121  24.698  1.00  0.00    -0.020 A 
HETATM   10  C14 UNL     1      12.654   7.971  25.207  1.00  0.00     0.029 A 
HETATM   11  C15 UNL     1      13.019   9.245  25.502  1.00  0.00     0.090 A 
HETATM   12  N4  UNL     1      14.277   9.656  25.288  1.00  0.00    -0.352 N 
ATOM     13  H4  UNL     1      14.523  10.620  25.512  1.00  0.00     0.166 HD
HETATM   14  C16 UNL     1      15.245   8.830  24.778  1.00  0.00     0.113 A 
HETATM   15  C21 UNL     1      14.917   7.552  24.490  1.00  0.00     0.033 A 
HETATM   16  C22 UNL     1      15.811   6.677  23.914  1.00  0.00     0.033 A 
ENDROOT
BRANCH   1  17
HETATM   17  N2  UNL     1      17.747   7.944  24.334  1.00  0.00    -0.376 N 
ATOM     18  H2  UNL     1      17.190   8.744  24.634  1.00  0.00     0.161 HD
BRANCH  17  19
HETATM   19  C6  UNL     1      19.167   8.023  24.561  1.00  0.00     0.123 C 
BRANCH  19  20
HETATM   20  C5  UNL     1      19.958   9.089  23.964  1.00  0.00     0.047 C 
BRANCH  20  21
HETATM   21  C4  UNL     1      21.350   8.776  23.486  1.00  0.00     0.234 C 
BRANCH  21  22
HETATM   22  N1  UNL     1      22.039   7.879  24.387  1.00  0.00    -0.072 N 
ATOM     23  H12 UNL     1      22.523   7.151  23.862  1.00  0.00     0.277 HD
ATOM     24  H11 UNL     1      21.369   7.307  24.901  1.00  0.00     0.277 HD
BRANCH  22  25
HETATM   25  C3  UNL     1      22.947   8.530  25.299  1.00  0.00     0.259 C 
BRANCH  25  26
HETATM   26  C2  UNL     1      22.889   7.793  26.591  1.00  0.00    -0.010 C 
HETATM   27  C1  UNL     1      22.102   6.755  26.722  1.00  0.00     0.008 C 
ENDBRANCH  25  26
ENDBRANCH  22  25
ENDBRANCH  21  22
ENDBRANCH  20  21
ENDBRANCH  19  20
ENDBRANCH  17  19
ENDBRANCH   1  17
BRANCH  14  28
HETATM   28  N5  UNL     1      16.256   9.464  24.385  1.00  0.00    -0.373 N 
ATOM     29  H5  UNL     1      16.976   8.965  23.864  1.00  0.00     0.161 HD
BRANCH  28  30
HETATM   30  C17 UNL     1      16.440  10.890  24.646  1.00  0.00     0.147 C 
BRANCH  30  31
HETATM   31  C18 UNL     1      17.512  11.268  25.579  1.00  0.00     0.187 C 
BRANCH  31  32
HETATM   32  O1  UNL     1      17.743  10.468  26.661  1.00  0.00    -0.388 OA
BRANCH  32  33
HETATM   33  C19 UNL     1      16.865  10.720  27.682  1.00  0.00     0.195 C 
BRANCH  33  34
HETATM   34  C20 UNL     1      16.786  12.154  28.117  1.00  0.00     0.255 C 
BRANCH  34  35
HETATM   35  N6  UNL     1      15.467  12.704  28.139  1.00  0.00    -0.077 N 
ATOM     36  H63 UNL     1      15.414  13.516  27.523  1.00  0.00     0.274 HD
ATOM     37  H62 UNL     1      14.817  12.078  27.664  1.00  0.00     0.274 HD
ATOM     38  H61 UNL     1      15.116  12.940  29.066  1.00  0.00     0.274 HD
ENDBRANCH  34  35
ENDBRANCH  33  34
ENDBRANCH  32  33
ENDBRANCH  31  32
ENDBRANCH  30  31
ENDBRANCH  28  30
ENDBRANCH  14  28
TORSDOF 14
ENDMDL
MODEL 2
REMARK VINA RESULT: -7.337893076      1.405      2.450
REMARK  14 active torsions:
REMARK  status: ('A' for Active; 'I' for Inactive)
REMARK    1  A    between atoms: C2_2  and  C3_3 
REMARK    2  A    between atoms: C3_3  and  N1_4 
REMARK    3  A    between atoms: N1_4  and  C4_7 
REMARK    4  A    between atoms: C4_7  and  C5_8 
REMARK    5  A    between atoms: C5_8  and  C6_9 
REMARK    6  A    between atoms: C6_9  and  N2_10 
REMARK    7  A    between atoms: N2_10  and  C7_12 
REMARK    8  A    between atoms: C16_25  and  N5_26 
REMARK    9  A    between atoms: N5_26  and  C17_28 
REMARK   10  A    between atoms: C17_28  and  C18_29 
REMARK   11  A    between atoms: C18_29  and  O1_30 
REMARK   12  A    between atoms: O1_30  and  C19_31 
REMARK   13  A    between atoms: C19_31  and  C20_32 
REMARK   14  A    between atoms: C20_32  and  N6_33 
ROOT
HETATM    1  C7  UNL     1      17.031   6.958  23.834  1.00  0.00     0.113 A 
HETATM    2  N3  UNL     1      17.847   5.974  23.337  1.00  0.00    -0.352 N 
ATOM      3  H3  UNL     1      18.845   6.165  23.249  1.00  0.00     0.166 HD
HETATM    4  C8  UNL     1      17.387   4.771  22.960  1.00  0.00     0.090 A 
HETATM    5  C9  UNL     1      16.074   4.458  23.054  1.00  0.00     0.029 A 
HETATM    6  C10 UNL     1      15.227   5.413  23.544  1.00  0.00    -0.020 A 
HETATM    7  C11 UNL     1      13.905   5.065  23.748  1.00  0.00     0.013 A 
HETATM    8  C12 UNL     1      13.056   5.949  24.321  1.00  0.00     0.013 A 
HETATM    9  C13 UNL     1      13.489   7.199  24.698  1.00  0.00    -0.020 A 
HETATM   10  C14 UNL     1      12.583   8.080  25.197  1.00  0.00     0.029 A 
HETATM   11  C15 UNL     1      12.985   9.343  25.488  1.00  0.00     0.090 A 
HETATM   12  N4  UNL     1      14.257   9.714  25.280  1.00  0.00    -0.352 N 
ATOM     13  H4  UNL     1      14.531  10.671  25.502  1.00  0.00     0.166 HD
HETATM   14  C16 UNL     1      15.203   8.856  24.781  1.00  0.00     0.113 A 
HETATM   15  C21 UNL     1      14.836   7.587  24.497  1.00  0.00     0.033 A 
HETATM   16  C22 UNL     1      15.706   6.682  23.932  1.00  0.00     0.033 A 
ENDROOT
BRANCH   1  17
HETATM   17  N2  UNL     1      17.678   7.889  24.359  1.00  0.00    -0.376 N 
ATOM     18  H2  UNL     1      17.152   8.727  24.610  1.00  0.00     0.161 HD
BRANCH  17  19
HETATM   19  C6  UNL     1      19.089   7.902  24.648  1.00  0.00     0.123 C 
BRANCH  19  20
HETATM   20  C5  UNL     1      19.984   8.812  23.949  1.00  0.00     0.047 C 
BRANCH  20  21
HETATM   21  C4  UNL     1      20.639   8.347  22.677  1.00  0.00     0.234 C 
BRANCH  21  22
HETATM   22  N1  UNL     1      19.761   8.487  21.537  1.00  0.00    -0.072 N 
ATOM     23  H12 UNL     1      19.912   9.386  21.080  1.00  0.00     0.277 HD
ATOM     24  H11 UNL     1      18.796   8.607  21.844  1.00  0.00     0.277 HD
BRANCH  22  25
HETATM   25  C3  UNL     1      19.853   7.414  20.577  1.00  0.00     0.259 C 
BRANCH  25  26
HETATM   26  C2  UNL     1      18.482   7.164  20.052  1.00  0.00    -0.010 C 
HETATM   27  C1  UNL     1      17.500   7.970  20.367  1.00  0.00     0.008 C 
ENDBRANCH  25  26
ENDBRANCH  22  25
ENDBRANCH  21  22
ENDBRANCH  20  21
ENDBRANCH  19  20
ENDBRANCH  17  19
ENDBRANCH   1  17
BRANCH  14  28
HETATM   28  N5  UNL     1      16.235   9.456  24.393  1.00  0.00    -0.373 N 
ATOM     29  H5  UNL     1      16.943   8.931  23.879  1.00  0.00     0.161 HD
BRANCH  28  30
HETATM   30  C17 UNL     1      16.462  10.876  24.647  1.00  0.00     0.147 C 
BRANCH  30  31
HETATM   31  C18 UNL     1      17.523  11.225  25.603  1.00  0.00     0.187 C 
BRANCH  31  32
HETATM   32  O1  UNL     1      17.719  10.410  26.681  1.00  0.00    -0.388 OA
BRANCH  32  33
HETATM   33  C19 UNL     1      16.873  10.713  27.715  1.00  0.00     0.195 C 
BRANCH  33  34
HETATM   34  C20 UNL     1      16.798  12.168  28.073  1.00  0.00     0.255 C 
BRANCH  34  35
HETATM   35  N6  UNL     1      15.475  12.704  28.137  1.00  0.00    -0.077 N 
ATOM     36  H63 UNL     1      15.472  13.674  27.822  1.00  0.00     0.274 HD
ATOM     37  H62 UNL     1      14.888  12.282  27.418  1.00  0.00     0.274 HD
ATOM     38  H61 UNL     1      15.024  12.628  29.049  1.00  0.00     0.274 HD
ENDBRANCH  34  35
ENDBRANCH  33  34
ENDBRANCH  32  33
ENDBRANCH  31  32
ENDBRANCH  30  31
ENDBRANCH  28  30
ENDBRANCH  14  28
TORSDOF 14
ENDMDL
MODEL 3
REMARK VINA RESULT: -7.248077528      0.969      1.086
REMARK  14 active torsions:
REMARK  status: ('A' for Active; 'I' for Inactive)
REMARK    1  A    between atoms: C2_2  and  C3_3 
REMARK    2  A    between atoms: C3_3  and  N1_4 
REMARK    3  A    between atoms: N1_4  and  C4_7 
REMARK    4  A    between atoms: C4_7  and  C5_8 
REMARK    5  A    between atoms: C5_8  and  C6_9 
REMARK    6  A    between atoms: C6_9  and  N2_10 
REMARK    7  A    between atoms: N2_10  and  C7_12 
REMARK    8  A    between atoms: C16_25  and  N5_26 
REMARK    9  A    between atoms: N5_26  and  C17_28 
REMARK   10  A    between atoms: C17_28  and  C18_29 
REMARK   11  A    between atoms: C18_29  and  O1_30 
REMARK   12  A    between atoms: O1_30  and  C19_31 
REMARK   13  A    between atoms: C19_31  and  C20_32 
REMARK   14  A    between atoms: C20_32  and  N6_33 
ROOT
HETATM    1  C7  UNL     1      16.705   6.964  23.808  1.00  0.00     0.113 A 
HETATM    2  N3  UNL     1      17.452   5.940  23.284  1.00  0.00    -0.352 N 
ATOM      3  H3  UNL     1      18.452   6.087  23.142  1.00  0.00     0.166 HD
HETATM    4  C8  UNL     1      16.923   4.754  22.949  1.00  0.00     0.090 A 
HETATM    5  C9  UNL     1      15.605   4.498  23.116  1.00  0.00     0.029 A 
HETATM    6  C10 UNL     1      14.825   5.494  23.635  1.00  0.00    -0.020 A 
HETATM    7  C11 UNL     1      13.503   5.206  23.913  1.00  0.00     0.013 A 
HETATM    8  C12 UNL     1      12.722   6.133  24.516  1.00  0.00     0.013 A 
HETATM    9  C13 UNL     1      13.227   7.367  24.851  1.00  0.00    -0.020 A 
HETATM   10  C14 UNL     1      12.386   8.293  25.383  1.00  0.00     0.029 A 
HETATM   11  C15 UNL     1      12.856   9.541  25.634  1.00  0.00     0.090 A 
HETATM   12  N4  UNL     1      14.129   9.855  25.355  1.00  0.00    -0.352 N 
ATOM     13  H4  UNL     1      14.455  10.802  25.548  1.00  0.00     0.166 HD
HETATM   14  C16 UNL     1      15.011   8.950  24.820  1.00  0.00     0.113 A 
HETATM   15  C21 UNL     1      14.577   7.695  24.575  1.00  0.00     0.033 A 
HETATM   16  C22 UNL     1      15.377   6.746  23.979  1.00  0.00     0.033 A 
ENDROOT
BRANCH   1  17
HETATM   17  N2  UNL     1      17.418   7.873  24.285  1.00  0.00    -0.376 N 
ATOM     18  H2  UNL     1      16.932   8.625  24.776  1.00  0.00     0.161 HD
BRANCH  17  19
HETATM   19  C6  UNL     1      18.853   7.970  24.214  1.00  0.00     0.123 C 
BRANCH  19  20
HETATM   20  C5  UNL     1      19.495   8.799  23.205  1.00  0.00     0.047 C 
BRANCH  20  21
HETATM   21  C4  UNL     1      20.458   9.865  23.651  1.00  0.00     0.234 C 
BRANCH  21  22
HETATM   22  N1  UNL     1      21.653   9.884  22.839  1.00  0.00    -0.072 N 
ATOM     23  H12 UNL     1      22.126  10.784  22.923  1.00  0.00     0.277 HD
ATOM     24  H11 UNL     1      21.410   9.906  21.848  1.00  0.00     0.277 HD
BRANCH  22  25
HETATM   25  C3  UNL     1      22.574   8.807  23.106  1.00  0.00     0.259 C 
BRANCH  25  26
HETATM   26  C2  UNL     1      22.782   8.751  24.580  1.00  0.00    -0.010 C 
HETATM   27  C1  UNL     1      23.976   8.937  25.083  1.00  0.00     0.008 C 
ENDBRANCH  25  26
ENDBRANCH  22  25
ENDBRANCH  21  22
ENDBRANCH  20  21
ENDBRANCH  19  20
ENDBRANCH  17  19
ENDBRANCH   1  17
BRANCH  14  28
HETATM   28  N5  UNL     1      16.046   9.501  24.370  1.00  0.00    -0.373 N 
ATOM     29  H5  UNL     1      16.685   8.949  23.798  1.00  0.00     0.161 HD
BRANCH  28  30
HETATM   30  C17 UNL     1      16.371  10.900  24.634  1.00  0.00     0.147 C 
BRANCH  30  31
HETATM   31  C18 UNL     1      17.532  11.168  25.494  1.00  0.00     0.187 C 
BRANCH  31  32
HETATM   32  O1  UNL     1      17.732  10.369  26.583  1.00  0.00    -0.388 OA
BRANCH  32  33
HETATM   33  C19 UNL     1      16.831  10.626  27.581  1.00  0.00     0.195 C 
BRANCH  33  34
HETATM   34  C20 UNL     1      16.805  12.045  28.069  1.00  0.00     0.255 C 
BRANCH  34  35
HETATM   35  N6  UNL     1      15.510  12.648  28.096  1.00  0.00    -0.077 N 
ATOM     36  H63 UNL     1      15.562  13.576  28.518  1.00  0.00     0.274 HD
ATOM     37  H62 UNL     1      15.217  12.898  27.152  1.00  0.00     0.274 HD
ATOM     38  H61 UNL     1      14.787  12.092  28.553  1.00  0.00     0.274 HD
ENDBRANCH  34  35
ENDBRANCH  33  34
ENDBRANCH  32  33
ENDBRANCH  31  32
ENDBRANCH  30  31
ENDBRANCH  28  30
ENDBRANCH  14  28
TORSDOF 14
ENDMDL
MODEL 4
REMARK VINA RESULT: -7.241297210      2.518      5.772
REMARK  14 active torsions:
REMARK  status: ('A' for Active; 'I' for Inactive)
REMARK    1  A    between atoms: C2_2  and  C3_3 
REMARK    2  A    between atoms: C3_3  and  N1_4 
REMARK    3  A    between atoms: N1_4  and  C4_7 
REMARK    4  A    between atoms: C4_7  and  C5_8 
REMARK    5  A    between atoms: C5_8  and  C6_9 
REMARK    6  A    between atoms: C6_9  and  N2_10 
REMARK    7  A    between atoms: N2_10  and  C7_12 
REMARK    8  A    between atoms: C16_25  and  N5_26 
REMARK    9  A    between atoms: N5_26  and  C17_28 
REMARK   10  A    between atoms: C17_28  and  C18_29 
REMARK   11  A    between atoms: C18_29  and  O1_30 
REMARK   12  A    between atoms: O1_30  and  C19_31 
REMARK   13  A    between atoms: C19_31  and  C20_32 
REMARK   14  A    between atoms: C20_32  and  N6_33 
ROOT
HETATM    1  C7  UNL     1      17.035   7.494  23.576  1.00  0.00     0.113 A 
HETATM    2  N3  UNL     1      16.251   7.135  24.643  1.00  0.00    -0.352 N 
ATOM      3  H3  UNL     1      16.448   7.546  25.555  1.00  0.00     0.166 HD
HETATM    4  C8  UNL     1      15.235   6.265  24.537  1.00  0.00     0.090 A 
HETATM    5  C9  UNL     1      14.923   5.688  23.353  1.00  0.00     0.029 A 
HETATM    6  C10 UNL     1      15.683   6.019  22.265  1.00  0.00    -0.020 A 
HETATM    7  C11 UNL     1      15.303   5.523  21.033  1.00  0.00     0.013 A 
HETATM    8  C12 UNL     1      15.969   5.903  19.918  1.00  0.00     0.013 A 
HETATM    9  C13 UNL     1      17.029   6.775  19.994  1.00  0.00    -0.020 A 
HETATM   10  C14 UNL     1      17.717   7.067  18.859  1.00  0.00     0.029 A 
HETATM   11  C15 UNL     1      18.818   7.857  18.942  1.00  0.00     0.090 A 
HETATM   12  N4  UNL     1      19.221   8.335  20.127  1.00  0.00    -0.352 N 
ATOM     13  H4  UNL     1      20.055   8.921  20.162  1.00  0.00     0.166 HD
HETATM   14  C16 UNL     1      18.555   8.067  21.296  1.00  0.00     0.113 A 
HETATM   15  C21 UNL     1      17.446   7.298  21.244  1.00  0.00     0.033 A 
HETATM   16  C22 UNL     1      16.757   6.927  22.376  1.00  0.00     0.033 A 
ENDROOT
BRANCH   1  17
HETATM   17  N2  UNL     1      17.744   8.493  23.825  1.00  0.00    -0.376 N 
ATOM     18  H2  UNL     1      18.172   8.961  23.026  1.00  0.00     0.161 HD
BRANCH  17  19
HETATM   19  C6  UNL     1      18.020   9.052  25.125  1.00  0.00     0.123 C 
BRANCH  19  20
HETATM   20  C5  UNL     1      17.624  10.414  25.448  1.00  0.00     0.047 C 
BRANCH  20  21
HETATM   21  C4  UNL     1      16.725  10.643  26.632  1.00  0.00     0.234 C 
BRANCH  21  22
HETATM   22  N1  UNL     1      15.457  11.217  26.241  1.00  0.00    -0.072 N 
ATOM     23  H12 UNL     1      15.569  12.204  26.012  1.00  0.00     0.277 HD
ATOM     24  H11 UNL     1      14.838  11.294  27.048  1.00  0.00     0.277 HD
BRANCH  22  25
HETATM   25  C3  UNL     1      14.794  10.524  25.164  1.00  0.00     0.259 C 
BRANCH  25  26
HETATM   26  C2  UNL     1      13.892   9.508  25.773  1.00  0.00    -0.010 C 
HETATM   27  C1  UNL     1      12.860   9.059  25.104  1.00  0.00     0.008 C 
ENDBRANCH  25  26
ENDBRANCH  22  25
ENDBRANCH  21  22
ENDBRANCH  20  21
ENDBRANCH  19  20
ENDBRANCH  17  19
ENDBRANCH   1  17
BRANCH  14  28
HETATM   28  N5  UNL     1      19.236   8.355  22.311  1.00  0.00    -0.373 N 
ATOM     29  H5  UNL     1      18.754   8.688  23.146  1.00  0.00     0.161 HD
BRANCH  28  30
HETATM   30  C17 UNL     1      20.691   8.233  22.343  1.00  0.00     0.147 C 
BRANCH  30  31
HETATM   31  C18 UNL     1      21.354   8.463  23.635  1.00  0.00     0.187 C 
BRANCH  31  32
HETATM   32  O1  UNL     1      21.281   7.486  24.586  1.00  0.00    -0.388 OA
BRANCH  32  33
HETATM   33  C19 UNL     1      21.573   7.964  25.836  1.00  0.00     0.195 C 
BRANCH  33  34
HETATM   34  C20 UNL     1      22.587   7.167  26.604  1.00  0.00     0.255 C 
BRANCH  34  35
HETATM   35  N6  UNL     1      22.046   6.099  27.384  1.00  0.00    -0.077 N 
ATOM     36  H63 UNL     1      21.190   5.747  26.955  1.00  0.00     0.274 HD
ATOM     37  H62 UNL     1      22.637   5.272  27.307  1.00  0.00     0.274 HD
ATOM     38  H61 UNL     1      21.882   6.325  28.365  1.00  0.00     0.274 HD
ENDBRANCH  34  35
ENDBRANCH  33  34
ENDBRANCH  32  33
ENDBRANCH  31  32
ENDBRANCH  30  31
ENDBRANCH  28  30
ENDBRANCH  14  28
TORSDOF 14
ENDMDL
MODEL 5
REMARK VINA RESULT: -7.015395348      2.060      5.181
REMARK  14 active torsions:
REMARK  status: ('A' for Active; 'I' for Inactive)
REMARK    1  A    between atoms: C2_2  and  C3_3 
REMARK    2  A    between atoms: C3_3  and  N1_4 
REMARK    3  A    between atoms: N1_4  and  C4_7 
REMARK    4  A    between atoms: C4_7  and  C5_8 
REMARK    5  A    between atoms: C5_8  and  C6_9 
REMARK    6  A    between atoms: C6_9  and  N2_10 
REMARK    7  A    between atoms: N2_10  and  C7_12 
REMARK    8  A    between atoms: C16_25  and  N5_26 
REMARK    9  A    between atoms: N5_26  and  C17_28 
REMARK   10  A    between atoms: C17_28  and  C18_29 
REMARK   11  A    between atoms: C18_29  and  O1_30 
REMARK   12  A    between atoms: O1_30  and  C19_31 
REMARK   13  A    between atoms: C19_31  and  C20_32 
REMARK   14  A    between atoms: C20_32  and  N6_33 
ROOT
HETATM    1  C7  UNL     1      15.786   6.372  23.754  1.00  0.00     0.113 A 
HETATM    2  N3  UNL     1      15.082   5.207  23.586  1.00  0.00    -0.352 N 
ATOM      3  H3  UNL     1      15.550   4.411  23.153  1.00  0.00     0.166 HD
HETATM    4  C8  UNL     1      13.803   5.071  23.968  1.00  0.00     0.090 A 
HETATM    5  C9  UNL     1      13.129   6.090  24.550  1.00  0.00     0.029 A 
HETATM    6  C10 UNL     1      13.796   7.270  24.733  1.00  0.00    -0.020 A 
HETATM    7  C11 UNL     1      13.153   8.278  25.426  1.00  0.00     0.013 A 
HETATM    8  C12 UNL     1      13.812   9.425  25.714  1.00  0.00     0.013 A 
HETATM    9  C13 UNL     1      15.116   9.606  25.317  1.00  0.00    -0.020 A 
HETATM   10  C14 UNL     1      15.711  10.804  25.559  1.00  0.00     0.029 A 
HETATM   11  C15 UNL     1      16.967  11.020  25.092  1.00  0.00     0.090 A 
HETATM   12  N4  UNL     1      17.606  10.068  24.399  1.00  0.00    -0.352 N 
ATOM     13  H4  UNL     1      18.547  10.259  24.055  1.00  0.00     0.166 HD
HETATM   14  C16 UNL     1      17.043   8.845  24.135  1.00  0.00     0.113 A 
HETATM   15  C21 UNL     1      15.801   8.593  24.601  1.00  0.00     0.033 A 
HETATM   16  C22 UNL     1      15.138   7.419  24.325  1.00  0.00     0.033 A 
ENDROOT
BRANCH   1  17
HETATM   17  N2  UNL     1      17.013   6.214  23.576  1.00  0.00    -0.376 N 
ATOM     18  H2  UNL     1      17.605   7.033  23.714  1.00  0.00     0.161 HD
BRANCH  17  19
HETATM   19  C6  UNL     1      17.677   4.993  23.196  1.00  0.00     0.123 C 
BRANCH  19  20
HETATM   20  C5  UNL     1      18.413   4.904  21.944  1.00  0.00     0.047 C 
BRANCH  20  21
HETATM   21  C4  UNL     1      17.645   4.951  20.651  1.00  0.00     0.234 C 
BRANCH  21  22
HETATM   22  N1  UNL     1      17.667   6.270  20.060  1.00  0.00    -0.072 N 
ATOM     23  H12 UNL     1      18.176   6.256  19.177  1.00  0.00     0.277 HD
ATOM     24  H11 UNL     1      18.269   6.892  20.599  1.00  0.00     0.277 HD
BRANCH  22  25
HETATM   25  C3  UNL     1      16.365   6.865  19.879  1.00  0.00     0.259 C 
BRANCH  25  26
HETATM   26  C2  UNL     1      15.359   5.768  19.938  1.00  0.00    -0.010 C 
HETATM   27  C1  UNL     1      14.285   5.819  19.192  1.00  0.00     0.008 C 
ENDBRANCH  25  26
ENDBRANCH  22  25
ENDBRANCH  21  22
ENDBRANCH  20  21
ENDBRANCH  19  20
ENDBRANCH  17  19
ENDBRANCH   1  17
BRANCH  14  28
HETATM   28  N5  UNL     1      17.666   8.214  23.246  1.00  0.00    -0.373 N 
ATOM     29  H5  UNL     1      17.240   7.376  22.850  1.00  0.00     0.161 HD
BRANCH  28  30
HETATM   30  C17 UNL     1      18.977   8.633  22.757  1.00  0.00     0.147 C 
BRANCH  30  31
HETATM   31  C18 UNL     1      20.145   7.881  23.239  1.00  0.00     0.187 C 
BRANCH  31  32
HETATM   32  O1  UNL     1      20.060   7.258  24.452  1.00  0.00    -0.388 OA
BRANCH  32  33
HETATM   33  C19 UNL     1      20.487   8.064  25.473  1.00  0.00     0.195 C 
BRANCH  33  34
HETATM   34  C20 UNL     1      21.907   7.848  25.908  1.00  0.00     0.255 C 
BRANCH  34  35
HETATM   35  N6  UNL     1      22.087   6.821  26.885  1.00  0.00    -0.077 N 
ATOM     36  H63 UNL     1      22.093   5.905  26.436  1.00  0.00     0.274 HD
ATOM     37  H62 UNL     1      23.038   6.846  27.251  1.00  0.00     0.274 HD
ATOM     38  H61 UNL     1      21.414   6.835  27.651  1.00  0.00     0.274 HD
ENDBRANCH  34  35
ENDBRANCH  33  34
ENDBRANCH  32  33
ENDBRANCH  31  32
ENDBRANCH  30  31
ENDBRANCH  28  30
ENDBRANCH  14  28
TORSDOF 14
ENDMDL
