MODEL 1
REMARK VINA RESULT: -7.548829229      0.000      0.000
REMARK  6 active torsions:
REMARK  status: ('A' for Active; 'I' for Inactive)
REMARK    1  A    between atoms: C2_2  and  O1_3 
REMARK    2  A    between atoms: O1_3  and  C3_4 
REMARK    3  A    between atoms: C3_4  and  C4_6 
REMARK    4  A    between atoms: C4_6  and  N1_9 
REMARK    5  A    between atoms: C8_11  and  N2_12 
REMARK       I    between atoms: N2_12  and  C9_14 
REMARK    6  A    between atoms: C9_14  and  C10_16 
ROOT
HETATM    1  N2  UNL     1      -0.622   5.068  12.479  1.00  0.00    -0.323 N 
ATOM      2  H2  UNL     1       0.257   5.045  12.996  1.00  0.00     0.169 HD
HETATM    3  C9  UNL     1      -0.549   5.397  11.125  1.00  0.00     0.253 C 
HETATM    4  O3  UNL     1      -1.576   5.449  10.423  1.00  0.00    -0.271 OA
ENDROOT
BRANCH   1   5
HETATM    5  C8  UNL     1      -1.797   4.764  13.204  1.00  0.00     0.075 A 
HETATM    6  C7  UNL     1      -2.493   3.590  13.305  1.00  0.00     0.125 A 
HETATM    7  N1  UNL     1      -3.569   3.671  14.089  1.00  0.00    -0.325 N 
HETATM    8  C21 UNL     1      -3.586   4.970  14.529  1.00  0.00     0.131 A 
HETATM    9  C20 UNL     1      -2.525   5.646  14.006  1.00  0.00     0.101 A 
HETATM   10 CL2  UNL     1      -4.780   5.703  15.615  1.00  0.00    -0.062 Cl
HETATM   11 CL1  UNL     1      -2.079   7.324  14.246  1.00  0.00    -0.078 Cl
BRANCH   7  12
HETATM   12  C4  UNL     1      -4.590   2.769  14.504  1.00  0.00     0.118 C 
HETATM   13  C5  UNL     1      -5.984   3.411  14.393  1.00  0.00     0.049 C 
HETATM   14  C6  UNL     1      -4.539   1.550  13.569  1.00  0.00     0.049 C 
BRANCH  12  15
HETATM   15  C3  UNL     1      -4.496   2.241  15.864  1.00  0.00     0.287 C 
HETATM   16  O2  UNL     1      -3.646   1.437  16.297  1.00  0.00    -0.262 OA
BRANCH  15  17
HETATM   17  O1  UNL     1      -5.442   2.644  16.848  1.00  0.00    -0.320 OA
BRANCH  17  18
HETATM   18  C2  UNL     1      -6.012   1.726  17.727  1.00  0.00     0.174 C 
HETATM   19  C1  UNL     1      -7.147   1.039  17.007  1.00  0.00     0.034 C 
ENDBRANCH  17  18
ENDBRANCH  15  17
ENDBRANCH  12  15
ENDBRANCH   7  12
ENDBRANCH   1   5
BRANCH   3  20
HETATM   20  C10 UNL     1       0.741   5.704  10.444  1.00  0.00     0.278 C 
HETATM   21  C11 UNL     1       1.810   4.716  10.762  1.00  0.00     0.045 C 
HETATM   22  C12 UNL     1       2.199   4.126   9.447  1.00  0.00     0.042 C 
HETATM   23  C13 UNL     1       1.287   4.733   8.411  1.00  0.00     0.134 C 
HETATM   24  C14 UNL     1       0.325   3.651   7.896  1.00  0.00     0.075 C 
HETATM   25  C17 UNL     1       2.078   5.100   7.194  1.00  0.00     0.052 C 
HETATM   26  N4  UNL     1       0.601   5.820   9.029  1.00  0.00    -0.053 N 
HETATM   27  C15 UNL     1       0.693   3.479   6.449  1.00  0.00     0.225 C 
HETATM   28  C16 UNL     1       2.212   3.716   6.529  1.00  0.00     0.044 C 
HETATM   29  N3  UNL     1       0.278   4.672   5.747  1.00  0.00     0.089 N 
HETATM   30  C18 UNL     1       1.158   5.745   6.167  1.00  0.00     0.279 C 
HETATM   31  C19 UNL     1       0.232   4.503   4.325  1.00  0.00     0.310 C 
ATOM     32  H42 UNL     1      -0.374   5.883   8.737  1.00  0.00     0.279 HD
ATOM     33  H41 UNL     1       0.911   6.727   8.679  1.00  0.00     0.279 HD
ENDBRANCH   3  20
TORSDOF 6
ENDMDL
MODEL 2
REMARK VINA RESULT: -7.264349576      5.320      9.513
REMARK  6 active torsions:
REMARK  status: ('A' for Active; 'I' for Inactive)
REMARK    1  A    between atoms: C2_2  and  O1_3 
REMARK    2  A    between atoms: O1_3  and  C3_4 
REMARK    3  A    between atoms: C3_4  and  C4_6 
REMARK    4  A    between atoms: C4_6  and  N1_9 
REMARK    5  A    between atoms: C8_11  and  N2_12 
REMARK       I    between atoms: N2_12  and  C9_14 
REMARK    6  A    between atoms: C9_14  and  C10_16 
ROOT
HETATM    1  N2  UNL     1      -3.791   5.256  11.329  1.00  0.00    -0.323 N 
ATOM      2  H2  UNL     1      -3.177   5.861  11.875  1.00  0.00     0.169 HD
HETATM    3  C9  UNL     1      -3.951   3.946  11.783  1.00  0.00     0.253 C 
HETATM    4  O3  UNL     1      -4.681   3.143  11.173  1.00  0.00    -0.271 OA
ENDROOT
BRANCH   1   5
HETATM    5  C8  UNL     1      -4.397   5.826  10.186  1.00  0.00     0.075 A 
HETATM    6  C7  UNL     1      -5.609   6.443  10.044  1.00  0.00     0.125 A 
HETATM    7  N1  UNL     1      -5.855   6.863   8.802  1.00  0.00    -0.325 N 
HETATM    8  C21 UNL     1      -4.744   6.503   8.083  1.00  0.00     0.131 A 
HETATM    9  C20 UNL     1      -3.852   5.875   8.900  1.00  0.00     0.101 A 
HETATM   10 CL2  UNL     1      -4.462   6.791   6.358  1.00  0.00    -0.062 Cl
HETATM   11 CL1  UNL     1      -2.279   5.217   8.492  1.00  0.00    -0.078 Cl
BRANCH   7  12
HETATM   12  C4  UNL     1      -6.931   7.534   8.155  1.00  0.00     0.118 C 
HETATM   13  C5  UNL     1      -7.695   6.588   7.211  1.00  0.00     0.049 C 
HETATM   14  C6  UNL     1      -7.899   8.019   9.246  1.00  0.00     0.049 C 
BRANCH  12  15
HETATM   15  C3  UNL     1      -6.595   8.713   7.358  1.00  0.00     0.287 C 
HETATM   16  O2  UNL     1      -5.848   9.654   7.694  1.00  0.00    -0.262 OA
BRANCH  15  17
HETATM   17  O1  UNL     1      -7.143   8.868   6.054  1.00  0.00    -0.320 OA
BRANCH  17  18
HETATM   18  C2  UNL     1      -7.869  10.003   5.700  1.00  0.00     0.174 C 
HETATM   19  C1  UNL     1      -9.266   9.849   6.249  1.00  0.00     0.034 C 
ENDBRANCH  17  18
ENDBRANCH  15  17
ENDBRANCH  12  15
ENDBRANCH   7  12
ENDBRANCH   1   5
BRANCH   3  20
HETATM   20  C10 UNL     1      -3.268   3.434  13.005  1.00  0.00     0.278 C 
HETATM   21  C11 UNL     1      -2.786   4.526  13.896  1.00  0.00     0.045 C 
HETATM   22  C12 UNL     1      -3.491   4.309  15.194  1.00  0.00     0.042 C 
HETATM   23  C13 UNL     1      -4.424   3.141  14.994  1.00  0.00     0.134 C 
HETATM   24  C14 UNL     1      -5.873   3.650  15.016  1.00  0.00     0.075 C 
HETATM   25  C17 UNL     1      -4.359   2.231  16.180  1.00  0.00     0.052 C 
HETATM   26  N4  UNL     1      -4.082   2.530  13.750  1.00  0.00    -0.053 N 
HETATM   27  C15 UNL     1      -6.476   3.014  16.237  1.00  0.00     0.225 C 
HETATM   28  C16 UNL     1      -5.250   3.008  17.168  1.00  0.00     0.044 C 
HETATM   29  N3  UNL     1      -6.612   1.600  15.972  1.00  0.00     0.089 N 
HETATM   30  C18 UNL     1      -5.275   1.037  15.954  1.00  0.00     0.279 C 
HETATM   31  C19 UNL     1      -7.492   0.936  16.886  1.00  0.00     0.310 C 
ATOM     32  H42 UNL     1      -4.903   2.222  13.228  1.00  0.00     0.279 HD
ATOM     33  H41 UNL     1      -3.643   1.617  13.872  1.00  0.00     0.279 HD
ENDBRANCH   3  20
TORSDOF 6
ENDMDL
MODEL 3
REMARK VINA RESULT: -7.237927346      6.748      7.763
REMARK  6 active torsions:
REMARK  status: ('A' for Active; 'I' for Inactive)
REMARK    1  A    between atoms: C2_2  and  O1_3 
REMARK    2  A    between atoms: O1_3  and  C3_4 
REMARK    3  A    between atoms: C3_4  and  C4_6 
REMARK    4  A    between atoms: C4_6  and  N1_9 
REMARK    5  A    between atoms: C8_11  and  N2_12 
REMARK       I    between atoms: N2_12  and  C9_14 
REMARK    6  A    between atoms: C9_14  and  C10_16 
ROOT
HETATM    1  N2  UNL     1      -4.787   7.808   9.805  1.00  0.00    -0.323 N 
ATOM      2  H2  UNL     1      -4.290   8.687   9.947  1.00  0.00     0.169 HD
HETATM    3  C9  UNL     1      -5.424   7.635   8.576  1.00  0.00     0.253 C 
HETATM    4  O3  UNL     1      -6.055   6.592   8.323  1.00  0.00    -0.271 OA
ENDROOT
BRANCH   1   5
HETATM    5  C8  UNL     1      -4.766   6.882  10.873  1.00  0.00     0.075 A 
HETATM    6  C7  UNL     1      -3.783   6.019  11.273  1.00  0.00     0.125 A 
HETATM    7  N1  UNL     1      -4.115   5.285  12.337  1.00  0.00    -0.325 N 
HETATM    8  C21 UNL     1      -5.387   5.684  12.657  1.00  0.00     0.131 A 
HETATM    9  C20 UNL     1      -5.798   6.648  11.786  1.00  0.00     0.101 A 
HETATM   10 CL2  UNL     1      -6.382   5.076  13.990  1.00  0.00    -0.062 Cl
HETATM   11 CL1  UNL     1      -7.332   7.495  11.745  1.00  0.00    -0.078 Cl
BRANCH   7  12
HETATM   12  C4  UNL     1      -3.472   4.276  13.111  1.00  0.00     0.118 C 
HETATM   13  C5  UNL     1      -2.020   4.056  12.650  1.00  0.00     0.049 C 
HETATM   14  C6  UNL     1      -3.452   4.756  14.571  1.00  0.00     0.049 C 
BRANCH  12  15
HETATM   15  C3  UNL     1      -4.095   2.954  13.127  1.00  0.00     0.287 C 
HETATM   16  O2  UNL     1      -3.986   2.087  14.018  1.00  0.00    -0.262 OA
BRANCH  15  17
HETATM   17  O1  UNL     1      -4.925   2.547  12.046  1.00  0.00    -0.320 OA
BRANCH  17  18
HETATM   18  C2  UNL     1      -4.396   1.925  10.917  1.00  0.00     0.174 C 
HETATM   19  C1  UNL     1      -4.690   0.448  11.021  1.00  0.00     0.034 C 
ENDBRANCH  17  18
ENDBRANCH  15  17
ENDBRANCH  12  15
ENDBRANCH   7  12
ENDBRANCH   1   5
BRANCH   3  20
HETATM   20  C10 UNL     1      -5.392   8.672   7.506  1.00  0.00     0.278 C 
HETATM   21  C11 UNL     1      -5.544   8.097   6.140  1.00  0.00     0.045 C 
HETATM   22  C12 UNL     1      -6.774   8.733   5.583  1.00  0.00     0.042 C 
HETATM   23  C13 UNL     1      -7.347   9.602   6.674  1.00  0.00     0.134 C 
HETATM   24  C14 UNL     1      -8.659   8.978   7.173  1.00  0.00     0.075 C 
HETATM   25  C17 UNL     1      -7.784  10.913   6.100  1.00  0.00     0.052 C 
HETATM   26  N4  UNL     1      -6.365   9.697   7.705  1.00  0.00    -0.053 N 
HETATM   27  C15 UNL     1      -9.718   9.976   6.795  1.00  0.00     0.225 C 
HETATM   28  C16 UNL     1      -9.130  10.501   5.472  1.00  0.00     0.044 C 
HETATM   29  N3  UNL     1      -9.546  11.137   7.637  1.00  0.00     0.089 N 
HETATM   30  C18 UNL     1      -8.326  11.798   7.213  1.00  0.00     0.279 C 
HETATM   31  C19 UNL     1     -10.686  12.004   7.643  1.00  0.00     0.310 C 
ATOM     32  H42 UNL     1      -6.775   9.669   8.638  1.00  0.00     0.279 HD
ATOM     33  H41 UNL     1      -5.948  10.626   7.762  1.00  0.00     0.279 HD
ENDBRANCH   3  20
TORSDOF 6
ENDMDL
MODEL 4
REMARK VINA RESULT: -7.196186790      6.744      7.637
REMARK  6 active torsions:
REMARK  status: ('A' for Active; 'I' for Inactive)
REMARK    1  A    between atoms: C2_2  and  O1_3 
REMARK    2  A    between atoms: O1_3  and  C3_4 
REMARK    3  A    between atoms: C3_4  and  C4_6 
REMARK    4  A    between atoms: C4_6  and  N1_9 
REMARK    5  A    between atoms: C8_11  and  N2_12 
REMARK       I    between atoms: N2_12  and  C9_14 
REMARK    6  A    between atoms: C9_14  and  C10_16 
ROOT
HETATM    1  N2  UNL     1      -4.780   7.837   9.642  1.00  0.00    -0.323 N 
ATOM      2  H2  UNL     1      -4.335   8.741   9.803  1.00  0.00     0.169 HD
HETATM    3  C9  UNL     1      -5.384   7.643   8.399  1.00  0.00     0.253 C 
HETATM    4  O3  UNL     1      -5.950   6.570   8.124  1.00  0.00    -0.271 OA
ENDROOT
BRANCH   1   5
HETATM    5  C8  UNL     1      -4.727   6.902  10.701  1.00  0.00     0.075 A 
HETATM    6  C7  UNL     1      -3.747   6.012  11.044  1.00  0.00     0.125 A 
HETATM    7  N1  UNL     1      -4.042   5.277  12.118  1.00  0.00    -0.325 N 
HETATM    8  C21 UNL     1      -5.286   5.705  12.505  1.00  0.00     0.131 A 
HETATM    9  C20 UNL     1      -5.718   6.685  11.663  1.00  0.00     0.101 A 
HETATM   10 CL2  UNL     1      -6.228   5.109  13.883  1.00  0.00    -0.062 Cl
HETATM   11 CL1  UNL     1      -7.231   7.569  11.706  1.00  0.00    -0.078 Cl
BRANCH   7  12
HETATM   12  C4  UNL     1      -3.386   4.248  12.852  1.00  0.00     0.118 C 
HETATM   13  C5  UNL     1      -2.030   3.886  12.219  1.00  0.00     0.049 C 
HETATM   14  C6  UNL     1      -3.135   4.778  14.272  1.00  0.00     0.049 C 
BRANCH  12  15
HETATM   15  C3  UNL     1      -4.105   2.986  13.012  1.00  0.00     0.287 C 
HETATM   16  O2  UNL     1      -4.943   2.497  12.226  1.00  0.00    -0.262 OA
BRANCH  15  17
HETATM   17  O1  UNL     1      -3.876   2.178  14.161  1.00  0.00    -0.320 OA
BRANCH  17  18
HETATM   18  C2  UNL     1      -4.931   1.690  14.930  1.00  0.00     0.174 C 
HETATM   19  C1  UNL     1      -4.667   2.062  16.368  1.00  0.00     0.034 C 
ENDBRANCH  17  18
ENDBRANCH  15  17
ENDBRANCH  12  15
ENDBRANCH   7  12
ENDBRANCH   1   5
BRANCH   3  20
HETATM   20  C10 UNL     1      -5.389   8.693   7.340  1.00  0.00     0.278 C 
HETATM   21  C11 UNL     1      -5.560   8.130   5.971  1.00  0.00     0.045 C 
HETATM   22  C12 UNL     1      -6.812   8.753   5.448  1.00  0.00     0.042 C 
HETATM   23  C13 UNL     1      -7.374   9.602   6.560  1.00  0.00     0.134 C 
HETATM   24  C14 UNL     1      -8.666   8.953   7.079  1.00  0.00     0.075 C 
HETATM   25  C17 UNL     1      -7.842  10.912   6.010  1.00  0.00     0.052 C 
HETATM   26  N4  UNL     1      -6.372   9.700   7.571  1.00  0.00    -0.053 N 
HETATM   27  C15 UNL     1      -9.747   9.939   6.734  1.00  0.00     0.225 C 
HETATM   28  C16 UNL     1      -9.195  10.487   5.405  1.00  0.00     0.044 C 
HETATM   29  N3  UNL     1      -9.575  11.093   7.586  1.00  0.00     0.089 N 
HETATM   30  C18 UNL     1      -8.374  11.777   7.144  1.00  0.00     0.279 C 
HETATM   31  C19 UNL     1     -10.727  11.943   7.625  1.00  0.00     0.310 C 
ATOM     32  H42 UNL     1      -6.762   9.656   8.513  1.00  0.00     0.279 HD
ATOM     33  H41 UNL     1      -5.968  10.635   7.630  1.00  0.00     0.279 HD
ENDBRANCH   3  20
TORSDOF 6
ENDMDL
MODEL 5
REMARK VINA RESULT: -7.193029226      2.649      3.845
REMARK  6 active torsions:
REMARK  status: ('A' for Active; 'I' for Inactive)
REMARK    1  A    between atoms: C2_2  and  O1_3 
REMARK    2  A    between atoms: O1_3  and  C3_4 
REMARK    3  A    between atoms: C3_4  and  C4_6 
REMARK    4  A    between atoms: C4_6  and  N1_9 
REMARK    5  A    between atoms: C8_11  and  N2_12 
REMARK       I    between atoms: N2_12  and  C9_14 
REMARK    6  A    between atoms: C9_14  and  C10_16 
ROOT
HETATM    1  N2  UNL     1      -1.245   3.935  11.032  1.00  0.00    -0.323 N 
ATOM      2  H2  UNL     1      -0.307   4.057  11.413  1.00  0.00     0.169 HD
HETATM    3  C9  UNL     1      -1.456   4.374   9.724  1.00  0.00     0.253 C 
HETATM    4  O3  UNL     1      -2.572   4.262   9.184  1.00  0.00    -0.271 OA
ENDROOT
BRANCH   1   5
HETATM    5  C8  UNL     1      -2.206   3.338  11.879  1.00  0.00     0.075 A 
HETATM    6  C7  UNL     1      -2.895   3.860  12.939  1.00  0.00     0.125 A 
HETATM    7  N1  UNL     1      -3.732   2.995  13.513  1.00  0.00    -0.325 N 
HETATM    8  C21 UNL     1      -3.588   1.836  12.793  1.00  0.00     0.131 A 
HETATM    9  C20 UNL     1      -2.672   2.022  11.802  1.00  0.00     0.101 A 
HETATM   10 CL2  UNL     1      -4.444   0.308  13.067  1.00  0.00    -0.062 Cl
HETATM   11 CL1  UNL     1      -2.118   0.870  10.603  1.00  0.00    -0.078 Cl
BRANCH   7  12
HETATM   12  C4  UNL     1      -4.640   3.040  14.610  1.00  0.00     0.118 C 
HETATM   13  C5  UNL     1      -4.502   4.356  15.397  1.00  0.00     0.049 C 
HETATM   14  C6  UNL     1      -6.064   2.962  14.036  1.00  0.00     0.049 C 
BRANCH  12  15
HETATM   15  C3  UNL     1      -4.542   1.967  15.598  1.00  0.00     0.287 C 
HETATM   16  O2  UNL     1      -3.504   1.558  16.156  1.00  0.00    -0.262 OA
BRANCH  15  17
HETATM   17  O1  UNL     1      -5.713   1.274  16.012  1.00  0.00    -0.320 OA
BRANCH  17  18
HETATM   18  C2  UNL     1      -5.949   0.981  17.353  1.00  0.00     0.174 C 
HETATM   19  C1  UNL     1      -6.160   2.285  18.082  1.00  0.00     0.034 C 
ENDBRANCH  17  18
ENDBRANCH  15  17
ENDBRANCH  12  15
ENDBRANCH   7  12
ENDBRANCH   1   5
BRANCH   3  20
HETATM   20  C10 UNL     1      -0.376   4.994   8.904  1.00  0.00     0.278 C 
HETATM   21  C11 UNL     1      -0.585   6.453   8.685  1.00  0.00     0.045 C 
HETATM   22  C12 UNL     1       0.615   7.112   9.282  1.00  0.00     0.042 C 
HETATM   23  C13 UNL     1       1.449   6.019   9.901  1.00  0.00     0.134 C 
HETATM   24  C14 UNL     1       1.397   6.157  11.430  1.00  0.00     0.075 C 
HETATM   25  C17 UNL     1       2.894   6.243   9.583  1.00  0.00     0.052 C 
HETATM   26  N4  UNL     1       0.923   4.772   9.450  1.00  0.00    -0.053 N 
HETATM   27  C15 UNL     1       2.809   6.488  11.826  1.00  0.00     0.225 C 
HETATM   28  C16 UNL     1       3.234   7.337  10.614  1.00  0.00     0.044 C 
HETATM   29  N3  UNL     1       3.612   5.307  11.613  1.00  0.00     0.089 N 
HETATM   30  C18 UNL     1       3.726   5.117  10.180  1.00  0.00     0.279 C 
HETATM   31  C19 UNL     1       4.880   5.358  12.278  1.00  0.00     0.310 C 
ATOM     32  H42 UNL     1       0.923   4.061  10.182  1.00  0.00     0.279 HD
ATOM     33  H41 UNL     1       1.546   4.299   8.795  1.00  0.00     0.279 HD
ENDBRANCH   3  20
TORSDOF 6
ENDMDL
