MODEL 1
REMARK VINA RESULT: -4.272567383      0.000      0.000
REMARK  2 active torsions:
REMARK  status: ('A' for Active; 'I' for Inactive)
REMARK    1  A    between atoms: O1_1  and  C1_3 
REMARK    2  A    between atoms: C7_10  and  O2_11 
ROOT
HETATM    1  C1  UNL     1      16.385  17.500  22.313  1.00  0.00     0.183 C 
HETATM    2  C2  UNL     1      15.555  16.299  21.914  1.00  0.00     0.047 C 
HETATM    3  C3  UNL     1      16.335  15.040  22.241  1.00  0.00     0.011 C 
HETATM    4  C4  UNL     1      17.101  14.655  20.986  1.00  0.00     0.031 C 
HETATM    5  C5  UNL     1      17.712  15.871  20.325  1.00  0.00     0.276 C 
HETATM    6  N1  UNL     1      16.752  16.906  20.052  1.00  0.00     0.120 N 
HETATM    7  C6  UNL     1      15.397  16.455  20.407  1.00  0.00     0.283 C 
HETATM    8  C7  UNL     1      16.877  18.030  20.993  1.00  0.00     0.385 C 
ENDROOT
BRANCH   1   9
HETATM    9  O1  UNL     1      15.533  18.442  22.912  1.00  0.00    -0.391 OA
ATOM     10  H1  UNL     1      16.070  19.121  23.303  1.00  0.00     0.210 HD
ENDBRANCH   1   9
BRANCH   8  11
HETATM   11  O2  UNL     1      18.158  18.531  21.037  1.00  0.00    -0.366 OA
ATOM     12  H2  UNL     1      18.255  19.376  20.615  1.00  0.00     0.212 HD
ENDBRANCH   8  11
TORSDOF 2
ENDMDL
MODEL 2
REMARK VINA RESULT: -3.752799466      6.709      7.729
REMARK  2 active torsions:
REMARK  status: ('A' for Active; 'I' for Inactive)
REMARK    1  A    between atoms: O1_1  and  C1_3 
REMARK    2  A    between atoms: C7_10  and  O2_11 
ROOT
HETATM    1  C1  UNL     1      14.889  13.724  28.019  1.00  0.00     0.183 C 
HETATM    2  C2  UNL     1      15.069  12.646  26.970  1.00  0.00     0.047 C 
HETATM    3  C3  UNL     1      15.171  13.308  25.608  1.00  0.00     0.011 C 
HETATM    4  C4  UNL     1      13.767  13.336  25.025  1.00  0.00     0.031 C 
HETATM    5  C5  UNL     1      12.749  13.729  26.073  1.00  0.00     0.276 C 
HETATM    6  N1  UNL     1      12.806  12.906  27.250  1.00  0.00     0.120 N 
HETATM    7  C6  UNL     1      13.790  11.827  27.074  1.00  0.00     0.283 C 
HETATM    8  C7  UNL     1      13.433  13.610  28.380  1.00  0.00     0.385 C 
ENDROOT
BRANCH   1   9
HETATM    9  O1  UNL     1      15.679  13.390  29.130  1.00  0.00    -0.391 OA
ATOM     10  H1  UNL     1      15.157  13.517  29.914  1.00  0.00     0.210 HD
ENDBRANCH   1   9
BRANCH   8  11
HETATM   11  O2  UNL     1      12.828  14.818  28.639  1.00  0.00    -0.366 OA
ATOM     12  H2  UNL     1      12.712  14.998  29.564  1.00  0.00     0.212 HD
ENDBRANCH   8  11
TORSDOF 2
ENDMDL
MODEL 3
REMARK VINA RESULT: -3.626214031      4.577      5.873
REMARK  2 active torsions:
REMARK  status: ('A' for Active; 'I' for Inactive)
REMARK    1  A    between atoms: O1_1  and  C1_3 
REMARK    2  A    between atoms: C7_10  and  O2_11 
ROOT
HETATM    1  C1  UNL     1      16.183  13.989  25.307  1.00  0.00     0.183 C 
HETATM    2  C2  UNL     1      16.198  13.369  23.926  1.00  0.00     0.047 C 
HETATM    3  C3  UNL     1      15.187  14.094  23.057  1.00  0.00     0.011 C 
HETATM    4  C4  UNL     1      13.884  13.318  23.154  1.00  0.00     0.031 C 
HETATM    5  C5  UNL     1      13.609  12.889  24.578  1.00  0.00     0.276 C 
HETATM    6  N1  UNL     1      14.696  12.154  25.165  1.00  0.00     0.120 N 
HETATM    7  C6  UNL     1      15.759  11.932  24.173  1.00  0.00     0.283 C 
HETATM    8  C7  UNL     1      15.448  12.968  26.133  1.00  0.00     0.385 C 
ENDROOT
BRANCH   1   9
HETATM    9  O1  UNL     1      17.509  14.094  25.755  1.00  0.00    -0.391 OA
ATOM     10  H1  UNL     1      17.498  14.459  26.632  1.00  0.00     0.210 HD
ENDBRANCH   1   9
BRANCH   8  11
HETATM   11  O2  UNL     1      14.632  13.515  27.097  1.00  0.00    -0.366 OA
ATOM     12  H2  UNL     1      13.748  13.167  27.094  1.00  0.00     0.212 HD
ENDBRANCH   8  11
TORSDOF 2
ENDMDL
MODEL 4
REMARK VINA RESULT: -3.589878352      8.008      9.395
REMARK  2 active torsions:
REMARK  status: ('A' for Active; 'I' for Inactive)
REMARK    1  A    between atoms: O1_1  and  C1_3 
REMARK    2  A    between atoms: C7_10  and  O2_11 
ROOT
HETATM    1  C1  UNL     1      24.679  17.293  16.157  1.00  0.00     0.183 C 
HETATM    2  C2  UNL     1      25.149  15.854  16.177  1.00  0.00     0.047 C 
HETATM    3  C3  UNL     1      23.934  14.946  16.118  1.00  0.00     0.011 C 
HETATM    4  C4  UNL     1      23.559  14.615  17.553  1.00  0.00     0.031 C 
HETATM    5  C5  UNL     1      23.647  15.841  18.436  1.00  0.00     0.276 C 
HETATM    6  N1  UNL     1      24.926  16.493  18.370  1.00  0.00     0.120 N 
HETATM    7  C6  UNL     1      25.850  15.723  17.522  1.00  0.00     0.283 C 
HETATM    8  C7  UNL     1      24.868  17.734  17.583  1.00  0.00     0.385 C 
ENDROOT
BRANCH   1   9
HETATM    9  O1  UNL     1      25.537  18.022  15.319  1.00  0.00    -0.391 OA
ATOM     10  H1  UNL     1      25.843  18.784  15.798  1.00  0.00     0.210 HD
ENDBRANCH   1   9
BRANCH   8  11
HETATM   11  O2  UNL     1      23.890  18.590  18.035  1.00  0.00    -0.366 OA
ATOM     12  H2  UNL     1      23.011  18.238  17.970  1.00  0.00     0.212 HD
ENDBRANCH   8  11
TORSDOF 2
ENDMDL
MODEL 5
REMARK VINA RESULT: -3.579817331      4.553      5.543
REMARK  2 active torsions:
REMARK  status: ('A' for Active; 'I' for Inactive)
REMARK    1  A    between atoms: O1_1  and  C1_3 
REMARK    2  A    between atoms: C7_10  and  O2_11 
ROOT
HETATM    1  C1  UNL     1      16.605  13.267  25.164  1.00  0.00     0.183 C 
HETATM    2  C2  UNL     1      15.444  12.871  26.052  1.00  0.00     0.047 C 
HETATM    3  C3  UNL     1      15.209  11.379  25.906  1.00  0.00     0.011 C 
HETATM    4  C4  UNL     1      14.158  11.201  24.822  1.00  0.00     0.031 C 
HETATM    5  C5  UNL     1      14.417  12.126  23.654  1.00  0.00     0.276 C 
HETATM    6  N1  UNL     1      14.535  13.505  24.042  1.00  0.00     0.120 N 
HETATM    7  C6  UNL     1      14.271  13.656  25.481  1.00  0.00     0.283 C 
HETATM    8  C7  UNL     1      15.932  13.965  24.012  1.00  0.00     0.385 C 
ENDROOT
BRANCH   1   9
HETATM    9  O1  UNL     1      17.403  14.182  25.868  1.00  0.00    -0.391 OA
ATOM     10  H1  UNL     1      18.088  13.696  26.313  1.00  0.00     0.210 HD
ENDBRANCH   1   9
BRANCH   8  11
HETATM   11  O2  UNL     1      16.529  13.732  22.795  1.00  0.00    -0.366 OA
ATOM     12  H2  UNL     1      15.916  13.534  22.098  1.00  0.00     0.212 HD
ENDBRANCH   8  11
TORSDOF 2
ENDMDL
