MODEL 1
REMARK VINA RESULT: -3.947585851      0.000      0.000
REMARK  2 active torsions:
REMARK  status: ('A' for Active; 'I' for Inactive)
REMARK    1  A    between atoms: O1_1  and  C1_3 
REMARK    2  A    between atoms: C5_8  and  O2_9 
ROOT
HETATM    1  C1  UNL     1      16.579  11.916  22.470  1.00  0.00     0.149 C 
HETATM    2  C2  UNL     1      16.063  11.377  23.741  1.00  0.00     0.303 C 
HETATM    3  N1  UNL     1      14.955  12.042  24.330  1.00  0.00     0.091 N 
HETATM    4  C3  UNL     1      13.946  12.485  23.434  1.00  0.00     0.275 C 
HETATM    5  C4  UNL     1      14.262  13.931  23.087  1.00  0.00     0.068 C 
HETATM    6  C5  UNL     1      15.754  14.180  23.225  1.00  0.00     0.063 C 
HETATM    7  C6  UNL     1      16.242  14.015  24.626  1.00  0.00     0.068 C 
HETATM    8  C7  UNL     1      15.306  13.027  25.320  1.00  0.00     0.275 C 
HETATM    9  C8  UNL     1      16.510  13.356  22.232  1.00  0.00     0.071 C 
ENDROOT
BRANCH   1  10
HETATM   10  O1  UNL     1      17.928  11.492  22.350  1.00  0.00    -0.394 OA
ATOM     11  H1  UNL     1      18.477  12.256  22.481  1.00  0.00     0.210 HD
ENDBRANCH   1  10
BRANCH   6  12
HETATM   12  O2  UNL     1      15.948  15.523  22.861  1.00  0.00    -0.390 OA
ATOM     13  H2  UNL     1      16.626  15.850  23.441  1.00  0.00     0.210 HD
ENDBRANCH   6  12
TORSDOF 2
ENDMDL
MODEL 2
REMARK VINA RESULT: -3.821316922      3.605      4.603
REMARK  2 active torsions:
REMARK  status: ('A' for Active; 'I' for Inactive)
REMARK    1  A    between atoms: O1_1  and  C1_3 
REMARK    2  A    between atoms: C5_8  and  O2_9 
ROOT
HETATM    1  C1  UNL     1      14.496  12.650  25.825  1.00  0.00     0.149 C 
HETATM    2  C2  UNL     1      15.037  11.729  26.840  1.00  0.00     0.303 C 
HETATM    3  N1  UNL     1      14.209  11.424  27.953  1.00  0.00     0.091 N 
HETATM    4  C3  UNL     1      12.830  11.234  27.671  1.00  0.00     0.275 C 
HETATM    5  C4  UNL     1      12.142  12.573  27.889  1.00  0.00     0.068 C 
HETATM    6  C5  UNL     1      13.132  13.703  27.670  1.00  0.00     0.063 C 
HETATM    7  C6  UNL     1      14.252  13.691  28.657  1.00  0.00     0.068 C 
HETATM    8  C7  UNL     1      14.441  12.246  29.113  1.00  0.00     0.275 C 
HETATM    9  C8  UNL     1      13.594  13.718  26.247  1.00  0.00     0.071 C 
ENDROOT
BRANCH   1  10
HETATM   10  O1  UNL     1      15.603  13.222  25.144  1.00  0.00    -0.394 OA
ATOM     11  H1  UNL     1      15.409  13.189  24.214  1.00  0.00     0.210 HD
ENDBRANCH   1  10
BRANCH   6  12
HETATM   12  O2  UNL     1      12.402  14.888  27.867  1.00  0.00    -0.390 OA
ATOM     13  H2  UNL     1      11.680  14.848  27.252  1.00  0.00     0.210 HD
ENDBRANCH   6  12
TORSDOF 2
ENDMDL
MODEL 3
REMARK VINA RESULT: -3.773940565      2.001      3.454
REMARK  2 active torsions:
REMARK  status: ('A' for Active; 'I' for Inactive)
REMARK    1  A    between atoms: O1_1  and  C1_3 
REMARK    2  A    between atoms: C5_8  and  O2_9 
ROOT
HETATM    1  C1  UNL     1      13.808  13.327  25.441  1.00  0.00     0.149 C 
HETATM    2  C2  UNL     1      13.620  13.392  23.981  1.00  0.00     0.303 C 
HETATM    3  N1  UNL     1      14.691  12.941  23.164  1.00  0.00     0.091 N 
HETATM    4  C3  UNL     1      15.368  11.776  23.612  1.00  0.00     0.275 C 
HETATM    5  C4  UNL     1      16.565  12.242  24.427  1.00  0.00     0.068 C 
HETATM    6  C5  UNL     1      16.282  13.610  25.022  1.00  0.00     0.063 C 
HETATM    7  C6  UNL     1      16.099  14.667  23.985  1.00  0.00     0.068 C 
HETATM    8  C7  UNL     1      15.584  13.980  22.722  1.00  0.00     0.275 C 
HETATM    9  C8  UNL     1      15.146  13.527  25.992  1.00  0.00     0.071 C 
ENDROOT
BRANCH   1  10
HETATM   10  O1  UNL     1      12.923  14.274  26.021  1.00  0.00    -0.394 OA
ATOM     11  H1  UNL     1      12.318  13.792  26.573  1.00  0.00     0.210 HD
ENDBRANCH   1  10
BRANCH   6  12
HETATM   12  O2  UNL     1      17.424  13.940  25.771  1.00  0.00    -0.390 OA
ATOM     13  H2  UNL     1      17.830  13.111  25.997  1.00  0.00     0.210 HD
ENDBRANCH   6  12
TORSDOF 2
ENDMDL
MODEL 4
REMARK VINA RESULT: -3.771081688      3.152      4.174
REMARK  2 active torsions:
REMARK  status: ('A' for Active; 'I' for Inactive)
REMARK    1  A    between atoms: O1_1  and  C1_3 
REMARK    2  A    between atoms: C5_8  and  O2_9 
ROOT
HETATM    1  C1  UNL     1      15.440  13.432  25.474  1.00  0.00     0.149 C 
HETATM    2  C2  UNL     1      14.292  12.611  25.050  1.00  0.00     0.303 C 
HETATM    3  N1  UNL     1      13.183  12.533  25.934  1.00  0.00     0.091 N 
HETATM    4  C3  UNL     1      12.824  13.739  26.591  1.00  0.00     0.275 C 
HETATM    5  C4  UNL     1      13.531  13.741  27.938  1.00  0.00     0.068 C 
HETATM    6  C5  UNL     1      14.795  12.903  27.857  1.00  0.00     0.063 C 
HETATM    7  C6  UNL     1      14.518  11.463  27.580  1.00  0.00     0.068 C 
HETATM    8  C7  UNL     1      13.199  11.393  26.813  1.00  0.00     0.275 C 
HETATM    9  C8  UNL     1      15.763  13.517  26.897  1.00  0.00     0.071 C 
ENDROOT
BRANCH   1  10
HETATM   10  O1  UNL     1      16.578  12.960  24.769  1.00  0.00    -0.394 OA
ATOM     11  H1  UNL     1      17.340  13.149  25.305  1.00  0.00     0.210 HD
ENDBRANCH   1  10
BRANCH   6  12
HETATM   12  O2  UNL     1      15.385  12.986  29.130  1.00  0.00    -0.390 OA
ATOM     13  H2  UNL     1      15.460  12.091  29.436  1.00  0.00     0.210 HD
ENDBRANCH   6  12
TORSDOF 2
ENDMDL
MODEL 5
REMARK VINA RESULT: -3.762654062      4.304      5.441
REMARK  2 active torsions:
REMARK  status: ('A' for Active; 'I' for Inactive)
REMARK    1  A    between atoms: O1_1  and  C1_3 
REMARK    2  A    between atoms: C5_8  and  O2_9 
ROOT
HETATM    1  C1  UNL     1      12.769  11.226  27.997  1.00  0.00     0.149 C 
HETATM    2  C2  UNL     1      14.174  11.065  27.582  1.00  0.00     0.303 C 
HETATM    3  N1  UNL     1      15.050  12.162  27.803  1.00  0.00     0.091 N 
HETATM    4  C3  UNL     1      14.881  12.856  29.030  1.00  0.00     0.275 C 
HETATM    5  C4  UNL     1      13.949  14.026  28.756  1.00  0.00     0.068 C 
HETATM    6  C5  UNL     1      13.046  13.700  27.579  1.00  0.00     0.063 C 
HETATM    7  C6  UNL     1      13.800  13.514  26.304  1.00  0.00     0.068 C 
HETATM    8  C7  UNL     1      15.205  13.039  26.672  1.00  0.00     0.275 C 
HETATM    9  C8  UNL     1      12.154  12.548  27.915  1.00  0.00     0.071 C 
ENDROOT
BRANCH   1  10
HETATM   10  O1  UNL     1      11.998  10.309  27.235  1.00  0.00    -0.394 OA
ATOM     11  H1  UNL     1      12.574   9.594  26.990  1.00  0.00     0.210 HD
ENDBRANCH   1  10
BRANCH   6  12
HETATM   12  O2  UNL     1      12.212  14.820  27.421  1.00  0.00    -0.390 OA
ATOM     13  H2  UNL     1      12.007  14.858  26.495  1.00  0.00     0.210 HD
ENDBRANCH   6  12
TORSDOF 2
ENDMDL
