MODEL 1
REMARK VINA RESULT: -3.549054706      0.000      0.000
REMARK  1 active torsions:
REMARK  status: ('A' for Active; 'I' for Inactive)
REMARK    1  A    between atoms: C3_3  and  O1_4 
ROOT
HETATM    1  C1  UNL     1      17.750   8.601  20.816  1.00  0.00     0.030 C 
HETATM    2  C2  UNL     1      17.981   9.992  20.336  1.00  0.00     0.102 C 
HETATM    3  C3  UNL     1      19.307  10.094  19.565  1.00  0.00     0.157 C 
HETATM    4  C4  UNL     1      19.813  11.401  20.162  1.00  0.00     0.125 C 
HETATM    5  C5  UNL     1      18.843  12.503  19.909  1.00  0.00     0.041 C 
HETATM    6  C6  UNL     1      17.776  12.236  20.982  1.00  0.00     0.112 C 
HETATM    7  N1  UNL     1      18.144  10.896  21.470  1.00  0.00    -0.228 NA
HETATM    8  N2  UNL     1      19.550  11.096  21.581  1.00  0.00    -0.157 NA
ENDROOT
BRANCH   3   9
HETATM    9  O1  UNL     1      19.127  10.149  18.216  1.00  0.00    -0.392 OA
ATOM     10  H1  UNL     1      19.356   9.335  17.782  1.00  0.00     0.210 HD
ENDBRANCH   3   9
TORSDOF 1
ENDMDL
MODEL 2
REMARK VINA RESULT: -3.487908210      4.441      5.584
REMARK  1 active torsions:
REMARK  status: ('A' for Active; 'I' for Inactive)
REMARK    1  A    between atoms: C3_3  and  O1_4 
ROOT
HETATM    1  C1  UNL     1      17.099  12.765  21.636  1.00  0.00     0.030 C 
HETATM    2  C2  UNL     1      15.996  12.967  22.617  1.00  0.00     0.102 C 
HETATM    3  C3  UNL     1      15.936  14.430  23.085  1.00  0.00     0.157 C 
HETATM    4  C4  UNL     1      15.719  14.181  24.572  1.00  0.00     0.125 C 
HETATM    5  C5  UNL     1      14.477  13.390  24.795  1.00  0.00     0.041 C 
HETATM    6  C6  UNL     1      14.945  11.965  24.459  1.00  0.00     0.112 C 
HETATM    7  N1  UNL     1      16.258  12.201  23.832  1.00  0.00    -0.228 NA
HETATM    8  N2  UNL     1      16.761  13.155  24.764  1.00  0.00    -0.157 NA
ENDROOT
BRANCH   3   9
HETATM    9  O1  UNL     1      14.923  15.127  22.500  1.00  0.00    -0.392 OA
ATOM     10  H1  UNL     1      14.729  14.824  21.620  1.00  0.00     0.210 HD
ENDBRANCH   3   9
TORSDOF 1
ENDMDL
MODEL 3
REMARK VINA RESULT: -3.470479562      1.233      2.506
REMARK  1 active torsions:
REMARK  status: ('A' for Active; 'I' for Inactive)
REMARK    1  A    between atoms: C3_3  and  O1_4 
ROOT
HETATM    1  C1  UNL     1      18.057  12.596  20.567  1.00  0.00     0.030 C 
HETATM    2  C2  UNL     1      19.120  11.551  20.525  1.00  0.00     0.102 C 
HETATM    3  C3  UNL     1      18.678  10.351  19.674  1.00  0.00     0.157 C 
HETATM    4  C4  UNL     1      19.169   9.235  20.588  1.00  0.00     0.125 C 
HETATM    5  C5  UNL     1      20.637   9.351  20.813  1.00  0.00     0.041 C 
HETATM    6  C6  UNL     1      20.708  10.467  21.867  1.00  0.00     0.112 C 
HETATM    7  N1  UNL     1      19.334  10.999  21.859  1.00  0.00    -0.228 NA
HETATM    8  N2  UNL     1      18.634   9.758  21.859  1.00  0.00    -0.157 NA
ENDROOT
BRANCH   3   9
HETATM    9  O1  UNL     1      19.260  10.337  18.443  1.00  0.00    -0.392 OA
ATOM     10  H1  UNL     1      19.556  11.198  18.167  1.00  0.00     0.210 HD
ENDBRANCH   3   9
TORSDOF 1
ENDMDL
MODEL 4
REMARK VINA RESULT: -3.444221637      7.979      9.039
REMARK  1 active torsions:
REMARK  status: ('A' for Active; 'I' for Inactive)
REMARK    1  A    between atoms: C3_3  and  O1_4 
ROOT
HETATM    1  C1  UNL     1      15.032  13.337  29.221  1.00  0.00     0.030 C 
HETATM    2  C2  UNL     1      14.581  13.648  27.836  1.00  0.00     0.102 C 
HETATM    3  C3  UNL     1      13.047  13.650  27.744  1.00  0.00     0.157 C 
HETATM    4  C4  UNL     1      12.901  12.891  26.431  1.00  0.00     0.125 C 
HETATM    5  C5  UNL     1      13.605  13.606  25.331  1.00  0.00     0.041 C 
HETATM    6  C6  UNL     1      15.068  13.212  25.584  1.00  0.00     0.112 C 
HETATM    7  N1  UNL     1      15.005  12.594  26.920  1.00  0.00    -0.228 NA
HETATM    8  N2  UNL     1      13.843  11.794  26.720  1.00  0.00    -0.157 NA
ENDROOT
BRANCH   3   9
HETATM    9  O1  UNL     1      12.524  14.906  27.704  1.00  0.00    -0.392 OA
ATOM     10  H1  UNL     1      12.270  15.225  28.562  1.00  0.00     0.210 HD
ENDBRANCH   3   9
TORSDOF 1
ENDMDL
MODEL 5
REMARK VINA RESULT: -3.435829975      8.157      9.037
REMARK  1 active torsions:
REMARK  status: ('A' for Active; 'I' for Inactive)
REMARK    1  A    between atoms: C3_3  and  O1_4 
ROOT
HETATM    1  C1  UNL     1      11.580  13.819  26.105  1.00  0.00     0.030 C 
HETATM    2  C2  UNL     1      12.899  13.949  26.785  1.00  0.00     0.102 C 
HETATM    3  C3  UNL     1      13.993  13.195  26.014  1.00  0.00     0.157 C 
HETATM    4  C4  UNL     1      14.695  12.545  27.199  1.00  0.00     0.125 C 
HETATM    5  C5  UNL     1      15.186  13.581  28.150  1.00  0.00     0.041 C 
HETATM    6  C6  UNL     1      13.901  13.951  28.905  1.00  0.00     0.112 C 
HETATM    7  N1  UNL     1      12.857  13.302  28.093  1.00  0.00    -0.228 NA
HETATM    8  N2  UNL     1      13.498  12.045  27.900  1.00  0.00    -0.157 NA
ENDROOT
BRANCH   3   9
HETATM    9  O1  UNL     1      14.799  14.026  25.296  1.00  0.00    -0.392 OA
ATOM     10  H1  UNL     1      15.710  13.758  25.313  1.00  0.00     0.210 HD
ENDBRANCH   3   9
TORSDOF 1
ENDMDL
