MODEL 1
REMARK VINA RESULT: -9.269517209      0.000      0.000
REMARK  6 active torsions:
REMARK  status: ('A' for Active; 'I' for Inactive)
REMARK    1  A    between atoms: C4_4  and  C5_5 
REMARK    2  A    between atoms: C5_5  and  C7_7 
REMARK    3  A    between atoms: C7_7  and  C8_8 
REMARK    4  A    between atoms: C8_8  and  C9_9 
REMARK    5  A    between atoms: C10_10  and  C11_11 
REMARK    6  A    between atoms: C12_14  and  C13_15 
ROOT
HETATM    1  C9  UNL     1      30.134   0.692  32.853  1.00  0.00     0.089 C 
HETATM    2  C10 UNL     1      30.788  -0.083  33.724  1.00  0.00     0.097 C 
HETATM    3  O1  UNL     1      31.746  -0.900  33.053  1.00  0.00    -0.338 OA
HETATM    4  C12 UNL     1      32.207  -0.065  31.977  1.00  0.00     0.209 C 
HETATM    5  C22 UNL     1      30.782   0.330  31.557  1.00  0.00     0.199 C 
HETATM    6  O2  UNL     1      30.300   0.341  30.432  1.00  0.00    -0.289 OA
ENDROOT
BRANCH   4   7
HETATM    7  C13 UNL     1      32.765  -0.913  30.922  1.00  0.00     0.039 C 
HETATM    8  C14 UNL     1      33.983  -1.741  31.224  1.00  0.00    -0.036 C 
HETATM    9  C15 UNL     1      33.710  -3.193  31.549  1.00  0.00     0.015 C 
HETATM   10  C16 UNL     1      34.949  -1.056  32.135  1.00  0.00     0.010 C 
HETATM   11  C21 UNL     1      34.389  -1.514  29.771  1.00  0.00     0.019 C 
HETATM   12  C17 UNL     1      35.523   0.187  31.488  1.00  0.00     0.002 C 
HETATM   13  C18 UNL     1      34.557   0.821  30.512  1.00  0.00     0.010 C 
HETATM   14  C19 UNL     1      33.646  -0.203  29.898  1.00  0.00    -0.036 C 
HETATM   15  C20 UNL     1      32.871   0.253  28.700  1.00  0.00     0.015 C 
ENDBRANCH   4   7
BRANCH   2  16
HETATM   16  C11 UNL     1      30.593  -0.132  35.187  1.00  0.00     0.288 C 
HETATM   17  F1  UNL     1      29.288  -0.623  35.441  1.00  0.00    -0.248 F 
ENDBRANCH   2  16
BRANCH   1  18
HETATM   18  C8  UNL     1      29.092   1.660  33.106  1.00  0.00    -0.110 C 
BRANCH  18  19
HETATM   19  C7  UNL     1      28.216   2.474  33.317  1.00  0.00     0.063 C 
BRANCH  19  20
HETATM   20  C5  UNL     1      27.632   3.613  32.565  1.00  0.00    -0.054 C 
HETATM   21  C6  UNL     1      27.445   3.536  31.122  1.00  0.00     0.049 C 
BRANCH  20  22
HETATM   22  C4  UNL     1      28.151   4.902  33.023  1.00  0.00     0.009 C 
HETATM   23  C2  UNL     1      29.305   5.491  32.932  1.00  0.00    -0.087 C 
HETATM   24  C1  UNL     1      29.481   6.882  33.545  1.00  0.00     0.043 C 
HETATM   25  C3  UNL     1      30.504   4.933  32.314  1.00  0.00     0.043 C 
ENDBRANCH  20  22
ENDBRANCH  19  20
ENDBRANCH  18  19
ENDBRANCH   1  18
TORSDOF 6
ENDMDL
MODEL 2
REMARK VINA RESULT: -9.042432474      2.033      3.630
REMARK  6 active torsions:
REMARK  status: ('A' for Active; 'I' for Inactive)
REMARK    1  A    between atoms: C4_4  and  C5_5 
REMARK    2  A    between atoms: C5_5  and  C7_7 
REMARK    3  A    between atoms: C7_7  and  C8_8 
REMARK    4  A    between atoms: C8_8  and  C9_9 
REMARK    5  A    between atoms: C10_10  and  C11_11 
REMARK    6  A    between atoms: C12_14  and  C13_15 
ROOT
HETATM    1  C9  UNL     1      31.614   0.910  33.699  1.00  0.00     0.089 C 
HETATM    2  C10 UNL     1      32.038   1.810  32.805  1.00  0.00     0.097 C 
HETATM    3  O1  UNL     1      33.136   1.297  32.054  1.00  0.00    -0.338 OA
HETATM    4  C12 UNL     1      32.839  -0.105  31.937  1.00  0.00     0.209 C 
HETATM    5  C22 UNL     1      32.516  -0.251  33.432  1.00  0.00     0.199 C 
HETATM    6  O2  UNL     1      32.906  -1.111  34.212  1.00  0.00    -0.289 OA
ENDROOT
BRANCH   4   7
HETATM    7  C13 UNL     1      34.082  -0.836  31.676  1.00  0.00     0.039 C 
HETATM    8  C14 UNL     1      34.988  -0.356  30.576  1.00  0.00    -0.036 C 
HETATM    9  C15 UNL     1      36.166   0.478  31.031  1.00  0.00     0.015 C 
HETATM   10  C16 UNL     1      34.247   0.181  29.395  1.00  0.00     0.010 C 
HETATM   11  C21 UNL     1      35.340  -1.823  30.347  1.00  0.00     0.019 C 
HETATM   12  C17 UNL     1      33.429  -0.904  28.725  1.00  0.00     0.002 C 
HETATM   13  C18 UNL     1      32.975  -1.963  29.704  1.00  0.00     0.010 C 
HETATM   14  C19 UNL     1      33.940  -2.107  30.845  1.00  0.00    -0.036 C 
HETATM   15  C20 UNL     1      33.762  -3.327  31.696  1.00  0.00     0.015 C 
ENDBRANCH   4   7
BRANCH   2  16
HETATM   16  C11 UNL     1      31.488   3.161  32.580  1.00  0.00     0.288 C 
HETATM   17  F1  UNL     1      30.685   3.123  31.414  1.00  0.00    -0.248 F 
ENDBRANCH   2  16
BRANCH   1  18
HETATM   18  C8  UNL     1      30.536   1.019  34.653  1.00  0.00    -0.110 C 
BRANCH  18  19
HETATM   19  C7  UNL     1      29.628   1.110  35.455  1.00  0.00     0.063 C 
BRANCH  19  20
HETATM   20  C5  UNL     1      28.156   1.277  35.364  1.00  0.00    -0.054 C 
HETATM   21  C6  UNL     1      27.276   0.695  36.370  1.00  0.00     0.049 C 
BRANCH  20  22
HETATM   22  C4  UNL     1      27.665   1.125  33.994  1.00  0.00     0.009 C 
HETATM   23  C2  UNL     1      27.500   1.945  33.002  1.00  0.00    -0.087 C 
HETATM   24  C1  UNL     1      26.952   1.410  31.677  1.00  0.00     0.043 C 
HETATM   25  C3  UNL     1      27.759   3.382  33.027  1.00  0.00     0.043 C 
ENDBRANCH  20  22
ENDBRANCH  19  20
ENDBRANCH  18  19
ENDBRANCH   1  18
TORSDOF 6
ENDMDL
MODEL 3
REMARK VINA RESULT: -8.899424185      2.179      6.936
REMARK  6 active torsions:
REMARK  status: ('A' for Active; 'I' for Inactive)
REMARK    1  A    between atoms: C4_4  and  C5_5 
REMARK    2  A    between atoms: C5_5  and  C7_7 
REMARK    3  A    between atoms: C7_7  and  C8_8 
REMARK    4  A    between atoms: C8_8  and  C9_9 
REMARK    5  A    between atoms: C10_10  and  C11_11 
REMARK    6  A    between atoms: C12_14  and  C13_15 
ROOT
HETATM    1  C9  UNL     1      31.268  -0.067  30.447  1.00  0.00     0.089 C 
HETATM    2  C10 UNL     1      30.467   0.858  29.907  1.00  0.00     0.097 C 
HETATM    3  O1  UNL     1      29.343   1.107  30.749  1.00  0.00    -0.338 OA
HETATM    4  C12 UNL     1      29.877   0.955  32.076  1.00  0.00     0.209 C 
HETATM    5  C22 UNL     1      30.579  -0.369  31.737  1.00  0.00     0.199 C 
HETATM    6  O2  UNL     1      30.572  -1.415  32.373  1.00  0.00    -0.289 OA
ENDROOT
BRANCH   4   7
HETATM    7  C13 UNL     1      28.780   0.655  32.999  1.00  0.00     0.039 C 
HETATM    8  C14 UNL     1      27.602   1.589  33.056  1.00  0.00    -0.036 C 
HETATM    9  C15 UNL     1      26.390   1.145  32.267  1.00  0.00     0.015 C 
HETATM   10  C16 UNL     1      27.981   3.024  32.885  1.00  0.00     0.010 C 
HETATM   11  C21 UNL     1      27.516   1.247  34.540  1.00  0.00     0.019 C 
HETATM   12  C17 UNL     1      28.858   3.497  34.027  1.00  0.00     0.002 C 
HETATM   13  C18 UNL     1      29.694   2.378  34.606  1.00  0.00     0.010 C 
HETATM   14  C19 UNL     1      29.013   1.048  34.455  1.00  0.00    -0.036 C 
HETATM   15  C20 UNL     1      29.592  -0.073  35.261  1.00  0.00     0.015 C 
ENDBRANCH   4   7
BRANCH   2  16
HETATM   16  C11 UNL     1      30.663   1.559  28.623  1.00  0.00     0.288 C 
HETATM   17  F1  UNL     1      29.692   2.587  28.528  1.00  0.00    -0.248 F 
ENDBRANCH   2  16
BRANCH   1  18
HETATM   18  C8  UNL     1      32.503  -0.608  29.930  1.00  0.00    -0.110 C 
BRANCH  18  19
HETATM   19  C7  UNL     1      33.541  -1.064  29.495  1.00  0.00     0.063 C 
BRANCH  19  20
HETATM   20  C5  UNL     1      34.836  -1.486  30.086  1.00  0.00    -0.054 C 
HETATM   21  C6  UNL     1      34.874  -2.353  31.257  1.00  0.00     0.049 C 
BRANCH  20  22
HETATM   22  C4  UNL     1      35.806  -0.392  30.132  1.00  0.00     0.009 C 
HETATM   23  C2  UNL     1      35.890   0.707  30.819  1.00  0.00    -0.087 C 
HETATM   24  C1  UNL     1      37.087   1.634  30.596  1.00  0.00     0.043 C 
HETATM   25  C3  UNL     1      34.913   1.185  31.793  1.00  0.00     0.043 C 
ENDBRANCH  20  22
ENDBRANCH  19  20
ENDBRANCH  18  19
ENDBRANCH   1  18
TORSDOF 6
ENDMDL
MODEL 4
REMARK VINA RESULT: -8.744159322      2.038      7.065
REMARK  6 active torsions:
REMARK  status: ('A' for Active; 'I' for Inactive)
REMARK    1  A    between atoms: C4_4  and  C5_5 
REMARK    2  A    between atoms: C5_5  and  C7_7 
REMARK    3  A    between atoms: C7_7  and  C8_8 
REMARK    4  A    between atoms: C8_8  and  C9_9 
REMARK    5  A    between atoms: C10_10  and  C11_11 
REMARK    6  A    between atoms: C12_14  and  C13_15 
ROOT
HETATM    1  C9  UNL     1      31.907   1.270  30.162  1.00  0.00     0.089 C 
HETATM    2  C10 UNL     1      32.350   1.676  31.357  1.00  0.00     0.097 C 
HETATM    3  O1  UNL     1      31.381   2.501  32.001  1.00  0.00    -0.338 OA
HETATM    4  C12 UNL     1      30.126   1.935  31.583  1.00  0.00     0.209 C 
HETATM    5  C22 UNL     1      30.544   1.878  30.106  1.00  0.00     0.199 C 
HETATM    6  O2  UNL     1      29.910   2.243  29.124  1.00  0.00    -0.289 OA
ENDROOT
BRANCH   4   7
HETATM    7  C13 UNL     1      29.079   2.952  31.712  1.00  0.00     0.039 C 
HETATM    8  C14 UNL     1      28.977   3.731  32.994  1.00  0.00    -0.036 C 
HETATM    9  C15 UNL     1      29.607   5.107  32.962  1.00  0.00     0.015 C 
HETATM   10  C16 UNL     1      29.293   2.915  34.205  1.00  0.00     0.010 C 
HETATM   11  C21 UNL     1      27.470   3.751  32.758  1.00  0.00     0.019 C 
HETATM   12  C17 UNL     1      28.283   1.802  34.392  1.00  0.00     0.002 C 
HETATM   13  C18 UNL     1      27.706   1.328  33.077  1.00  0.00     0.010 C 
HETATM   14  C19 UNL     1      27.688   2.429  32.056  1.00  0.00    -0.036 C 
HETATM   15  C20 UNL     1      26.860   2.169  30.835  1.00  0.00     0.015 C 
ENDBRANCH   4   7
BRANCH   2  16
HETATM   16  C11 UNL     1      33.649   1.351  31.978  1.00  0.00     0.288 C 
HETATM   17  F1  UNL     1      33.478   0.197  32.781  1.00  0.00    -0.248 F 
ENDBRANCH   2  16
BRANCH   1  18
HETATM   18  C8  UNL     1      32.565   0.429  29.190  1.00  0.00    -0.110 C 
BRANCH  18  19
HETATM   19  C7  UNL     1      33.119  -0.279  28.374  1.00  0.00     0.063 C 
BRANCH  19  20
HETATM   20  C5  UNL     1      33.535  -1.704  28.324  1.00  0.00    -0.054 C 
HETATM   21  C6  UNL     1      33.194  -2.541  27.182  1.00  0.00     0.049 C 
BRANCH  20  22
HETATM   22  C4  UNL     1      33.369  -2.373  29.615  1.00  0.00     0.009 C 
HETATM   23  C2  UNL     1      34.084  -2.430  30.697  1.00  0.00    -0.087 C 
HETATM   24  C1  UNL     1      33.573  -3.250  31.884  1.00  0.00     0.043 C 
HETATM   25  C3  UNL     1      35.385  -1.799  30.897  1.00  0.00     0.043 C 
ENDBRANCH  20  22
ENDBRANCH  19  20
ENDBRANCH  18  19
ENDBRANCH   1  18
TORSDOF 6
ENDMDL
MODEL 5
REMARK VINA RESULT: -8.625890895      2.275      3.679
REMARK  6 active torsions:
REMARK  status: ('A' for Active; 'I' for Inactive)
REMARK    1  A    between atoms: C4_4  and  C5_5 
REMARK    2  A    between atoms: C5_5  and  C7_7 
REMARK    3  A    between atoms: C7_7  and  C8_8 
REMARK    4  A    between atoms: C8_8  and  C9_9 
REMARK    5  A    between atoms: C10_10  and  C11_11 
REMARK    6  A    between atoms: C12_14  and  C13_15 
ROOT
HETATM    1  C9  UNL     1      31.169   2.261  31.065  1.00  0.00     0.089 C 
HETATM    2  C10 UNL     1      30.711   1.573  30.014  1.00  0.00     0.097 C 
HETATM    3  O1  UNL     1      31.656   0.587  29.606  1.00  0.00    -0.338 OA
HETATM    4  C12 UNL     1      32.256   0.164  30.843  1.00  0.00     0.209 C 
HETATM    5  C22 UNL     1      32.484   1.604  31.327  1.00  0.00     0.199 C 
HETATM    6  O2  UNL     1      33.500   2.091  31.807  1.00  0.00    -0.289 OA
ENDROOT
BRANCH   4   7
HETATM    7  C13 UNL     1      33.568  -0.425  30.559  1.00  0.00     0.039 C 
HETATM    8  C14 UNL     1      33.630  -1.788  29.927  1.00  0.00    -0.036 C 
HETATM    9  C15 UNL     1      33.865  -1.793  28.432  1.00  0.00     0.015 C 
HETATM   10  C16 UNL     1      32.555  -2.708  30.406  1.00  0.00     0.010 C 
HETATM   11  C21 UNL     1      34.903  -2.008  30.739  1.00  0.00     0.019 C 
HETATM   12  C17 UNL     1      32.706  -3.002  31.884  1.00  0.00     0.002 C 
HETATM   13  C18 UNL     1      33.347  -1.854  32.631  1.00  0.00     0.010 C 
HETATM   14  C19 UNL     1      34.274  -1.072  31.746  1.00  0.00    -0.036 C 
HETATM   15  C20 UNL     1      35.193  -0.120  32.449  1.00  0.00     0.015 C 
ENDBRANCH   4   7
BRANCH   2  16
HETATM   16  C11 UNL     1      29.418   1.762  29.327  1.00  0.00     0.288 C 
HETATM   17  F1  UNL     1      29.433   3.031  28.697  1.00  0.00    -0.248 F 
ENDBRANCH   2  16
BRANCH   1  18
HETATM   18  C8  UNL     1      30.536   3.340  31.787  1.00  0.00    -0.110 C 
BRANCH  18  19
HETATM   19  C7  UNL     1      30.003   4.247  32.394  1.00  0.00     0.063 C 
BRANCH  19  20
HETATM   20  C5  UNL     1      28.602   4.678  32.628  1.00  0.00    -0.054 C 
HETATM   21  C6  UNL     1      28.278   5.617  33.693  1.00  0.00     0.049 C 
BRANCH  20  22
HETATM   22  C4  UNL     1      27.656   3.566  32.517  1.00  0.00     0.009 C 
HETATM   23  C2  UNL     1      27.497   2.452  33.164  1.00  0.00    -0.087 C 
HETATM   24  C1  UNL     1      26.362   1.510  32.758  1.00  0.00     0.043 C 
HETATM   25  C3  UNL     1      28.338   1.970  34.256  1.00  0.00     0.043 C 
ENDBRANCH  20  22
ENDBRANCH  19  20
ENDBRANCH  18  19
ENDBRANCH   1  18
TORSDOF 6
ENDMDL
