MODEL 1
REMARK VINA RESULT: -7.393786861      0.000      0.000
REMARK  5 active torsions:
REMARK  status: ('A' for Active; 'I' for Inactive)
REMARK    1  A    between atoms: C2_2  and  C3_3 
REMARK    2  A    between atoms: C2_2  and  C19_23 
REMARK    3  A    between atoms: C3_3  and  C4_8 
REMARK    4  A    between atoms: N1_4  and  O1_6 
REMARK    5  A    between atoms: C14_18  and  C16_20 
ROOT
HETATM    1  C4  UNL     1      79.132  34.747 -11.411  1.00  0.00     0.009 A 
HETATM    2  C5  UNL     1      79.554  34.758  -9.994  1.00  0.00     0.017 A 
HETATM    3  C6  UNL     1      78.695  33.523  -9.798  1.00  0.00     0.012 A 
HETATM    4  C7  UNL     1      78.340  33.533 -11.303  1.00  0.00    -0.027 A 
HETATM    5  C8  UNL     1      76.851  33.532 -11.409  1.00  0.00     0.016 C 
HETATM    6  C9  UNL     1      78.906  32.270 -11.893  1.00  0.00     0.005 C 
HETATM    7  C10 UNL     1      80.395  32.132 -11.572  1.00  0.00     0.016 C 
HETATM    8  C11 UNL     1      80.559  33.101 -12.726  1.00  0.00    -0.035 C 
HETATM    9  C12 UNL     1      81.898  32.940 -13.356  1.00  0.00     0.016 C 
HETATM   10  C13 UNL     1      80.239  34.507 -12.428  1.00  0.00     0.026 C 
HETATM   11  C14 UNL     1      79.399  32.363 -13.309  1.00  0.00    -0.029 C 
HETATM   12  C15 UNL     1      79.771  30.935 -13.757  1.00  0.00     0.016 C 
ENDROOT
BRANCH   1  13
HETATM   13  C3  UNL     1      78.489  36.058 -11.777  1.00  0.00     0.023 C 
HETATM   14  N1  UNL     1      77.751  36.159 -12.802  1.00  0.00    -0.276 N 
ATOM     15  H1  UNL     1      77.669  35.280 -13.313  1.00  0.00     0.193 HD
BRANCH  13  16
HETATM   16  C2  UNL     1      78.721  37.222 -10.917  1.00  0.00     0.034 C 
HETATM   17  C1  UNL     1      79.494  38.346 -11.634  1.00  0.00     0.016 C 
BRANCH  16  18
HETATM   18  C19 UNL     1      77.601  37.788 -10.125  1.00  0.00    -0.005 C 
HETATM   19  C20 UNL     1      76.622  36.594  -9.918  1.00  0.00     0.005 C 
HETATM   20  C21 UNL     1      75.201  37.067 -10.170  1.00  0.00     0.000 C 
HETATM   21  C22 UNL     1      74.667  37.956  -9.097  1.00  0.00     0.000 C 
HETATM   22  C23 UNL     1      75.594  39.094  -8.747  1.00  0.00     0.000 C 
HETATM   23  C24 UNL     1      76.727  38.546  -7.948  1.00  0.00     0.000 C 
HETATM   24  C25 UNL     1      77.981  38.265  -8.742  1.00  0.00     0.005 C 
ENDBRANCH  16  18
ENDBRANCH  13  16
BRANCH  14  25
HETATM   25  O1  UNL     1      77.063  37.135 -13.363  1.00  0.00    -0.290 OA
ATOM     26  H1  UNL     1      76.598  37.242 -14.185  1.00  0.00     0.244 HD
ENDBRANCH  14  25
ENDBRANCH   1  13
BRANCH  11  27
HETATM   27  C16 UNL     1      78.566  32.963 -14.355  1.00  0.00    -0.013 C 
HETATM   28  C17 UNL     1      79.371  32.891 -15.664  1.00  0.00     0.010 C 
HETATM   29  C18 UNL     1      77.396  31.991 -14.597  1.00  0.00     0.010 C 
ENDBRANCH  11  27
TORSDOF 5
ENDMDL
MODEL 2
REMARK VINA RESULT: -7.313487690      1.327      3.570
REMARK  5 active torsions:
REMARK  status: ('A' for Active; 'I' for Inactive)
REMARK    1  A    between atoms: C2_2  and  C3_3 
REMARK    2  A    between atoms: C2_2  and  C19_23 
REMARK    3  A    between atoms: C3_3  and  C4_8 
REMARK    4  A    between atoms: N1_4  and  O1_6 
REMARK    5  A    between atoms: C14_18  and  C16_20 
ROOT
HETATM    1  C4  UNL     1      78.072  33.964 -12.429  1.00  0.00     0.009 A 
HETATM    2  C5  UNL     1      77.941  33.752 -13.887  1.00  0.00     0.017 A 
HETATM    3  C6  UNL     1      79.209  32.921 -13.811  1.00  0.00     0.012 A 
HETATM    4  C7  UNL     1      79.254  33.132 -12.280  1.00  0.00    -0.027 A 
HETATM    5  C8  UNL     1      80.597  33.694 -11.948  1.00  0.00     0.016 C 
HETATM    6  C9  UNL     1      79.085  31.777 -11.648  1.00  0.00     0.005 C 
HETATM    7  C10 UNL     1      77.833  31.077 -12.176  1.00  0.00     0.016 C 
HETATM    8  C11 UNL     1      77.121  31.965 -11.175  1.00  0.00    -0.035 C 
HETATM    9  C12 UNL     1      75.840  31.342 -10.743  1.00  0.00     0.016 C 
HETATM   10  C13 UNL     1      76.960  33.373 -11.573  1.00  0.00     0.026 C 
HETATM   11  C14 UNL     1      78.342  31.743 -10.343  1.00  0.00    -0.029 C 
HETATM   12  C15 UNL     1      78.435  30.302  -9.802  1.00  0.00     0.016 C 
ENDROOT
BRANCH   1  13
HETATM   13  C3  UNL     1      78.119  35.436 -12.116  1.00  0.00     0.023 C 
HETATM   14  N1  UNL     1      78.091  36.301 -13.042  1.00  0.00    -0.276 N 
ATOM     15  H1  UNL     1      78.043  35.879 -13.970  1.00  0.00     0.193 HD
BRANCH  13  16
HETATM   16  C2  UNL     1      78.186  35.857 -10.714  1.00  0.00     0.034 C 
HETATM   17  C1  UNL     1      79.479  36.628 -10.386  1.00  0.00     0.016 C 
BRANCH  16  18
HETATM   18  C19 UNL     1      77.015  36.520 -10.088  1.00  0.00    -0.005 C 
HETATM   19  C20 UNL     1      77.347  38.041 -10.140  1.00  0.00     0.005 C 
HETATM   20  C21 UNL     1      77.001  38.671  -8.802  1.00  0.00     0.000 C 
HETATM   21  C22 UNL     1      75.534  38.791  -8.559  1.00  0.00     0.000 C 
HETATM   22  C23 UNL     1      74.780  37.506  -8.797  1.00  0.00     0.000 C 
HETATM   23  C24 UNL     1      74.679  37.288 -10.268  1.00  0.00     0.000 C 
HETATM   24  C25 UNL     1      75.714  36.348 -10.839  1.00  0.00     0.005 C 
ENDBRANCH  16  18
ENDBRANCH  13  16
BRANCH  14  25
HETATM   25  O1  UNL     1      78.109  37.619 -13.087  1.00  0.00    -0.290 OA
ATOM     26  H1  UNL     1      78.461  38.305 -12.532  1.00  0.00     0.244 HD
ENDBRANCH  14  25
ENDBRANCH   1  13
BRANCH  11  27
HETATM   27  C16 UNL     1      78.695  32.658  -9.255  1.00  0.00    -0.013 C 
HETATM   28  C17 UNL     1      77.742  32.353  -8.086  1.00  0.00     0.010 C 
HETATM   29  C18 UNL     1      80.069  32.205  -8.727  1.00  0.00     0.010 C 
ENDBRANCH  11  27
TORSDOF 5
ENDMDL
MODEL 3
REMARK VINA RESULT: -7.129984867      1.330      1.961
REMARK  5 active torsions:
REMARK  status: ('A' for Active; 'I' for Inactive)
REMARK    1  A    between atoms: C2_2  and  C3_3 
REMARK    2  A    between atoms: C2_2  and  C19_23 
REMARK    3  A    between atoms: C3_3  and  C4_8 
REMARK    4  A    between atoms: N1_4  and  O1_6 
REMARK    5  A    between atoms: C14_18  and  C16_20 
ROOT
HETATM    1  C4  UNL     1      79.087  33.685 -10.657  1.00  0.00     0.009 A 
HETATM    2  C5  UNL     1      79.418  34.040  -9.261  1.00  0.00     0.017 A 
HETATM    3  C6  UNL     1      78.398  33.003  -8.827  1.00  0.00     0.012 A 
HETATM    4  C7  UNL     1      78.141  32.638 -10.307  1.00  0.00    -0.027 A 
HETATM    5  C8  UNL     1      76.674  32.766 -10.550  1.00  0.00     0.016 C 
HETATM    6  C9  UNL     1      78.577  31.210 -10.486  1.00  0.00     0.005 C 
HETATM    7  C10 UNL     1      80.013  31.008 -10.001  1.00  0.00     0.016 C 
HETATM    8  C11 UNL     1      80.371  31.601 -11.349  1.00  0.00    -0.035 C 
HETATM    9  C12 UNL     1      81.715  31.131 -11.786  1.00  0.00     0.016 C 
HETATM   10  C13 UNL     1      80.215  33.060 -11.466  1.00  0.00     0.026 C 
HETATM   11  C14 UNL     1      79.164  30.858 -11.823  1.00  0.00    -0.029 C 
HETATM   12  C15 UNL     1      79.378  29.331 -11.841  1.00  0.00     0.016 C 
ENDROOT
BRANCH   1  13
HETATM   13  C3  UNL     1      78.640  34.906 -11.416  1.00  0.00     0.023 C 
HETATM   14  N1  UNL     1      78.284  34.826 -12.630  1.00  0.00    -0.276 N 
ATOM     15  H1  UNL     1      78.348  33.876 -12.994  1.00  0.00     0.193 HD
BRANCH  13  16
HETATM   16  C2  UNL     1      78.612  36.197 -10.722  1.00  0.00     0.034 C 
HETATM   17  C1  UNL     1      79.292  37.320 -11.528  1.00  0.00     0.016 C 
BRANCH  16  18
HETATM   18  C19 UNL     1      77.343  36.684 -10.125  1.00  0.00    -0.005 C 
HETATM   19  C20 UNL     1      77.404  38.233 -10.277  1.00  0.00     0.005 C 
HETATM   20  C21 UNL     1      76.954  38.878  -8.977  1.00  0.00     0.000 C 
HETATM   21  C22 UNL     1      75.489  38.755  -8.725  1.00  0.00     0.000 C 
HETATM   22  C23 UNL     1      74.972  37.345  -8.871  1.00  0.00     0.000 C 
HETATM   23  C24 UNL     1      74.909  37.018 -10.323  1.00  0.00     0.000 C 
HETATM   24  C25 UNL     1      76.091  36.239 -10.847  1.00  0.00     0.005 C 
ENDBRANCH  16  18
ENDBRANCH  13  16
BRANCH  14  25
HETATM   25  O1  UNL     1      77.849  35.685 -13.533  1.00  0.00    -0.290 OA
ATOM     26  H1  UNL     1      78.171  36.000 -14.369  1.00  0.00     0.244 HD
ENDBRANCH  14  25
ENDBRANCH   1  13
BRANCH  11  27
HETATM   27  C16 UNL     1      78.482  31.233 -13.064  1.00  0.00    -0.013 C 
HETATM   28  C17 UNL     1      79.351  30.721 -14.226  1.00  0.00     0.010 C 
HETATM   29  C18 UNL     1      77.215  30.361 -13.150  1.00  0.00     0.010 C 
ENDBRANCH  11  27
TORSDOF 5
ENDMDL
MODEL 4
REMARK VINA RESULT: -6.722159993      2.247      3.684
REMARK  5 active torsions:
REMARK  status: ('A' for Active; 'I' for Inactive)
REMARK    1  A    between atoms: C2_2  and  C3_3 
REMARK    2  A    between atoms: C2_2  and  C19_23 
REMARK    3  A    between atoms: C3_3  and  C4_8 
REMARK    4  A    between atoms: N1_4  and  O1_6 
REMARK    5  A    between atoms: C14_18  and  C16_20 
ROOT
HETATM    1  C4  UNL     1      79.323  34.656 -10.697  1.00  0.00     0.009 A 
HETATM    2  C5  UNL     1      79.376  34.185  -9.296  1.00  0.00     0.017 A 
HETATM    3  C6  UNL     1      78.253  33.227  -9.648  1.00  0.00     0.012 A 
HETATM    4  C7  UNL     1      78.290  33.722 -11.112  1.00  0.00    -0.027 A 
HETATM    5  C8  UNL     1      76.908  34.158 -11.470  1.00  0.00     0.016 C 
HETATM    6  C9  UNL     1      78.703  32.549 -11.958  1.00  0.00     0.005 C 
HETATM    7  C10 UNL     1      80.002  31.929 -11.443  1.00  0.00     0.016 C 
HETATM    8  C11 UNL     1      80.647  33.079 -12.191  1.00  0.00    -0.035 C 
HETATM    9  C12 UNL     1      82.035  32.724 -12.598  1.00  0.00     0.016 C 
HETATM   10  C13 UNL     1      80.569  34.392 -11.531  1.00  0.00     0.026 C 
HETATM   11  C14 UNL     1      79.537  32.865 -13.167  1.00  0.00    -0.029 C 
HETATM   12  C15 UNL     1      79.696  31.555 -13.967  1.00  0.00     0.016 C 
ENDROOT
BRANCH   1  13
HETATM   13  C3  UNL     1      79.083  36.142 -10.741  1.00  0.00     0.023 C 
HETATM   14  N1  UNL     1      78.924  36.809  -9.676  1.00  0.00    -0.276 N 
ATOM     15  H1  UNL     1      78.972  36.228  -8.839  1.00  0.00     0.193 HD
BRANCH  13  16
HETATM   16  C2  UNL     1      79.048  36.812 -12.044  1.00  0.00     0.034 C 
HETATM   17  C1  UNL     1      77.690  37.480 -12.333  1.00  0.00     0.016 C 
BRANCH  16  18
HETATM   18  C19 UNL     1      80.161  37.710 -12.440  1.00  0.00    -0.005 C 
HETATM   19  C20 UNL     1      80.335  37.473 -13.971  1.00  0.00     0.005 C 
HETATM   20  C21 UNL     1      81.814  37.347 -14.289  1.00  0.00     0.000 C 
HETATM   21  C22 UNL     1      82.557  38.638 -14.198  1.00  0.00     0.000 C 
HETATM   22  C23 UNL     1      82.312  39.380 -12.907  1.00  0.00     0.000 C 
HETATM   23  C24 UNL     1      80.952  39.985 -12.966  1.00  0.00     0.000 C 
HETATM   24  C25 UNL     1      79.875  39.186 -12.274  1.00  0.00     0.005 C 
ENDBRANCH  16  18
ENDBRANCH  13  16
BRANCH  14  25
HETATM   25  O1  UNL     1      78.712  38.081  -9.395  1.00  0.00    -0.290 OA
ATOM     26  H1  UNL     1      78.591  38.871  -9.908  1.00  0.00     0.244 HD
ENDBRANCH  14  25
ENDBRANCH   1  13
BRANCH  11  27
HETATM   27  C16 UNL     1      79.135  33.919 -14.101  1.00  0.00    -0.013 C 
HETATM   28  C17 UNL     1      80.256  34.042 -15.148  1.00  0.00     0.010 C 
HETATM   29  C18 UNL     1      77.948  33.362 -14.909  1.00  0.00     0.010 C 
ENDBRANCH  11  27
TORSDOF 5
ENDMDL
MODEL 5
REMARK VINA RESULT: -6.707373977      1.535      3.108
REMARK  5 active torsions:
REMARK  status: ('A' for Active; 'I' for Inactive)
REMARK    1  A    between atoms: C2_2  and  C3_3 
REMARK    2  A    between atoms: C2_2  and  C19_23 
REMARK    3  A    between atoms: C3_3  and  C4_8 
REMARK    4  A    between atoms: N1_4  and  O1_6 
REMARK    5  A    between atoms: C14_18  and  C16_20 
ROOT
HETATM    1  C4  UNL     1      78.827  35.636 -13.443  1.00  0.00     0.009 A 
HETATM    2  C5  UNL     1      78.292  36.390 -14.596  1.00  0.00     0.017 A 
HETATM    3  C6  UNL     1      79.503  35.918 -15.381  1.00  0.00     0.012 A 
HETATM    4  C7  UNL     1      79.977  35.103 -14.156  1.00  0.00    -0.027 A 
HETATM    5  C8  UNL     1      81.377  35.525 -13.854  1.00  0.00     0.016 C 
HETATM    6  C9  UNL     1      79.944  33.654 -14.557  1.00  0.00     0.005 C 
HETATM    7  C10 UNL     1      78.572  33.267 -15.110  1.00  0.00     0.016 C 
HETATM    8  C11 UNL     1      78.195  33.180 -13.644  1.00  0.00    -0.035 C 
HETATM    9  C12 UNL     1      77.064  32.231 -13.452  1.00  0.00     0.016 C 
HETATM   10  C13 UNL     1      77.978  34.467 -12.964  1.00  0.00     0.026 C 
HETATM   11  C14 UNL     1      79.590  32.674 -13.475  1.00  0.00    -0.029 C 
HETATM   12  C15 UNL     1      79.782  31.259 -14.059  1.00  0.00     0.016 C 
ENDROOT
BRANCH   1  13
HETATM   13  C3  UNL     1      79.009  36.548 -12.259  1.00  0.00     0.023 C 
HETATM   14  N1  UNL     1      79.615  37.655 -12.375  1.00  0.00    -0.276 N 
ATOM     15  H1  UNL     1      79.947  37.821 -13.325  1.00  0.00     0.193 HD
BRANCH  13  16
HETATM   16  C2  UNL     1      78.459  36.140 -10.963  1.00  0.00     0.034 C 
HETATM   17  C1  UNL     1      79.523  35.529 -10.032  1.00  0.00     0.016 C 
BRANCH  16  18
HETATM   18  C19 UNL     1      77.584  37.072 -10.208  1.00  0.00    -0.005 C 
HETATM   19  C20 UNL     1      76.322  36.229  -9.855  1.00  0.00     0.005 C 
HETATM   20  C21 UNL     1      75.079  37.061 -10.122  1.00  0.00     0.000 C 
HETATM   21  C22 UNL     1      74.873  38.161  -9.135  1.00  0.00     0.000 C 
HETATM   22  C23 UNL     1      76.098  39.016  -8.927  1.00  0.00     0.000 C 
HETATM   23  C24 UNL     1      77.071  38.246  -8.102  1.00  0.00     0.000 C 
HETATM   24  C25 UNL     1      78.153  37.548  -8.891  1.00  0.00     0.005 C 
ENDBRANCH  16  18
ENDBRANCH  13  16
BRANCH  14  25
HETATM   25  O1  UNL     1      79.917  38.644 -11.555  1.00  0.00    -0.290 OA
ATOM     26  H1  UNL     1      80.646  39.247 -11.471  1.00  0.00     0.244 HD
ENDBRANCH  14  25
ENDBRANCH   1  13
BRANCH  11  27
HETATM   27  C16 UNL     1      80.261  32.720 -12.173  1.00  0.00    -0.013 C 
HETATM   28  C17 UNL     1      79.662  31.588 -11.320  1.00  0.00     0.010 C 
HETATM   29  C18 UNL     1      81.713  32.263 -12.409  1.00  0.00     0.010 C 
ENDBRANCH  11  27
TORSDOF 5
ENDMDL
