MODEL 1
REMARK VINA RESULT: -3.837771462      0.000      0.000
REMARK  3 active torsions:
REMARK  status: ('A' for Active; 'I' for Inactive)
REMARK    1  A    between atoms: N1_1  and  C1_5 
REMARK    2  A    between atoms: C1_5  and  C2_6 
REMARK    3  A    between atoms: C4_8  and  N2_9 
ROOT
HETATM    1  C2  UNL     1       4.475  -1.588  42.391  1.00  0.00    -0.023 A 
HETATM    2  C3  UNL     1       5.493  -2.552  42.774  1.00  0.00     0.017 A 
HETATM    3  C4  UNL     1       4.231  -2.606  43.424  1.00  0.00     0.237 A 
ENDROOT
BRANCH   1   4
HETATM    4  C1  UNL     1       4.195  -0.457  41.508  1.00  0.00     0.266 C 
BRANCH   4   5
HETATM    5  N1  UNL     1       2.951   0.213  41.787  1.00  0.00    -0.076 N 
ATOM      6  H13 UNL     1       2.296   0.086  41.016  1.00  0.00     0.274 HD
ATOM      7  H12 UNL     1       2.442  -0.271  42.527  1.00  0.00     0.274 HD
ATOM      8  H11 UNL     1       3.052   1.203  42.011  1.00  0.00     0.274 HD
ENDBRANCH   4   5
ENDBRANCH   1   4
BRANCH   3   9
HETATM    9  N2  UNL     1       3.299  -3.655  43.122  1.00  0.00    -0.068 N 
ATOM     10  H23 UNL     1       3.114  -3.661  42.119  1.00  0.00     0.275 HD
ATOM     11  H22 UNL     1       3.759  -4.557  43.239  1.00  0.00     0.275 HD
ATOM     12  H21 UNL     1       2.413  -3.663  43.627  1.00  0.00     0.275 HD
ENDBRANCH   3   9
TORSDOF 3
ENDMDL
MODEL 2
REMARK VINA RESULT: -3.713881251      1.186      3.023
REMARK  3 active torsions:
REMARK  status: ('A' for Active; 'I' for Inactive)
REMARK    1  A    between atoms: N1_1  and  C1_5 
REMARK    2  A    between atoms: C1_5  and  C2_6 
REMARK    3  A    between atoms: C4_8  and  N2_9 
ROOT
HETATM    1  C2  UNL     1       3.771  -1.942  42.368  1.00  0.00    -0.023 A 
HETATM    2  C3  UNL     1       4.932  -1.201  41.903  1.00  0.00     0.017 A 
HETATM    3  C4  UNL     1       3.660  -0.873  41.363  1.00  0.00     0.237 A 
ENDROOT
BRANCH   1   4
HETATM    4  C1  UNL     1       3.335  -3.008  43.266  1.00  0.00     0.266 C 
BRANCH   4   5
HETATM    5  N1  UNL     1       2.951  -2.553  44.578  1.00  0.00    -0.076 N 
ATOM      6  H13 UNL     1       3.756  -2.545  45.204  1.00  0.00     0.274 HD
ATOM      7  H12 UNL     1       2.736  -1.556  44.561  1.00  0.00     0.274 HD
ATOM      8  H11 UNL     1       2.181  -3.078  44.992  1.00  0.00     0.274 HD
ENDBRANCH   4   5
ENDBRANCH   1   4
BRANCH   3   9
HETATM    9  N2  UNL     1       2.995   0.339  41.746  1.00  0.00    -0.068 N 
ATOM     10  H23 UNL     1       3.131   0.496  42.744  1.00  0.00     0.275 HD
ATOM     11  H22 UNL     1       3.497   1.136  41.355  1.00  0.00     0.275 HD
ATOM     12  H21 UNL     1       2.003   0.428  41.524  1.00  0.00     0.275 HD
ENDBRANCH   3   9
TORSDOF 3
ENDMDL
MODEL 3
REMARK VINA RESULT: -3.276358925      1.675      3.240
REMARK  3 active torsions:
REMARK  status: ('A' for Active; 'I' for Inactive)
REMARK    1  A    between atoms: N1_1  and  C1_5 
REMARK    2  A    between atoms: C1_5  and  C2_6 
REMARK    3  A    between atoms: C4_8  and  N2_9 
ROOT
HETATM    1  C2  UNL     1       3.373  -1.914  42.729  1.00  0.00    -0.023 A 
HETATM    2  C3  UNL     1       2.972  -1.171  41.546  1.00  0.00     0.017 A 
HETATM    3  C4  UNL     1       4.236  -0.886  42.126  1.00  0.00     0.237 A 
ENDROOT
BRANCH   1   4
HETATM    4  C1  UNL     1       2.953  -2.951  43.668  1.00  0.00     0.266 C 
BRANCH   4   5
HETATM    5  N1  UNL     1       2.952  -4.281  43.115  1.00  0.00    -0.076 N 
ATOM      6  H13 UNL     1       3.276  -4.267  42.148  1.00  0.00     0.274 HD
ATOM      7  H12 UNL     1       3.692  -4.844  43.537  1.00  0.00     0.274 HD
ATOM      8  H11 UNL     1       2.055  -4.761  43.184  1.00  0.00     0.274 HD
ENDBRANCH   4   5
ENDBRANCH   1   4
BRANCH   3   9
HETATM    9  N2  UNL     1       5.447  -1.319  41.489  1.00  0.00    -0.068 N 
ATOM     10  H23 UNL     1       5.933  -1.973  42.102  1.00  0.00     0.275 HD
ATOM     11  H22 UNL     1       5.214  -1.927  40.705  1.00  0.00     0.275 HD
ATOM     12  H21 UNL     1       6.101  -0.603  41.175  1.00  0.00     0.275 HD
ENDBRANCH   3   9
TORSDOF 3
ENDMDL
MODEL 4
REMARK VINA RESULT: -3.265724983      1.987      2.925
REMARK  3 active torsions:
REMARK  status: ('A' for Active; 'I' for Inactive)
REMARK    1  A    between atoms: N1_1  and  C1_5 
REMARK    2  A    between atoms: C1_5  and  C2_6 
REMARK    3  A    between atoms: C4_8  and  N2_9 
ROOT
HETATM    1  C2  UNL     1       4.661  -2.544  42.761  1.00  0.00    -0.023 A 
HETATM    2  C3  UNL     1       3.515  -1.792  42.278  1.00  0.00     0.017 A 
HETATM    3  C4  UNL     1       3.291  -2.843  43.206  1.00  0.00     0.237 A 
ENDROOT
BRANCH   1   4
HETATM    4  C1  UNL     1       6.113  -2.671  42.666  1.00  0.00     0.266 C 
BRANCH   4   5
HETATM    5  N1  UNL     1       6.710  -3.424  43.739  1.00  0.00    -0.076 N 
ATOM      6  H13 UNL     1       6.174  -3.308  44.599  1.00  0.00     0.274 HD
ATOM      7  H12 UNL     1       6.581  -4.425  43.588  1.00  0.00     0.274 HD
ATOM      8  H11 UNL     1       7.694  -3.210  43.900  1.00  0.00     0.274 HD
ENDBRANCH   4   5
ENDBRANCH   1   4
BRANCH   3   9
HETATM    9  N2  UNL     1       2.952  -2.553  44.570  1.00  0.00    -0.068 N 
ATOM     10  H23 UNL     1       2.509  -3.371  44.987  1.00  0.00     0.275 HD
ATOM     11  H22 UNL     1       3.807  -2.494  45.123  1.00  0.00     0.275 HD
ATOM     12  H21 UNL     1       2.378  -1.730  44.753  1.00  0.00     0.275 HD
ENDBRANCH   3   9
TORSDOF 3
ENDMDL
MODEL 5
REMARK VINA RESULT: -3.243443704      1.268      3.206
REMARK  3 active torsions:
REMARK  status: ('A' for Active; 'I' for Inactive)
REMARK    1  A    between atoms: N1_1  and  C1_5 
REMARK    2  A    between atoms: C1_5  and  C2_6 
REMARK    3  A    between atoms: C4_8  and  N2_9 
ROOT
HETATM    1  C2  UNL     1       4.327  -1.702  42.254  1.00  0.00    -0.023 A 
HETATM    2  C3  UNL     1       4.944  -0.918  41.196  1.00  0.00     0.017 A 
HETATM    3  C4  UNL     1       3.538  -0.825  41.374  1.00  0.00     0.237 A 
ENDROOT
BRANCH   1   4
HETATM    4  C1  UNL     1       4.601  -2.654  43.328  1.00  0.00     0.266 C 
BRANCH   4   5
HETATM    5  N1  UNL     1       5.985  -3.034  43.439  1.00  0.00    -0.076 N 
ATOM      6  H13 UNL     1       6.083  -3.864  44.024  1.00  0.00     0.274 HD
ATOM      7  H12 UNL     1       6.326  -3.408  42.553  1.00  0.00     0.274 HD
ATOM      8  H11 UNL     1       6.597  -2.288  43.771  1.00  0.00     0.274 HD
ENDBRANCH   4   5
ENDBRANCH   1   4
BRANCH   3   9
HETATM    9  N2  UNL     1       2.951   0.350  41.953  1.00  0.00    -0.068 N 
ATOM     10  H23 UNL     1       2.717   0.162  42.928  1.00  0.00     0.275 HD
ATOM     11  H22 UNL     1       3.669   1.065  42.061  1.00  0.00     0.275 HD
ATOM     12  H21 UNL     1       2.141   0.756  41.485  1.00  0.00     0.275 HD
ENDBRANCH   3   9
TORSDOF 3
ENDMDL
