MODEL 1
REMARK VINA RESULT: -6.189891985      0.000      0.000
REMARK  6 active torsions:
REMARK  status: ('A' for Active; 'I' for Inactive)
REMARK    1  A    between atoms: C6_11  and  C7_12 
REMARK    2  A    between atoms: C7_12  and  O1_13 
REMARK    3  A    between atoms: C7_12  and  O2_15 
REMARK    4  A    between atoms: C8_17  and  N4_18 
REMARK    5  A    between atoms: N4_18  and  N5_20 
REMARK    6  A    between atoms: N5_20  and  C9_22 
ROOT
HETATM    1  C1  UNL     1      19.312  10.136  29.107  1.00  0.00     0.074 C 
HETATM    2  C2  UNL     1      18.421  11.132  28.469  1.00  0.00     0.086 A 
HETATM    3  C3  UNL     1      18.777  12.445  28.247  1.00  0.00     0.154 A 
HETATM    4  C4  UNL     1      20.023  13.105  28.566  1.00  0.00     0.120 C 
HETATM    5  N1  UNL     1      21.027  13.632  28.803  1.00  0.00    -0.190 NA
HETATM    6  N2  UNL     1      17.722  13.039  27.655  1.00  0.00    -0.178 N 
ATOM      7  H2  UNL     1      17.686  14.017  27.369  1.00  0.00     0.185 HD
HETATM    8  C5  UNL     1      16.714  12.144  27.497  1.00  0.00     0.705 A 
HETATM    9  N3  UNL     1      15.484  12.201  26.985  1.00  0.00    -0.185 N 
ATOM     10  H3  UNL     1      15.152  13.087  26.604  1.00  0.00     0.184 HD
HETATM   11  C6  UNL     1      14.665  11.136  26.950  1.00  0.00     0.127 A 
HETATM   12  C8  UNL     1      15.119   9.945  27.467  1.00  0.00     0.164 A 
HETATM   13  N8  UNL     1      16.363   9.901  27.981  1.00  0.00    -0.261 N 
ATOM     14  H8  UNL     1      16.705   9.019  28.364  1.00  0.00     0.190 HD
HETATM   15  N9  UNL     1      17.163  10.963  28.008  1.00  0.00    -0.086 N 
ENDROOT
BRANCH  12  16
HETATM   16  N4  UNL     1      14.336   8.906  27.439  1.00  0.00    -0.281 N 
ATOM     17  H4  UNL     1      13.506   8.914  28.032  1.00  0.00     0.188 HD
BRANCH  16  18
HETATM   18  N5  UNL     1      14.561   7.797  26.658  1.00  0.00    -0.275 N 
ATOM     19  H5  UNL     1      15.488   7.372  26.697  1.00  0.00     0.189 HD
BRANCH  18  20
HETATM   20  C9  UNL     1      13.597   7.196  25.799  1.00  0.00     0.196 C 
HETATM   21  N6  UNL     1      13.201   7.740  24.707  1.00  0.00    -0.376 N 
ATOM     22  H62 UNL     1      13.603   8.643  24.455  1.00  0.00     0.158 HD
ATOM     23  H61 UNL     1      12.511   7.309  24.091  1.00  0.00     0.158 HD
HETATM   24  C10 UNL     1      13.029   5.921  26.155  1.00  0.00     0.137 C 
HETATM   25  N7  UNL     1      12.558   4.905  26.439  1.00  0.00    -0.188 NA
ENDBRANCH  18  20
ENDBRANCH  16  18
ENDBRANCH  12  16
BRANCH  11  26
HETATM   26  C7  UNL     1      13.329  11.299  26.366  1.00  0.00     0.309 C 
BRANCH  26  27
HETATM   27  O1  UNL     1      13.069  12.631  26.014  1.00  0.00    -0.366 OA
ATOM     28  H1  UNL     1      12.148  12.777  25.834  1.00  0.00     0.213 HD
ENDBRANCH  26  27
BRANCH  26  29
HETATM   29  O2  UNL     1      13.219  10.559  25.190  1.00  0.00    -0.366 OA
ATOM     30  H2  UNL     1      13.641   9.714  25.288  1.00  0.00     0.213 HD
ENDBRANCH  26  29
ENDBRANCH  11  26
TORSDOF 6
ENDMDL
MODEL 2
REMARK VINA RESULT: -6.176240174      4.291      7.661
REMARK  6 active torsions:
REMARK  status: ('A' for Active; 'I' for Inactive)
REMARK    1  A    between atoms: C6_11  and  C7_12 
REMARK    2  A    between atoms: C7_12  and  O1_13 
REMARK    3  A    between atoms: C7_12  and  O2_15 
REMARK    4  A    between atoms: C8_17  and  N4_18 
REMARK    5  A    between atoms: N4_18  and  N5_20 
REMARK    6  A    between atoms: N5_20  and  C9_22 
ROOT
HETATM    1  C1  UNL     1       8.905   8.877  30.783  1.00  0.00     0.074 C 
HETATM    2  C2  UNL     1       8.892   9.375  29.390  1.00  0.00     0.086 A 
HETATM    3  C3  UNL     1       7.763   9.403  28.598  1.00  0.00     0.154 A 
HETATM    4  C4  UNL     1       6.422   8.979  28.930  1.00  0.00     0.120 C 
HETATM    5  N1  UNL     1       5.341   8.658  29.199  1.00  0.00    -0.190 NA
HETATM    6  N2  UNL     1       8.136   9.915  27.408  1.00  0.00    -0.178 N 
ATOM      7  H2  UNL     1       7.514  10.058  26.613  1.00  0.00     0.185 HD
HETATM    8  C5  UNL     1       9.460  10.210  27.424  1.00  0.00     0.705 A 
HETATM    9  N3  UNL     1      10.315  10.723  26.538  1.00  0.00    -0.185 N 
ATOM     10  H3  UNL     1       9.969  10.976  25.613  1.00  0.00     0.184 HD
HETATM   11  C6  UNL     1      11.615  10.918  26.817  1.00  0.00     0.127 A 
HETATM   12  C8  UNL     1      12.074  10.573  28.067  1.00  0.00     0.164 A 
HETATM   13  N8  UNL     1      11.201  10.057  28.952  1.00  0.00    -0.261 N 
ATOM     14  H8  UNL     1      11.537   9.801  29.881  1.00  0.00     0.190 HD
HETATM   15  N9  UNL     1       9.917   9.869  28.662  1.00  0.00    -0.086 N 
ENDROOT
BRANCH  12  16
HETATM   16  N4  UNL     1      13.332  10.758  28.350  1.00  0.00    -0.281 N 
ATOM     17  H4  UNL     1      13.603  11.642  28.780  1.00  0.00     0.188 HD
BRANCH  16  18
HETATM   18  N5  UNL     1      14.317   9.830  28.104  1.00  0.00    -0.275 N 
ATOM     19  H5  UNL     1      14.067   8.844  28.180  1.00  0.00     0.189 HD
BRANCH  18  20
HETATM   20  C9  UNL     1      15.661  10.144  27.749  1.00  0.00     0.196 C 
HETATM   21  N6  UNL     1      15.961  10.978  26.823  1.00  0.00    -0.376 N 
ATOM     22  H62 UNL     1      15.193  11.430  26.326  1.00  0.00     0.158 HD
ATOM     23  H61 UNL     1      16.923  11.203  26.569  1.00  0.00     0.158 HD
HETATM   24  C10 UNL     1      16.744   9.505  28.450  1.00  0.00     0.137 C 
HETATM   25  N7  UNL     1      17.620   8.987  28.997  1.00  0.00    -0.188 NA
ENDBRANCH  18  20
ENDBRANCH  16  18
ENDBRANCH  12  16
BRANCH  11  26
HETATM   26  C7  UNL     1      12.477  11.488  25.776  1.00  0.00     0.309 C 
BRANCH  26  27
HETATM   27  O1  UNL     1      13.259  12.545  26.263  1.00  0.00    -0.366 OA
ATOM     28  H1  UNL     1      13.448  13.187  25.589  1.00  0.00     0.213 HD
ENDBRANCH  26  27
BRANCH  26  29
HETATM   29  O2  UNL     1      13.373  10.529  25.306  1.00  0.00    -0.366 OA
ATOM     30  H2  UNL     1      14.102  10.945  24.862  1.00  0.00     0.213 HD
ENDBRANCH  26  29
ENDBRANCH  11  26
TORSDOF 6
ENDMDL
MODEL 3
REMARK VINA RESULT: -6.165942469      3.154      8.013
REMARK  6 active torsions:
REMARK  status: ('A' for Active; 'I' for Inactive)
REMARK    1  A    between atoms: C6_11  and  C7_12 
REMARK    2  A    between atoms: C7_12  and  O1_13 
REMARK    3  A    between atoms: C7_12  and  O2_15 
REMARK    4  A    between atoms: C8_17  and  N4_18 
REMARK    5  A    between atoms: N4_18  and  N5_20 
REMARK    6  A    between atoms: N5_20  and  C9_22 
ROOT
HETATM    1  C1  UNL     1      16.808   9.788  30.016  1.00  0.00     0.074 C 
HETATM    2  C2  UNL     1      16.959  10.493  28.724  1.00  0.00     0.086 A 
HETATM    3  C3  UNL     1      16.036  10.422  27.701  1.00  0.00     0.154 A 
HETATM    4  C4  UNL     1      14.792   9.690  27.663  1.00  0.00     0.120 C 
HETATM    5  N1  UNL     1      13.783   9.118  27.636  1.00  0.00    -0.190 NA
HETATM    6  N2  UNL     1      16.511  11.185  26.697  1.00  0.00    -0.178 N 
ATOM      7  H2  UNL     1      16.046  11.328  25.801  1.00  0.00     0.185 HD
HETATM    8  C5  UNL     1      17.700  11.734  27.052  1.00  0.00     0.705 A 
HETATM    9  N3  UNL     1      18.573  12.545  26.453  1.00  0.00    -0.185 N 
ATOM     10  H3  UNL     1      18.371  12.870  25.508  1.00  0.00     0.184 HD
HETATM   11  C6  UNL     1      19.710  12.949  27.045  1.00  0.00     0.127 A 
HETATM   12  C8  UNL     1      19.976  12.504  28.319  1.00  0.00     0.164 A 
HETATM   13  N8  UNL     1      19.087  11.686  28.914  1.00  0.00    -0.261 N 
ATOM     14  H8  UNL     1      19.280  11.355  29.859  1.00  0.00     0.190 HD
HETATM   15  N9  UNL     1      17.966  11.294  28.315  1.00  0.00    -0.086 N 
ENDROOT
BRANCH  12  16
HETATM   16  N4  UNL     1      21.074  12.889  28.905  1.00  0.00    -0.281 N 
ATOM     17  H4  UNL     1      21.949  12.449  28.621  1.00  0.00     0.188 HD
BRANCH  16  18
HETATM   18  N5  UNL     1      21.122  13.853  29.884  1.00  0.00    -0.275 N 
ATOM     19  H5  UNL     1      20.289  13.986  30.458  1.00  0.00     0.189 HD
BRANCH  18  20
HETATM   20  C9  UNL     1      22.249  14.681  30.157  1.00  0.00     0.196 C 
HETATM   21  N6  UNL     1      23.095  15.026  29.257  1.00  0.00    -0.376 N 
ATOM     22  H62 UNL     1      22.942  14.685  28.308  1.00  0.00     0.158 HD
ATOM     23  H61 UNL     1      23.902  15.619  29.452  1.00  0.00     0.158 HD
HETATM   24  C10 UNL     1      22.465  15.162  31.497  1.00  0.00     0.137 C 
HETATM   25  N7  UNL     1      22.655  15.542  32.572  1.00  0.00    -0.188 NA
ENDBRANCH  18  20
ENDBRANCH  16  18
ENDBRANCH  12  16
BRANCH  11  26
HETATM   26  C7  UNL     1      20.607  13.842  26.304  1.00  0.00     0.309 C 
BRANCH  26  27
HETATM   27  O1  UNL     1      20.079  14.196  25.054  1.00  0.00    -0.366 OA
ATOM     28  H1  UNL     1      19.309  14.746  25.137  1.00  0.00     0.213 HD
ENDBRANCH  26  27
BRANCH  26  29
HETATM   29  O2  UNL     1      20.790  15.036  26.999  1.00  0.00    -0.366 OA
ATOM     30  H2  UNL     1      20.031  15.226  27.537  1.00  0.00     0.213 HD
ENDBRANCH  26  29
ENDBRANCH  11  26
TORSDOF 6
ENDMDL
MODEL 4
REMARK VINA RESULT: -6.043677975      4.317      7.826
REMARK  6 active torsions:
REMARK  status: ('A' for Active; 'I' for Inactive)
REMARK    1  A    between atoms: C6_11  and  C7_12 
REMARK    2  A    between atoms: C7_12  and  O1_13 
REMARK    3  A    between atoms: C7_12  and  O2_15 
REMARK    4  A    between atoms: C8_17  and  N4_18 
REMARK    5  A    between atoms: N4_18  and  N5_20 
REMARK    6  A    between atoms: N5_20  and  C9_22 
ROOT
HETATM    1  C1  UNL     1       8.805   8.952  30.858  1.00  0.00     0.074 C 
HETATM    2  C2  UNL     1       8.804   9.408  29.450  1.00  0.00     0.086 A 
HETATM    3  C3  UNL     1       7.686   9.393  28.642  1.00  0.00     0.154 A 
HETATM    4  C4  UNL     1       6.349   8.956  28.967  1.00  0.00     0.120 C 
HETATM    5  N1  UNL     1       5.269   8.624  29.231  1.00  0.00    -0.190 NA
HETATM    6  N2  UNL     1       8.068   9.875  27.443  1.00  0.00    -0.178 N 
ATOM      7  H2  UNL     1       7.456   9.984  26.634  1.00  0.00     0.185 HD
HETATM    8  C5  UNL     1       9.387  10.194  27.468  1.00  0.00     0.705 A 
HETATM    9  N3  UNL     1      10.246  10.694  26.580  1.00  0.00    -0.185 N 
ATOM     10  H3  UNL     1       9.909  10.914  25.642  1.00  0.00     0.184 HD
HETATM   11  C6  UNL     1      11.538  10.920  26.871  1.00  0.00     0.127 A 
HETATM   12  C8  UNL     1      11.985  10.621  28.136  1.00  0.00     0.164 A 
HETATM   13  N8  UNL     1      11.108  10.116  29.025  1.00  0.00    -0.261 N 
ATOM     14  H8  UNL     1      11.435   9.893  29.965  1.00  0.00     0.190 HD
HETATM   15  N9  UNL     1       9.831   9.897  28.722  1.00  0.00    -0.086 N 
ENDROOT
BRANCH  12  16
HETATM   16  N4  UNL     1      13.235  10.835  28.432  1.00  0.00    -0.281 N 
ATOM     17  H4  UNL     1      13.505  11.773  28.727  1.00  0.00     0.188 HD
BRANCH  16  18
HETATM   18  N5  UNL     1      14.213   9.871  28.368  1.00  0.00    -0.275 N 
ATOM     19  H5  UNL     1      13.943   8.909  28.575  1.00  0.00     0.189 HD
BRANCH  18  20
HETATM   20  C9  UNL     1      15.577  10.115  28.036  1.00  0.00     0.196 C 
HETATM   21  N6  UNL     1      16.493   9.224  28.151  1.00  0.00    -0.376 N 
ATOM     22  H62 UNL     1      16.217   8.305  28.498  1.00  0.00     0.158 HD
ATOM     23  H61 UNL     1      17.469   9.398  27.913  1.00  0.00     0.158 HD
HETATM   24  C10 UNL     1      15.965  11.412  27.547  1.00  0.00     0.137 C 
HETATM   25  N7  UNL     1      16.288  12.455  27.167  1.00  0.00    -0.188 NA
ENDBRANCH  18  20
ENDBRANCH  16  18
ENDBRANCH  12  16
BRANCH  11  26
HETATM   26  C7  UNL     1      12.406  11.474  25.825  1.00  0.00     0.309 C 
BRANCH  26  27
HETATM   27  O1  UNL     1      13.101  12.608  26.266  1.00  0.00    -0.366 OA
ATOM     28  H1  UNL     1      12.852  13.388  25.784  1.00  0.00     0.213 HD
ENDBRANCH  26  27
BRANCH  26  29
HETATM   29  O2  UNL     1      13.377  10.544  25.455  1.00  0.00    -0.366 OA
ATOM     30  H2  UNL     1      14.205  10.747  25.872  1.00  0.00     0.213 HD
ENDBRANCH  26  29
ENDBRANCH  11  26
TORSDOF 6
ENDMDL
MODEL 5
REMARK VINA RESULT: -6.036370506      3.431      7.017
REMARK  6 active torsions:
REMARK  status: ('A' for Active; 'I' for Inactive)
REMARK    1  A    between atoms: C6_11  and  C7_12 
REMARK    2  A    between atoms: C7_12  and  O1_13 
REMARK    3  A    between atoms: C7_12  and  O2_15 
REMARK    4  A    between atoms: C8_17  and  N4_18 
REMARK    5  A    between atoms: N4_18  and  N5_20 
REMARK    6  A    between atoms: N5_20  and  C9_22 
ROOT
HETATM    1  C1  UNL     1      12.552  11.649  25.636  1.00  0.00     0.074 C 
HETATM    2  C2  UNL     1      13.047  11.256  26.974  1.00  0.00     0.086 A 
HETATM    3  C3  UNL     1      12.225  11.038  28.060  1.00  0.00     0.154 A 
HETATM    4  C4  UNL     1      10.786  11.137  28.131  1.00  0.00     0.120 C 
HETATM    5  N1  UNL     1       9.629  11.196  28.187  1.00  0.00    -0.190 NA
HETATM    6  N2  UNL     1      13.026  10.702  29.091  1.00  0.00    -0.178 N 
ATOM      7  H2  UNL     1      12.704  10.482  30.033  1.00  0.00     0.185 HD
HETATM    8  C5  UNL     1      14.322  10.701  28.691  1.00  0.00     0.705 A 
HETATM    9  N3  UNL     1      15.486  10.448  29.291  1.00  0.00    -0.185 N 
ATOM     10  H3  UNL     1      15.483  10.190  30.278  1.00  0.00     0.184 HD
HETATM   11  C6  UNL     1      16.663  10.521  28.647  1.00  0.00     0.127 A 
HETATM   12  C8  UNL     1      16.659  10.872  27.317  1.00  0.00     0.164 A 
HETATM   13  N8  UNL     1      15.478  11.124  26.722  1.00  0.00    -0.261 N 
ATOM     14  H8  UNL     1      15.470  11.383  25.736  1.00  0.00     0.190 HD
HETATM   15  N9  UNL     1      14.320  11.048  27.373  1.00  0.00    -0.086 N 
ENDROOT
BRANCH  12  16
HETATM   16  N4  UNL     1      17.793  10.946  26.681  1.00  0.00    -0.281 N 
ATOM     17  H4  UNL     1      18.213  10.079  26.345  1.00  0.00     0.188 HD
BRANCH  16  18
HETATM   18  N5  UNL     1      18.458  12.124  26.435  1.00  0.00    -0.275 N 
ATOM     19  H5  UNL     1      17.936  12.877  25.985  1.00  0.00     0.189 HD
BRANCH  18  20
HETATM   20  C9  UNL     1      19.822  12.373  26.762  1.00  0.00     0.196 C 
HETATM   21  N6  UNL     1      20.603  11.470  27.231  1.00  0.00    -0.376 N 
ATOM     22  H62 UNL     1      20.216  10.537  27.371  1.00  0.00     0.158 HD
ATOM     23  H61 UNL     1      21.580  11.648  27.465  1.00  0.00     0.158 HD
HETATM   24  C10 UNL     1      20.367  13.691  26.565  1.00  0.00     0.137 C 
HETATM   25  N7  UNL     1      20.810  14.750  26.424  1.00  0.00    -0.188 NA
ENDBRANCH  18  20
ENDBRANCH  16  18
ENDBRANCH  12  16
BRANCH  11  26
HETATM   26  C7  UNL     1      17.891  10.225  29.394  1.00  0.00     0.309 C 
BRANCH  26  27
HETATM   27  O1  UNL     1      18.711   9.313  28.714  1.00  0.00    -0.366 OA
ATOM     28  H1  UNL     1      19.078   9.688  27.922  1.00  0.00     0.213 HD
ENDBRANCH  26  27
BRANCH  26  29
HETATM   29  O2  UNL     1      18.651  11.381  29.559  1.00  0.00    -0.366 OA
ATOM     30  H2  UNL     1      19.559  11.217  29.332  1.00  0.00     0.213 HD
ENDBRANCH  26  29
ENDBRANCH  11  26
TORSDOF 6
ENDMDL
