MODEL 1
REMARK VINA RESULT: -7.629370805      0.000      0.000
REMARK  7 active torsions:
REMARK  status: ('A' for Active; 'I' for Inactive)
REMARK    1  A    between atoms: O1_1  and  C1_3 
REMARK    2  A    between atoms: C1_3  and  C2_4 
REMARK    3  A    between atoms: C2_4  and  O2_5 
REMARK    4  A    between atoms: C2_4  and  C3_7 
REMARK    5  A    between atoms: C2_4  and  C16_25 
REMARK    6  A    between atoms: C5_11  and  N2_12 
REMARK    7  A    between atoms: N2_12  and  C6_13 
ROOT
HETATM    1  C3  UNL     1      -3.543   1.734  12.358  1.00  0.00     0.004 A 
HETATM    2  C4  UNL     1      -3.580   2.125  13.673  1.00  0.00     0.101 A 
HETATM    3  N1  UNL     1      -3.094   3.296  14.097  1.00  0.00    -0.340 N 
ATOM      4  H1  UNL     1      -3.158   3.519  15.091  1.00  0.00     0.167 HD
HETATM    5  C5  UNL     1      -2.512   4.215  13.252  1.00  0.00     0.194 A 
HETATM    6  C14 UNL     1      -2.462   3.841  11.897  1.00  0.00     0.092 A 
HETATM    7 CL1  UNL     1      -1.719   4.982  10.767  1.00  0.00    -0.079 Cl
HETATM    8  C15 UNL     1      -2.965   2.636  11.471  1.00  0.00     0.041 A 
ENDROOT
BRANCH   1   9
HETATM    9  C2  UNL     1      -4.051   0.468  11.824  1.00  0.00     0.205 C 
BRANCH   9  10
HETATM   10  C1  UNL     1      -5.070   0.814  10.716  1.00  0.00     0.216 C 
BRANCH  10  11
HETATM   11  O1  UNL     1      -5.864   1.821  11.180  1.00  0.00    -0.397 OA
ATOM     12  H1  UNL     1      -5.801   2.544  10.568  1.00  0.00     0.209 HD
ENDBRANCH  10  11
ENDBRANCH   9  10
BRANCH   9  13
HETATM   13  O2  UNL     1      -4.690  -0.246  12.844  1.00  0.00    -0.375 OA
ATOM     14  H2  UNL     1      -4.039  -0.642  13.412  1.00  0.00     0.211 HD
ENDBRANCH   9  13
BRANCH   9  15
HETATM   15  C16 UNL     1      -3.026  -0.401  11.128  1.00  0.00     0.424 C 
HETATM   16  F2  UNL     1      -1.728  -0.139  11.443  1.00  0.00    -0.167 F 
HETATM   17  F3  UNL     1      -3.232  -0.327   9.754  1.00  0.00    -0.167 F 
HETATM   18  F4  UNL     1      -3.294  -1.718  11.459  1.00  0.00    -0.167 F 
ENDBRANCH   9  15
ENDBRANCH   1   9
BRANCH   5  19
HETATM   19  N2  UNL     1      -2.048   5.259  13.634  1.00  0.00    -0.423 NA
BRANCH  19  20
HETATM   20  C6  UNL     1      -1.555   6.411  14.069  1.00  0.00     0.170 C 
HETATM   21  C7  UNL     1      -0.615   7.075  13.062  1.00  0.00     0.044 C 
HETATM   22  C8  UNL     1      -1.343   8.253  12.475  1.00  0.00    -0.009 C 
HETATM   23  C9  UNL     1      -0.915   9.492  13.187  1.00  0.00     0.042 C 
HETATM   24  C13 UNL     1      -2.803   7.988  12.822  1.00  0.00     0.012 C 
HETATM   25  C10 UNL     1      -1.570   9.749  14.494  1.00  0.00     0.171 C 
HETATM   26  F1  UNL     1      -0.609  10.298  15.351  1.00  0.00    -0.249 F 
HETATM   27  C11 UNL     1      -2.091   8.513  15.178  1.00  0.00     0.045 C 
HETATM   28  C12 UNL     1      -2.632   7.497  14.236  1.00  0.00     0.024 C 
ENDBRANCH  19  20
ENDBRANCH   5  19
TORSDOF 7
ENDMDL
MODEL 2
REMARK VINA RESULT: -7.520710826      1.187      1.403
REMARK  7 active torsions:
REMARK  status: ('A' for Active; 'I' for Inactive)
REMARK    1  A    between atoms: O1_1  and  C1_3 
REMARK    2  A    between atoms: C1_3  and  C2_4 
REMARK    3  A    between atoms: C2_4  and  O2_5 
REMARK    4  A    between atoms: C2_4  and  C3_7 
REMARK    5  A    between atoms: C2_4  and  C16_25 
REMARK    6  A    between atoms: C5_11  and  N2_12 
REMARK    7  A    between atoms: N2_12  and  C6_13 
ROOT
HETATM    1  C3  UNL     1      -3.443   1.716  12.141  1.00  0.00     0.004 A 
HETATM    2  C4  UNL     1      -2.566   2.481  11.413  1.00  0.00     0.101 A 
HETATM    3  N1  UNL     1      -2.074   3.644  11.854  1.00  0.00    -0.340 N 
ATOM      4  H1  UNL     1      -1.426   4.156  11.257  1.00  0.00     0.167 HD
HETATM    5  C5  UNL     1      -2.405   4.179  13.080  1.00  0.00     0.194 A 
HETATM    6  C14 UNL     1      -3.302   3.415  13.849  1.00  0.00     0.092 A 
HETATM    7 CL1  UNL     1      -3.765   4.058  15.431  1.00  0.00    -0.079 Cl
HETATM    8  C15 UNL     1      -3.800   2.222  13.387  1.00  0.00     0.041 A 
ENDROOT
BRANCH   1   9
HETATM    9  C2  UNL     1      -4.023   0.440  11.720  1.00  0.00     0.205 C 
BRANCH   9  10
HETATM   10  C1  UNL     1      -5.046   0.747  10.603  1.00  0.00     0.216 C 
BRANCH  10  11
HETATM   11  O1  UNL     1      -5.857   1.750  11.046  1.00  0.00    -0.397 OA
ATOM     12  H1  UNL     1      -6.333   1.425  11.801  1.00  0.00     0.209 HD
ENDBRANCH  10  11
ENDBRANCH   9  10
BRANCH   9  13
HETATM   13  O2  UNL     1      -4.677  -0.157  12.803  1.00  0.00    -0.375 OA
ATOM     14  H2  UNL     1      -5.573   0.155  12.846  1.00  0.00     0.211 HD
ENDBRANCH   9  13
BRANCH   9  15
HETATM   15  C16 UNL     1      -3.057  -0.534  11.081  1.00  0.00     0.424 C 
HETATM   16  F2  UNL     1      -1.756  -0.396  11.457  1.00  0.00    -0.167 F 
HETATM   17  F3  UNL     1      -3.188  -0.455   9.697  1.00  0.00    -0.167 F 
HETATM   18  F4  UNL     1      -3.470  -1.814  11.407  1.00  0.00    -0.167 F 
ENDBRANCH   9  15
ENDBRANCH   1   9
BRANCH   5  19
HETATM   19  N2  UNL     1      -1.986   5.238  13.469  1.00  0.00    -0.423 NA
BRANCH  19  20
HETATM   20  C6  UNL     1      -1.545   6.412  13.901  1.00  0.00     0.170 C 
HETATM   21  C7  UNL     1      -0.679   7.139  12.873  1.00  0.00     0.044 C 
HETATM   22  C8  UNL     1      -1.493   8.280  12.324  1.00  0.00    -0.009 C 
HETATM   23  C9  UNL     1      -1.112   9.534  13.037  1.00  0.00     0.042 C 
HETATM   24  C13 UNL     1      -2.922   7.928  12.716  1.00  0.00     0.012 C 
HETATM   25  C10 UNL     1      -1.737   9.739  14.368  1.00  0.00     0.171 C 
HETATM   26  F1  UNL     1      -0.780  10.334  15.200  1.00  0.00    -0.249 F 
HETATM   27  C11 UNL     1      -2.164   8.469  15.053  1.00  0.00     0.045 C 
HETATM   28  C12 UNL     1      -2.676   7.433  14.117  1.00  0.00     0.024 C 
ENDBRANCH  19  20
ENDBRANCH   5  19
TORSDOF 7
ENDMDL
MODEL 3
REMARK VINA RESULT: -7.387978264      4.502      6.614
REMARK  7 active torsions:
REMARK  status: ('A' for Active; 'I' for Inactive)
REMARK    1  A    between atoms: O1_1  and  C1_3 
REMARK    2  A    between atoms: C1_3  and  C2_4 
REMARK    3  A    between atoms: C2_4  and  O2_5 
REMARK    4  A    between atoms: C2_4  and  C3_7 
REMARK    5  A    between atoms: C2_4  and  C16_25 
REMARK    6  A    between atoms: C5_11  and  N2_12 
REMARK    7  A    between atoms: N2_12  and  C6_13 
ROOT
HETATM    1  C3  UNL     1      -0.527   4.075  10.636  1.00  0.00     0.004 A 
HETATM    2  C4  UNL     1      -1.166   4.873  11.554  1.00  0.00     0.101 A 
HETATM    3  N1  UNL     1      -2.159   4.433  12.333  1.00  0.00    -0.340 N 
ATOM      4  H1  UNL     1      -2.585   5.084  12.992  1.00  0.00     0.167 HD
HETATM    5  C5  UNL     1      -2.631   3.140  12.285  1.00  0.00     0.194 A 
HETATM    6  C14 UNL     1      -1.994   2.300  11.355  1.00  0.00     0.092 A 
HETATM    7 CL1  UNL     1      -2.564   0.628  11.248  1.00  0.00    -0.079 Cl
HETATM    8  C15 UNL     1      -0.973   2.760  10.560  1.00  0.00     0.041 A 
ENDROOT
BRANCH   1   9
HETATM    9  C2  UNL     1       0.562   4.489   9.750  1.00  0.00     0.205 C 
BRANCH   9  10
HETATM   10  C1  UNL     1       0.417   6.011   9.526  1.00  0.00     0.216 C 
BRANCH  10  11
HETATM   11  O1  UNL     1      -0.180   6.198   8.314  1.00  0.00    -0.397 OA
ATOM     12  H1  UNL     1       0.382   6.765   7.799  1.00  0.00     0.209 HD
ENDBRANCH  10  11
ENDBRANCH   9  10
BRANCH   9  13
HETATM   13  O2  UNL     1       0.448   3.822   8.526  1.00  0.00    -0.375 OA
ATOM     14  H2  UNL     1       0.902   2.988   8.574  1.00  0.00     0.211 HD
ENDBRANCH   9  13
BRANCH   9  15
HETATM   15  C16 UNL     1       1.957   4.329  10.314  1.00  0.00     0.424 C 
HETATM   16  F2  UNL     1       2.017   3.925  11.613  1.00  0.00    -0.167 F 
HETATM   17  F3  UNL     1       2.658   5.517  10.127  1.00  0.00    -0.167 F 
HETATM   18  F4  UNL     1       2.622   3.395   9.539  1.00  0.00    -0.167 F 
ENDBRANCH   9  15
ENDBRANCH   1   9
BRANCH   5  19
HETATM   19  N2  UNL     1      -3.544   2.748  12.966  1.00  0.00    -0.423 NA
BRANCH  19  20
HETATM   20  C6  UNL     1      -4.552   2.336  13.724  1.00  0.00     0.170 C 
HETATM   21  C7  UNL     1      -4.360   0.914  14.250  1.00  0.00     0.044 C 
HETATM   22  C8  UNL     1      -4.036   1.016  15.716  1.00  0.00    -0.009 C 
HETATM   23  C9  UNL     1      -5.280   0.782  16.505  1.00  0.00     0.042 C 
HETATM   24  C13 UNL     1      -3.627   2.472  15.897  1.00  0.00     0.012 C 
HETATM   25  C10 UNL     1      -6.195   1.944  16.634  1.00  0.00     0.171 C 
HETATM   26  F1  UNL     1      -7.508   1.461  16.578  1.00  0.00    -0.249 F 
HETATM   27  C11 UNL     1      -6.068   2.957  15.527  1.00  0.00     0.045 C 
HETATM   28  C12 UNL     1      -4.675   3.129  15.036  1.00  0.00     0.024 C 
ENDBRANCH  19  20
ENDBRANCH   5  19
TORSDOF 7
ENDMDL
MODEL 4
REMARK VINA RESULT: -7.376749988      4.542      6.583
REMARK  7 active torsions:
REMARK  status: ('A' for Active; 'I' for Inactive)
REMARK    1  A    between atoms: O1_1  and  C1_3 
REMARK    2  A    between atoms: C1_3  and  C2_4 
REMARK    3  A    between atoms: C2_4  and  O2_5 
REMARK    4  A    between atoms: C2_4  and  C3_7 
REMARK    5  A    between atoms: C2_4  and  C16_25 
REMARK    6  A    between atoms: C5_11  and  N2_12 
REMARK    7  A    between atoms: N2_12  and  C6_13 
ROOT
HETATM    1  C3  UNL     1      -0.487   3.941  10.689  1.00  0.00     0.004 A 
HETATM    2  C4  UNL     1      -0.670   2.625  11.038  1.00  0.00     0.101 A 
HETATM    3  N1  UNL     1      -1.700   2.207  11.781  1.00  0.00    -0.340 N 
ATOM      4  H1  UNL     1      -1.771   1.213  12.000  1.00  0.00     0.167 HD
HETATM    5  C5  UNL     1      -2.669   3.058  12.263  1.00  0.00     0.194 A 
HETATM    6  C14 UNL     1      -2.508   4.413  11.919  1.00  0.00     0.092 A 
HETATM    7 CL1  UNL     1      -3.723   5.552  12.517  1.00  0.00    -0.079 Cl
HETATM    8  C15 UNL     1      -1.447   4.833  11.155  1.00  0.00     0.041 A 
ENDROOT
BRANCH   1   9
HETATM    9  C2  UNL     1       0.616   4.469   9.885  1.00  0.00     0.205 C 
BRANCH   9  10
HETATM   10  C1  UNL     1       1.894   3.709  10.304  1.00  0.00     0.216 C 
BRANCH  10  11
HETATM   11  O1  UNL     1       2.244   4.138  11.550  1.00  0.00    -0.397 OA
ATOM     12  H1  UNL     1       3.012   4.691  11.460  1.00  0.00     0.209 HD
ENDBRANCH  10  11
ENDBRANCH   9  10
BRANCH   9  13
HETATM   13  O2  UNL     1       0.775   5.834  10.148  1.00  0.00    -0.375 OA
ATOM     14  H2  UNL     1       0.328   6.342   9.481  1.00  0.00     0.211 HD
ENDBRANCH   9  13
BRANCH   9  15
HETATM   15  C16 UNL     1       0.510   4.225   8.395  1.00  0.00     0.424 C 
HETATM   16  F2  UNL     1      -0.540   3.451   8.005  1.00  0.00    -0.167 F 
HETATM   17  F3  UNL     1       1.716   3.699   7.939  1.00  0.00    -0.167 F 
HETATM   18  F4  UNL     1       0.398   5.455   7.772  1.00  0.00    -0.167 F 
ENDBRANCH   9  15
ENDBRANCH   1   9
BRANCH   5  19
HETATM   19  N2  UNL     1      -3.583   2.690  12.955  1.00  0.00    -0.423 NA
BRANCH  19  20
HETATM   20  C6  UNL     1      -4.589   2.302  13.730  1.00  0.00     0.170 C 
HETATM   21  C7  UNL     1      -4.406   0.888  14.281  1.00  0.00     0.044 C 
HETATM   22  C8  UNL     1      -4.068   1.014  15.742  1.00  0.00    -0.009 C 
HETATM   23  C9  UNL     1      -5.308   0.808  16.546  1.00  0.00     0.042 C 
HETATM   24  C13 UNL     1      -3.644   2.470  15.892  1.00  0.00     0.012 C 
HETATM   25  C10 UNL     1      -6.210   1.981  16.661  1.00  0.00     0.171 C 
HETATM   26  F1  UNL     1      -7.528   1.509  16.625  1.00  0.00    -0.249 F 
HETATM   27  C11 UNL     1      -6.084   2.971  15.534  1.00  0.00     0.045 C 
HETATM   28  C12 UNL     1      -4.693   3.120  15.028  1.00  0.00     0.024 C 
ENDBRANCH  19  20
ENDBRANCH   5  19
TORSDOF 7
ENDMDL
MODEL 5
REMARK VINA RESULT: -7.350742321      1.514      2.025
REMARK  7 active torsions:
REMARK  status: ('A' for Active; 'I' for Inactive)
REMARK    1  A    between atoms: O1_1  and  C1_3 
REMARK    2  A    between atoms: C1_3  and  C2_4 
REMARK    3  A    between atoms: C2_4  and  O2_5 
REMARK    4  A    between atoms: C2_4  and  C3_7 
REMARK    5  A    between atoms: C2_4  and  C16_25 
REMARK    6  A    between atoms: C5_11  and  N2_12 
REMARK    7  A    between atoms: N2_12  and  C6_13 
ROOT
HETATM    1  C3  UNL     1      -3.796   2.138  12.140  1.00  0.00     0.004 A 
HETATM    2  C4  UNL     1      -3.028   2.992  11.387  1.00  0.00     0.101 A 
HETATM    3  N1  UNL     1      -2.862   4.283  11.694  1.00  0.00    -0.340 N 
ATOM      4  H1  UNL     1      -2.275   4.856  11.088  1.00  0.00     0.167 HD
HETATM    5  C5  UNL     1      -3.447   4.872  12.793  1.00  0.00     0.194 A 
HETATM    6  C14 UNL     1      -4.238   4.020  13.584  1.00  0.00     0.092 A 
HETATM    7 CL1  UNL     1      -5.018   4.725  15.008  1.00  0.00    -0.079 Cl
HETATM    8  C15 UNL     1      -4.402   2.695  13.262  1.00  0.00     0.041 A 
ENDROOT
BRANCH   1   9
HETATM    9  C2  UNL     1      -4.025   0.719  11.862  1.00  0.00     0.205 C 
BRANCH   9  10
HETATM   10  C1  UNL     1      -5.128   0.636  10.783  1.00  0.00     0.216 C 
BRANCH  10  11
HETATM   11  O1  UNL     1      -5.932   1.728  10.926  1.00  0.00    -0.397 OA
ATOM     12  H1  UNL     1      -6.173   2.025  10.056  1.00  0.00     0.209 HD
ENDBRANCH  10  11
ENDBRANCH   9  10
BRANCH   9  13
HETATM   13  O2  UNL     1      -4.459   0.078  13.027  1.00  0.00    -0.375 OA
ATOM     14  H2  UNL     1      -5.406   0.118  13.079  1.00  0.00     0.211 HD
ENDBRANCH   9  13
BRANCH   9  15
HETATM   15  C16 UNL     1      -2.854  -0.021  11.253  1.00  0.00     0.424 C 
HETATM   16  F2  UNL     1      -1.624   0.470  11.570  1.00  0.00    -0.167 F 
HETATM   17  F3  UNL     1      -3.027  -0.081   9.874  1.00  0.00    -0.167 F 
HETATM   18  F4  UNL     1      -2.917  -1.336  11.679  1.00  0.00    -0.167 F 
ENDBRANCH   9  15
ENDBRANCH   1   9
BRANCH   5  19
HETATM   19  N2  UNL     1      -3.322   6.040  13.058  1.00  0.00    -0.423 NA
BRANCH  19  20
HETATM   20  C6  UNL     1      -3.206   7.330  13.346  1.00  0.00     0.170 C 
HETATM   21  C7  UNL     1      -2.831   7.584  14.806  1.00  0.00     0.044 C 
HETATM   22  C8  UNL     1      -1.392   8.025  14.832  1.00  0.00    -0.009 C 
HETATM   23  C9  UNL     1      -1.343   9.514  14.908  1.00  0.00     0.042 C 
HETATM   24  C13 UNL     1      -0.859   7.603  13.469  1.00  0.00     0.012 C 
HETATM   25  C10 UNL     1      -1.533  10.236  13.625  1.00  0.00     0.171 C 
HETATM   26  F1  UNL     1      -2.279  11.391  13.893  1.00  0.00    -0.249 F 
HETATM   27  C11 UNL     1      -2.306   9.464  12.589  1.00  0.00     0.045 C 
HETATM   28  C12 UNL     1      -2.032   8.002  12.612  1.00  0.00     0.024 C 
ENDBRANCH  19  20
ENDBRANCH   5  19
TORSDOF 7
ENDMDL
