MODEL 1
REMARK VINA RESULT: -7.345838951      0.000      0.000
REMARK  7 active torsions:
REMARK  status: ('A' for Active; 'I' for Inactive)
REMARK    1  A    between atoms: C11_12  and  C12_13 
REMARK    2  A    between atoms: C13_15  and  C14_16 
REMARK    3  A    between atoms: C14_16  and  C15_17 
REMARK    4  A    between atoms: C15_17  and  C16_18 
REMARK    5  A    between atoms: C16_18  and  O3_19 
REMARK    6  A    between atoms: C17_21  and  O4_22 
REMARK    7  A    between atoms: C18_24  and  O5_25 
ROOT
HETATM    1  C12 UNL     1      -3.559   3.491  12.179  1.00  0.00     0.158 C 
HETATM    2  O2  UNL     1      -4.875   3.112  12.475  1.00  0.00    -0.375 OA
HETATM    3  C13 UNL     1      -4.863   1.726  12.393  1.00  0.00     0.153 C 
HETATM    4  C17 UNL     1      -4.042   1.426  11.226  1.00  0.00     0.178 C 
HETATM    5  C18 UNL     1      -3.185   2.645  11.010  1.00  0.00     0.178 C 
ENDROOT
BRANCH   1   6
HETATM    6  C11 UNL     1      -3.438   4.980  11.915  1.00  0.00     0.026 C 
HETATM    7  C10 UNL     1      -3.989   5.662  13.178  1.00  0.00     0.009 C 
HETATM    8  C9  UNL     1      -5.297   6.315  12.698  1.00  0.00     0.013 C 
HETATM    9  C7  UNL     1      -4.859   6.786  11.359  1.00  0.00    -0.003 C 
HETATM   10  C5  UNL     1      -5.933   7.252  10.427  1.00  0.00     0.092 A 
HETATM   11  C8  UNL     1      -3.865   7.906  11.486  1.00  0.00     0.019 C 
HETATM   12  C19 UNL     1      -4.222   5.510  10.822  1.00  0.00     0.031 C 
HETATM   13  C4  UNL     1      -5.663   7.170   9.055  1.00  0.00     0.161 A 
HETATM   14  O1  UNL     1      -6.685   6.323   9.717  1.00  0.00    -0.368 OA
HETATM   15  C6  UNL     1      -6.647   8.497  10.943  1.00  0.00     0.049 C 
HETATM   16  C3  UNL     1      -4.514   6.380   8.508  1.00  0.00     0.069 C 
HETATM   17  C2  UNL     1      -3.571   5.926   9.575  1.00  0.00    -0.081 C 
HETATM   18  C1  UNL     1      -2.282   5.942   9.331  1.00  0.00     0.015 C 
ENDBRANCH   1   6
BRANCH   5  19
HETATM   19  O5  UNL     1      -1.833   2.354  10.944  1.00  0.00    -0.390 OA
ATOM     20  H5  UNL     1      -1.648   1.457  10.693  1.00  0.00     0.210 HD
ENDBRANCH   5  19
BRANCH   3  21
HETATM   21  C14 UNL     1      -4.493   1.132  13.696  1.00  0.00     0.036 C 
BRANCH  21  22
HETATM   22  C15 UNL     1      -5.152   1.699  14.904  1.00  0.00     0.029 C 
BRANCH  22  23
HETATM   23  C16 UNL     1      -4.139   1.982  15.996  1.00  0.00     0.164 C 
BRANCH  23  24
HETATM   24  O3  UNL     1      -3.443   0.825  16.351  1.00  0.00    -0.401 OA
ATOM     25  H3  UNL     1      -2.538   0.867  16.065  1.00  0.00     0.209 HD
ENDBRANCH  23  24
ENDBRANCH  22  23
ENDBRANCH  21  22
ENDBRANCH   3  21
BRANCH   4  26
HETATM   26  O4  UNL     1      -4.869   1.291  10.100  1.00  0.00    -0.390 OA
ATOM     27  H4  UNL     1      -5.099   2.153   9.774  1.00  0.00     0.210 HD
ENDBRANCH   4  26
TORSDOF 7
ENDMDL
MODEL 2
REMARK VINA RESULT: -7.313528837      2.980      6.169
REMARK  7 active torsions:
REMARK  status: ('A' for Active; 'I' for Inactive)
REMARK    1  A    between atoms: C11_12  and  C12_13 
REMARK    2  A    between atoms: C13_15  and  C14_16 
REMARK    3  A    between atoms: C14_16  and  C15_17 
REMARK    4  A    between atoms: C15_17  and  C16_18 
REMARK    5  A    between atoms: C16_18  and  O3_19 
REMARK    6  A    between atoms: C17_21  and  O4_22 
REMARK    7  A    between atoms: C18_24  and  O5_25 
ROOT
HETATM    1  C12 UNL     1      -2.785   4.798  12.842  1.00  0.00     0.158 C 
HETATM    2  O2  UNL     1      -2.953   5.907  12.001  1.00  0.00    -0.375 OA
HETATM    3  C13 UNL     1      -1.699   6.503  11.959  1.00  0.00     0.153 C 
HETATM    4  C17 UNL     1      -1.203   6.432  13.328  1.00  0.00     0.178 C 
HETATM    5  C18 UNL     1      -1.977   5.318  13.982  1.00  0.00     0.178 C 
ENDROOT
BRANCH   1   6
HETATM    6  C11 UNL     1      -4.110   4.193  13.263  1.00  0.00     0.026 C 
HETATM    7  C10 UNL     1      -4.679   5.157  14.318  1.00  0.00     0.009 C 
HETATM    8  C9  UNL     1      -4.606   4.349  15.625  1.00  0.00     0.013 C 
HETATM    9  C7  UNL     1      -4.994   3.011  15.110  1.00  0.00    -0.003 C 
HETATM   10  C5  UNL     1      -4.783   1.850  16.030  1.00  0.00     0.092 A 
HETATM   11  C8  UNL     1      -6.440   2.996  14.701  1.00  0.00     0.019 C 
HETATM   12  C19 UNL     1      -4.057   2.903  13.913  1.00  0.00     0.031 C 
HETATM   13  C4  UNL     1      -4.604   0.594  15.437  1.00  0.00     0.161 A 
HETATM   14  O1  UNL     1      -3.516   1.293  16.164  1.00  0.00    -0.368 OA
HETATM   15  C6  UNL     1      -5.656   1.934  17.278  1.00  0.00     0.049 C 
HETATM   16  C3  UNL     1      -4.318   0.428  13.976  1.00  0.00     0.069 C 
HETATM   17  C2  UNL     1      -4.505   1.697  13.209  1.00  0.00    -0.081 C 
HETATM   18  C1  UNL     1      -5.043   1.642  12.013  1.00  0.00     0.015 C 
ENDBRANCH   1   6
BRANCH   5  19
HETATM   19  O5  UNL     1      -1.164   4.364  14.569  1.00  0.00    -0.390 OA
ATOM     20  H5  UNL     1      -1.582   3.893  15.280  1.00  0.00     0.210 HD
ENDBRANCH   5  19
BRANCH   3  21
HETATM   21  C14 UNL     1      -0.883   5.916  10.874  1.00  0.00     0.036 C 
BRANCH  21  22
HETATM   22  C15 UNL     1       0.409   5.291  11.269  1.00  0.00     0.029 C 
BRANCH  22  23
HETATM   23  C16 UNL     1       0.389   3.795  11.020  1.00  0.00     0.164 C 
BRANCH  23  24
HETATM   24  O3  UNL     1       0.102   3.093  12.192  1.00  0.00    -0.401 OA
ATOM     25  H3  UNL     1      -0.754   2.684  12.146  1.00  0.00     0.209 HD
ENDBRANCH  23  24
ENDBRANCH  22  23
ENDBRANCH  21  22
ENDBRANCH   3  21
BRANCH   4  26
HETATM   26  O4  UNL     1      -1.529   7.619  14.001  1.00  0.00    -0.390 OA
ATOM     27  H4  UNL     1      -2.346   7.500  14.471  1.00  0.00     0.210 HD
ENDBRANCH   4  26
TORSDOF 7
ENDMDL
MODEL 3
REMARK VINA RESULT: -7.290681107      2.404      3.767
REMARK  7 active torsions:
REMARK  status: ('A' for Active; 'I' for Inactive)
REMARK    1  A    between atoms: C11_12  and  C12_13 
REMARK    2  A    between atoms: C13_15  and  C14_16 
REMARK    3  A    between atoms: C14_16  and  C15_17 
REMARK    4  A    between atoms: C15_17  and  C16_18 
REMARK    5  A    between atoms: C16_18  and  O3_19 
REMARK    6  A    between atoms: C17_21  and  O4_22 
REMARK    7  A    between atoms: C18_24  and  O5_25 
ROOT
HETATM    1  C12 UNL     1      -4.791   4.830  14.661  1.00  0.00     0.158 C 
HETATM    2  O2  UNL     1      -6.052   4.327  14.310  1.00  0.00    -0.375 OA
HETATM    3  C13 UNL     1      -6.117   3.088  14.934  1.00  0.00     0.153 C 
HETATM    4  C17 UNL     1      -4.793   2.506  14.753  1.00  0.00     0.178 C 
HETATM    5  C18 UNL     1      -3.871   3.669  14.494  1.00  0.00     0.178 C 
ENDROOT
BRANCH   1   6
HETATM    6  C11 UNL     1      -4.405   6.036  13.828  1.00  0.00     0.026 C 
HETATM    7  C10 UNL     1      -5.409   6.063  12.663  1.00  0.00     0.009 C 
HETATM    8  C9  UNL     1      -4.549   5.719  11.434  1.00  0.00     0.013 C 
HETATM    9  C7  UNL     1      -3.318   6.478  11.774  1.00  0.00    -0.003 C 
HETATM   10  C5  UNL     1      -2.103   6.191  10.950  1.00  0.00     0.092 A 
HETATM   11  C8  UNL     1      -3.566   7.958  11.699  1.00  0.00     0.019 C 
HETATM   12  C19 UNL     1      -3.100   6.004  13.206  1.00  0.00     0.031 C 
HETATM   13  C4  UNL     1      -0.859   6.430  11.547  1.00  0.00     0.161 A 
HETATM   14  O1  UNL     1      -1.334   5.064  11.219  1.00  0.00    -0.368 OA
HETATM   15  C6  UNL     1      -2.285   6.592   9.490  1.00  0.00     0.049 C 
HETATM   16  C3  UNL     1      -0.705   6.658  13.020  1.00  0.00     0.069 C 
HETATM   17  C2  UNL     1      -2.017   6.855  13.709  1.00  0.00    -0.081 C 
HETATM   18  C1  UNL     1      -2.100   7.747  14.668  1.00  0.00     0.015 C 
ENDBRANCH   1   6
BRANCH   5  19
HETATM   19  O5  UNL     1      -2.780   3.697  15.345  1.00  0.00    -0.390 OA
ATOM     20  H5  UNL     1      -2.916   3.223  16.156  1.00  0.00     0.210 HD
ENDBRANCH   5  19
BRANCH   3  21
HETATM   21  C14 UNL     1      -6.652   3.227  16.306  1.00  0.00     0.036 C 
BRANCH  21  22
HETATM   22  C15 UNL     1      -6.196   2.227  17.310  1.00  0.00     0.029 C 
BRANCH  22  23
HETATM   23  C16 UNL     1      -6.943   0.917  17.152  1.00  0.00     0.164 C 
BRANCH  23  24
HETATM   24  O3  UNL     1      -6.064  -0.167  17.139  1.00  0.00    -0.401 OA
ATOM     25  H3  UNL     1      -5.457  -0.108  16.412  1.00  0.00     0.209 HD
ENDBRANCH  23  24
ENDBRANCH  22  23
ENDBRANCH  21  22
ENDBRANCH   3  21
BRANCH   4  26
HETATM   26  O4  UNL     1      -4.792   1.707  13.599  1.00  0.00    -0.390 OA
ATOM     27  H4  UNL     1      -4.988   2.247  12.843  1.00  0.00     0.210 HD
ENDBRANCH   4  26
TORSDOF 7
ENDMDL
MODEL 4
REMARK VINA RESULT: -7.259619408      2.479      4.446
REMARK  7 active torsions:
REMARK  status: ('A' for Active; 'I' for Inactive)
REMARK    1  A    between atoms: C11_12  and  C12_13 
REMARK    2  A    between atoms: C13_15  and  C14_16 
REMARK    3  A    between atoms: C14_16  and  C15_17 
REMARK    4  A    between atoms: C15_17  and  C16_18 
REMARK    5  A    between atoms: C16_18  and  O3_19 
REMARK    6  A    between atoms: C17_21  and  O4_22 
REMARK    7  A    between atoms: C18_24  and  O5_25 
ROOT
HETATM    1  C12 UNL     1      -3.708   2.490  11.164  1.00  0.00     0.158 C 
HETATM    2  O2  UNL     1      -2.663   1.892  11.881  1.00  0.00    -0.375 OA
HETATM    3  C13 UNL     1      -3.102   0.596  12.118  1.00  0.00     0.153 C 
HETATM    4  C17 UNL     1      -4.512   0.734  12.458  1.00  0.00     0.178 C 
HETATM    5  C18 UNL     1      -4.942   2.055  11.879  1.00  0.00     0.178 C 
ENDROOT
BRANCH   1   6
HETATM    6  C11 UNL     1      -3.555   3.996  11.077  1.00  0.00     0.026 C 
HETATM    7  C10 UNL     1      -2.427   4.231  10.058  1.00  0.00     0.009 C 
HETATM    8  C9  UNL     1      -1.275   4.787  10.913  1.00  0.00     0.013 C 
HETATM    9  C7  UNL     1      -2.050   5.655  11.837  1.00  0.00    -0.003 C 
HETATM   10  C5  UNL     1      -1.321   6.187  13.030  1.00  0.00     0.092 A 
HETATM   11  C8  UNL     1      -2.624   6.835  11.104  1.00  0.00     0.019 C 
HETATM   12  C19 UNL     1      -3.130   4.675  12.281  1.00  0.00     0.031 C 
HETATM   13  C4  UNL     1      -2.092   6.511  14.153  1.00  0.00     0.161 A 
HETATM   14  O1  UNL     1      -1.135   5.378  14.145  1.00  0.00    -0.368 OA
HETATM   15  C6  UNL     1      -0.188   7.132  12.642  1.00  0.00     0.049 C 
HETATM   16  C3  UNL     1      -3.516   6.072  14.305  1.00  0.00     0.069 C 
HETATM   17  C2  UNL     1      -4.075   5.496  13.044  1.00  0.00    -0.081 C 
HETATM   18  C1  UNL     1      -5.318   5.767  12.720  1.00  0.00     0.015 C 
ENDBRANCH   1   6
BRANCH   5  19
HETATM   19  O5  UNL     1      -6.053   1.954  11.059  1.00  0.00    -0.390 OA
ATOM     20  H5  UNL     1      -6.472   2.787  10.880  1.00  0.00     0.210 HD
ENDBRANCH   5  19
BRANCH   3  21
HETATM   21  C14 UNL     1      -2.723  -0.292  10.997  1.00  0.00     0.036 C 
BRANCH  21  22
HETATM   22  C15 UNL     1      -3.387  -1.623  10.940  1.00  0.00     0.029 C 
BRANCH  22  23
HETATM   23  C16 UNL     1      -2.544  -2.682  11.624  1.00  0.00     0.164 C 
BRANCH  23  24
HETATM   24  O3  UNL     1      -2.985  -3.966  11.299  1.00  0.00    -0.401 OA
ATOM     25  H3  UNL     1      -2.280  -4.490  10.939  1.00  0.00     0.209 HD
ENDBRANCH  23  24
ENDBRANCH  22  23
ENDBRANCH  21  22
ENDBRANCH   3  21
BRANCH   4  26
HETATM   26  O4  UNL     1      -4.646   0.825  13.852  1.00  0.00    -0.390 OA
ATOM     27  H4  UNL     1      -5.212   1.556  14.066  1.00  0.00     0.210 HD
ENDBRANCH   4  26
TORSDOF 7
ENDMDL
MODEL 5
REMARK VINA RESULT: -7.250878199      2.427      4.103
REMARK  7 active torsions:
REMARK  status: ('A' for Active; 'I' for Inactive)
REMARK    1  A    between atoms: C11_12  and  C12_13 
REMARK    2  A    between atoms: C13_15  and  C14_16 
REMARK    3  A    between atoms: C14_16  and  C15_17 
REMARK    4  A    between atoms: C15_17  and  C16_18 
REMARK    5  A    between atoms: C16_18  and  O3_19 
REMARK    6  A    between atoms: C17_21  and  O4_22 
REMARK    7  A    between atoms: C18_24  and  O5_25 
ROOT
HETATM    1  C12 UNL     1      -3.328   2.696  11.705  1.00  0.00     0.158 C 
HETATM    2  O2  UNL     1      -3.993   1.834  10.823  1.00  0.00    -0.375 OA
HETATM    3  C13 UNL     1      -3.143   0.742  10.699  1.00  0.00     0.153 C 
HETATM    4  C17 UNL     1      -1.805   1.315  10.618  1.00  0.00     0.178 C 
HETATM    5  C18 UNL     1      -1.913   2.684  11.237  1.00  0.00     0.178 C 
ENDROOT
BRANCH   1   6
HETATM    6  C11 UNL     1      -3.948   4.080  11.729  1.00  0.00     0.026 C 
HETATM    7  C10 UNL     1      -3.560   4.721  10.386  1.00  0.00     0.009 C 
HETATM    8  C9  UNL     1      -2.577   5.835  10.786  1.00  0.00     0.013 C 
HETATM    9  C7  UNL     1      -3.242   6.317  12.024  1.00  0.00    -0.003 C 
HETATM   10  C5  UNL     1      -2.451   7.242  12.895  1.00  0.00     0.092 A 
HETATM   11  C8  UNL     1      -4.535   7.009  11.700  1.00  0.00     0.019 C 
HETATM   12  C19 UNL     1      -3.464   4.991  12.741  1.00  0.00     0.031 C 
HETATM   13  C4  UNL     1      -2.780   7.269  14.256  1.00  0.00     0.161 A 
HETATM   14  O1  UNL     1      -1.491   6.729  13.759  1.00  0.00    -0.368 OA
HETATM   15  C6  UNL     1      -2.148   8.568  12.205  1.00  0.00     0.049 C 
HETATM   16  C3  UNL     1      -3.644   6.226  14.896  1.00  0.00     0.069 C 
HETATM   17  C2  UNL     1      -4.305   5.336  13.892  1.00  0.00    -0.081 C 
HETATM   18  C1  UNL     1      -5.542   4.955  14.103  1.00  0.00     0.015 C 
ENDBRANCH   1   6
BRANCH   5  19
HETATM   19  O5  UNL     1      -0.991   2.898  12.247  1.00  0.00    -0.390 OA
ATOM     20  H5  UNL     1      -0.405   2.164  12.390  1.00  0.00     0.210 HD
ENDBRANCH   5  19
BRANCH   3  21
HETATM   21  C14 UNL     1      -3.427  -0.258  11.752  1.00  0.00     0.036 C 
BRANCH  21  22
HETATM   22  C15 UNL     1      -3.793  -1.627  11.297  1.00  0.00     0.029 C 
BRANCH  22  23
HETATM   23  C16 UNL     1      -2.620  -2.578  11.434  1.00  0.00     0.164 C 
BRANCH  23  24
HETATM   24  O3  UNL     1      -3.035  -3.908  11.335  1.00  0.00    -0.401 OA
ATOM     25  H3  UNL     1      -2.507  -4.386  10.706  1.00  0.00     0.209 HD
ENDBRANCH  23  24
ENDBRANCH  22  23
ENDBRANCH  21  22
ENDBRANCH   3  21
BRANCH   4  26
HETATM   26  O4  UNL     1      -1.458   1.492   9.270  1.00  0.00    -0.390 OA
ATOM     27  H4  UNL     1      -0.651   1.990   9.216  1.00  0.00     0.210 HD
ENDBRANCH   4  26
TORSDOF 7
ENDMDL
