MODEL 1
REMARK VINA RESULT: -6.401123097      0.000      0.000
REMARK  8 active torsions:
REMARK  status: ('A' for Active; 'I' for Inactive)
REMARK    1  A    between atoms: O1_2  and  C2_3 
REMARK    2  A    between atoms: C2_3  and  C3_4 
REMARK    3  A    between atoms: C3_4  and  O2_5 
REMARK    4  A    between atoms: C4_7  and  C5_8 
REMARK    5  A    between atoms: C5_8  and  O3_11 
REMARK    6  A    between atoms: C11_16  and  C13_18 
REMARK    7  A    between atoms: C13_18  and  C14_19 
REMARK    8  A    between atoms: C14_19  and  O4_20 
ROOT
HETATM    1  C3  UNL     1      -4.393   2.008  14.138  1.00  0.00     0.113 C 
HETATM    2  C4  UNL     1      -5.257   2.511  15.249  1.00  0.00    -0.013 C 
HETATM    3  C8  UNL     1      -5.296   3.865  15.177  1.00  0.00    -0.012 C 
HETATM    4  C9  UNL     1      -4.467   4.324  14.032  1.00  0.00     0.021 C 
HETATM    5  C10 UNL     1      -3.856   5.673  14.280  1.00  0.00     0.019 C 
HETATM    6  C11 UNL     1      -3.475   6.383  13.013  1.00  0.00    -0.038 C 
HETATM    7  C12 UNL     1      -4.599   6.608  12.071  1.00  0.00     0.015 C 
HETATM    8  C15 UNL     1      -2.368   5.598  12.347  1.00  0.00    -0.010 C 
HETATM    9  C16 UNL     1      -1.703   6.432  11.274  1.00  0.00     0.011 C 
HETATM   10  C17 UNL     1      -2.842   4.269  11.827  1.00  0.00     0.006 C 
HETATM   11  C18 UNL     1      -2.588   3.152  12.815  1.00  0.00     0.014 C 
HETATM   12  C19 UNL     1      -3.442   3.211  14.014  1.00  0.00     0.000 C 
HETATM   13  C20 UNL     1      -2.636   3.189  15.307  1.00  0.00     0.019 C 
ENDROOT
BRANCH   1  14
HETATM   14  C2  UNL     1      -5.128   1.750  12.879  1.00  0.00     0.210 C 
BRANCH  14  15
HETATM   15  O1  UNL     1      -4.826   0.494  12.304  1.00  0.00    -0.393 OA
HETATM   16  C1  UNL     1      -4.895   0.674  10.917  1.00  0.00     0.201 C 
ENDBRANCH  14  15
ENDBRANCH   1  14
BRANCH   1  17
HETATM   17  O2  UNL     1      -3.560   0.959  14.516  1.00  0.00    -0.382 OA
ATOM     18  H2  UNL     1      -2.818   1.237  15.039  1.00  0.00     0.211 HD
ENDBRANCH   1  17
BRANCH   2  19
HETATM   19  C5  UNL     1      -5.955   1.732  16.279  1.00  0.00     0.077 C 
HETATM   20  C6  UNL     1      -7.447   2.024  16.304  1.00  0.00     0.050 C 
HETATM   21  C7  UNL     1      -5.435   1.828  17.668  1.00  0.00     0.050 C 
BRANCH  19  22
HETATM   22  O3  UNL     1      -5.889   0.358  15.908  1.00  0.00    -0.386 OA
ATOM     23  H3  UNL     1      -6.769   0.071  15.695  1.00  0.00     0.211 HD
ENDBRANCH  19  22
ENDBRANCH   2  19
BRANCH   6  24
HETATM   24  C13 UNL     1      -2.885   7.729  13.376  1.00  0.00     0.035 C 
BRANCH  24  25
HETATM   25  C14 UNL     1      -2.611   7.895  14.832  1.00  0.00     0.165 C 
BRANCH  25  26
HETATM   26  O4  UNL     1      -1.281   8.367  14.933  1.00  0.00    -0.401 OA
ATOM     27  H4  UNL     1      -0.910   7.956  15.705  1.00  0.00     0.209 HD
ENDBRANCH  25  26
ENDBRANCH  24  25
ENDBRANCH   6  24
TORSDOF 8
ENDMDL
MODEL 2
REMARK VINA RESULT: -5.933928591      1.934      6.090
REMARK  8 active torsions:
REMARK  status: ('A' for Active; 'I' for Inactive)
REMARK    1  A    between atoms: O1_2  and  C2_3 
REMARK    2  A    between atoms: C2_3  and  C3_4 
REMARK    3  A    between atoms: C3_4  and  O2_5 
REMARK    4  A    between atoms: C4_7  and  C5_8 
REMARK    5  A    between atoms: C5_8  and  O3_11 
REMARK    6  A    between atoms: C11_16  and  C13_18 
REMARK    7  A    between atoms: C13_18  and  C14_19 
REMARK    8  A    between atoms: C14_19  and  O4_20 
ROOT
HETATM    1  C3  UNL     1      -2.018   5.727  12.448  1.00  0.00     0.113 C 
HETATM    2  C4  UNL     1      -2.298   6.688  13.559  1.00  0.00    -0.013 C 
HETATM    3  C8  UNL     1      -2.924   6.015  14.556  1.00  0.00    -0.012 C 
HETATM    4  C9  UNL     1      -3.093   4.592  14.161  1.00  0.00     0.021 C 
HETATM    5  C10 UNL     1      -4.325   3.980  14.765  1.00  0.00     0.019 C 
HETATM    6  C11 UNL     1      -4.257   2.482  14.836  1.00  0.00    -0.038 C 
HETATM    7  C12 UNL     1      -3.111   1.953  15.616  1.00  0.00     0.015 C 
HETATM    8  C15 UNL     1      -4.237   1.942  13.423  1.00  0.00    -0.010 C 
HETATM    9  C16 UNL     1      -4.527   0.457  13.422  1.00  0.00     0.011 C 
HETATM   10  C17 UNL     1      -2.960   2.277  12.702  1.00  0.00     0.006 C 
HETATM   11  C18 UNL     1      -3.095   3.532  11.867  1.00  0.00     0.014 C 
HETATM   12  C19 UNL     1      -3.201   4.767  12.663  1.00  0.00     0.000 C 
HETATM   13  C20 UNL     1      -4.428   5.594  12.295  1.00  0.00     0.019 C 
ENDROOT
BRANCH   1  14
HETATM   14  C2  UNL     1      -0.714   5.036  12.569  1.00  0.00     0.210 C 
BRANCH  14  15
HETATM   15  O1  UNL     1       0.125   5.229  11.448  1.00  0.00    -0.393 OA
HETATM   16  C1  UNL     1       0.537   3.953  11.046  1.00  0.00     0.201 C 
ENDBRANCH  14  15
ENDBRANCH   1  14
BRANCH   1  17
HETATM   17  O2  UNL     1      -2.244   6.262  11.183  1.00  0.00    -0.382 OA
ATOM     18  H2  UNL     1      -2.912   6.938  11.174  1.00  0.00     0.211 HD
ENDBRANCH   1  17
BRANCH   2  19
HETATM   19  C5  UNL     1      -1.990   8.122  13.615  1.00  0.00     0.077 C 
HETATM   20  C6  UNL     1      -0.515   8.401  13.370  1.00  0.00     0.050 C 
HETATM   21  C7  UNL     1      -2.410   8.857  14.838  1.00  0.00     0.050 C 
BRANCH  19  22
HETATM   22  O3  UNL     1      -2.637   8.753  12.513  1.00  0.00    -0.386 OA
ATOM     23  H3  UNL     1      -3.312   9.324  12.859  1.00  0.00     0.211 HD
ENDBRANCH  19  22
ENDBRANCH   2  19
BRANCH   6  24
HETATM   24  C13 UNL     1      -5.535   1.973  15.468  1.00  0.00     0.035 C 
BRANCH  24  25
HETATM   25  C14 UNL     1      -5.333   1.311  16.789  1.00  0.00     0.165 C 
BRANCH  25  26
HETATM   26  O4  UNL     1      -5.906   0.022  16.677  1.00  0.00    -0.401 OA
ATOM     27  H4  UNL     1      -6.812   0.109  16.948  1.00  0.00     0.209 HD
ENDBRANCH  25  26
ENDBRANCH  24  25
ENDBRANCH   6  24
TORSDOF 8
ENDMDL
MODEL 3
REMARK VINA RESULT: -5.920404925      1.633      2.168
REMARK  8 active torsions:
REMARK  status: ('A' for Active; 'I' for Inactive)
REMARK    1  A    between atoms: O1_2  and  C2_3 
REMARK    2  A    between atoms: C2_3  and  C3_4 
REMARK    3  A    between atoms: C3_4  and  O2_5 
REMARK    4  A    between atoms: C4_7  and  C5_8 
REMARK    5  A    between atoms: C5_8  and  O3_11 
REMARK    6  A    between atoms: C11_16  and  C13_18 
REMARK    7  A    between atoms: C13_18  and  C14_19 
REMARK    8  A    between atoms: C14_19  and  O4_20 
ROOT
HETATM    1  C3  UNL     1      -3.802   2.546  12.386  1.00  0.00     0.113 C 
HETATM    2  C4  UNL     1      -4.362   2.972  13.705  1.00  0.00    -0.013 C 
HETATM    3  C8  UNL     1      -4.632   4.299  13.644  1.00  0.00    -0.012 C 
HETATM    4  C9  UNL     1      -4.268   4.816  12.299  1.00  0.00     0.021 C 
HETATM    5  C10 UNL     1      -3.830   6.253  12.344  1.00  0.00     0.019 C 
HETATM    6  C11 UNL     1      -3.962   6.945  11.019  1.00  0.00    -0.038 C 
HETATM    7  C12 UNL     1      -5.338   6.953  10.463  1.00  0.00     0.015 C 
HETATM    8  C15 UNL     1      -2.997   6.301  10.051  1.00  0.00    -0.010 C 
HETATM    9  C16 UNL     1      -2.824   7.168   8.823  1.00  0.00     0.011 C 
HETATM   10  C17 UNL     1      -3.390   4.891   9.705  1.00  0.00     0.006 C 
HETATM   11  C18 UNL     1      -2.679   3.876  10.573  1.00  0.00     0.014 C 
HETATM   12  C19 UNL     1      -3.134   3.869  11.974  1.00  0.00     0.000 C 
HETATM   13  C20 UNL     1      -1.984   4.033  12.962  1.00  0.00     0.019 C 
ENDROOT
BRANCH   1  14
HETATM   14  C2  UNL     1      -4.831   2.118  11.410  1.00  0.00     0.210 C 
BRANCH  14  15
HETATM   15  O1  UNL     1      -5.304   0.806  11.640  1.00  0.00    -0.393 OA
HETATM   16  C1  UNL     1      -4.947   0.060  10.510  1.00  0.00     0.201 C 
ENDBRANCH  14  15
ENDBRANCH   1  14
BRANCH   1  17
HETATM   17  O2  UNL     1      -2.741   1.653  12.497  1.00  0.00    -0.382 OA
ATOM     18  H2  UNL     1      -2.400   1.580  13.381  1.00  0.00     0.211 HD
ENDBRANCH   1  17
BRANCH   2  19
HETATM   19  C5  UNL     1      -4.587   2.152  14.901  1.00  0.00     0.077 C 
HETATM   20  C6  UNL     1      -5.852   2.558  15.643  1.00  0.00     0.050 C 
HETATM   21  C7  UNL     1      -3.474   2.066  15.883  1.00  0.00     0.050 C 
BRANCH  19  22
HETATM   22  O3  UNL     1      -4.863   0.821  14.474  1.00  0.00    -0.386 OA
ATOM     23  H3  UNL     1      -4.034   0.366  14.380  1.00  0.00     0.211 HD
ENDBRANCH  19  22
ENDBRANCH   2  19
BRANCH   6  24
HETATM   24  C13 UNL     1      -3.510   8.381  11.181  1.00  0.00     0.035 C 
BRANCH  24  25
HETATM   25  C14 UNL     1      -2.456   8.569  12.219  1.00  0.00     0.165 C 
BRANCH  25  26
HETATM   26  O4  UNL     1      -1.347   9.146  11.557  1.00  0.00    -0.401 OA
ATOM     27  H4  UNL     1      -0.764   9.459  12.238  1.00  0.00     0.209 HD
ENDBRANCH  25  26
ENDBRANCH  24  25
ENDBRANCH   6  24
TORSDOF 8
ENDMDL
MODEL 4
REMARK VINA RESULT: -5.869415104      1.236      1.456
REMARK  8 active torsions:
REMARK  status: ('A' for Active; 'I' for Inactive)
REMARK    1  A    between atoms: O1_2  and  C2_3 
REMARK    2  A    between atoms: C2_3  and  C3_4 
REMARK    3  A    between atoms: C3_4  and  O2_5 
REMARK    4  A    between atoms: C4_7  and  C5_8 
REMARK    5  A    between atoms: C5_8  and  O3_11 
REMARK    6  A    between atoms: C11_16  and  C13_18 
REMARK    7  A    between atoms: C13_18  and  C14_19 
REMARK    8  A    between atoms: C14_19  and  O4_20 
ROOT
HETATM    1  C3  UNL     1      -3.709   3.077  13.297  1.00  0.00     0.113 C 
HETATM    2  C4  UNL     1      -4.587   3.440  14.451  1.00  0.00    -0.013 C 
HETATM    3  C8  UNL     1      -4.568   4.789  14.592  1.00  0.00    -0.012 C 
HETATM    4  C9  UNL     1      -3.685   5.382  13.555  1.00  0.00     0.021 C 
HETATM    5  C10 UNL     1      -3.027   6.647  14.027  1.00  0.00     0.019 C 
HETATM    6  C11 UNL     1      -2.576   7.528  12.898  1.00  0.00    -0.038 C 
HETATM    7  C12 UNL     1      -3.659   7.948  11.975  1.00  0.00     0.015 C 
HETATM    8  C15 UNL     1      -1.481   6.807  12.145  1.00  0.00    -0.010 C 
HETATM    9  C16 UNL     1      -0.749   7.767  11.233  1.00  0.00     0.011 C 
HETATM   10  C17 UNL     1      -1.993   5.599  11.411  1.00  0.00     0.006 C 
HETATM   11  C18 UNL     1      -1.817   4.330  12.217  1.00  0.00     0.014 C 
HETATM   12  C19 UNL     1      -2.706   4.241  13.388  1.00  0.00     0.000 C 
HETATM   13  C20 UNL     1      -1.944   3.980  14.682  1.00  0.00     0.019 C 
ENDROOT
BRANCH   1  14
HETATM   14  C2  UNL     1      -4.413   3.053  11.994  1.00  0.00     0.210 C 
BRANCH  14  15
HETATM   15  O1  UNL     1      -5.491   2.139  11.960  1.00  0.00    -0.393 OA
HETATM   16  C1  UNL     1      -5.146   1.166  11.014  1.00  0.00     0.201 C 
ENDBRANCH  14  15
ENDBRANCH   1  14
BRANCH   1  17
HETATM   17  O2  UNL     1      -2.933   1.945  13.526  1.00  0.00    -0.382 OA
ATOM     18  H2  UNL     1      -3.035   1.589  14.401  1.00  0.00     0.211 HD
ENDBRANCH   1  17
BRANCH   2  19
HETATM   19  C5  UNL     1      -5.349   2.543  15.327  1.00  0.00     0.077 C 
HETATM   20  C6  UNL     1      -6.685   3.143  15.738  1.00  0.00     0.050 C 
HETATM   21  C7  UNL     1      -4.663   2.045  16.549  1.00  0.00     0.050 C 
BRANCH  19  22
HETATM   22  O3  UNL     1      -5.718   1.396  14.566  1.00  0.00    -0.386 OA
ATOM     23  H3  UNL     1      -5.640   0.635  15.128  1.00  0.00     0.211 HD
ENDBRANCH  19  22
ENDBRANCH   2  19
BRANCH   6  24
HETATM   24  C13 UNL     1      -1.944   8.772  13.483  1.00  0.00     0.035 C 
BRANCH  24  25
HETATM   25  C14 UNL     1      -2.004   8.838  14.971  1.00  0.00     0.165 C 
BRANCH  25  26
HETATM   26  O4  UNL     1      -0.876   9.587  15.381  1.00  0.00    -0.401 OA
ATOM     27  H4  UNL     1      -0.475   9.099  16.090  1.00  0.00     0.209 HD
ENDBRANCH  25  26
ENDBRANCH  24  25
ENDBRANCH   6  24
TORSDOF 8
ENDMDL
MODEL 5
REMARK VINA RESULT: -5.865110258      2.586      6.307
REMARK  8 active torsions:
REMARK  status: ('A' for Active; 'I' for Inactive)
REMARK    1  A    between atoms: O1_2  and  C2_3 
REMARK    2  A    between atoms: C2_3  and  C3_4 
REMARK    3  A    between atoms: C3_4  and  O2_5 
REMARK    4  A    between atoms: C4_7  and  C5_8 
REMARK    5  A    between atoms: C5_8  and  O3_11 
REMARK    6  A    between atoms: C11_16  and  C13_18 
REMARK    7  A    between atoms: C13_18  and  C14_19 
REMARK    8  A    between atoms: C14_19  and  O4_20 
ROOT
HETATM    1  C3  UNL     1      -1.970   6.065  11.318  1.00  0.00     0.113 C 
HETATM    2  C4  UNL     1      -0.917   5.006  11.251  1.00  0.00    -0.013 C 
HETATM    3  C8  UNL     1      -1.339   3.941  11.978  1.00  0.00    -0.012 C 
HETATM    4  C9  UNL     1      -2.674   4.237  12.560  1.00  0.00     0.021 C 
HETATM    5  C10 UNL     1      -2.886   3.541  13.874  1.00  0.00     0.019 C 
HETATM    6  C11 UNL     1      -4.337   3.379  14.221  1.00  0.00    -0.038 C 
HETATM    7  C12 UNL     1      -5.129   2.620  13.222  1.00  0.00     0.015 C 
HETATM    8  C15 UNL     1      -4.928   4.754  14.438  1.00  0.00    -0.010 C 
HETATM    9  C16 UNL     1      -6.270   4.649  15.128  1.00  0.00     0.011 C 
HETATM   10  C17 UNL     1      -5.000   5.552  13.165  1.00  0.00     0.006 C 
HETATM   11  C18 UNL     1      -3.800   6.457  12.996  1.00  0.00     0.014 C 
HETATM   12  C19 UNL     1      -2.547   5.737  12.706  1.00  0.00     0.000 C 
HETATM   13  C20 UNL     1      -1.428   6.101  13.675  1.00  0.00     0.019 C 
ENDROOT
BRANCH   1  14
HETATM   14  C2  UNL     1      -2.993   5.959  10.253  1.00  0.00     0.210 C 
BRANCH  14  15
HETATM   15  O1  UNL     1      -2.521   6.366   8.984  1.00  0.00    -0.393 OA
HETATM   16  C1  UNL     1      -2.856   5.338   8.096  1.00  0.00     0.201 C 
ENDBRANCH  14  15
ENDBRANCH   1  14
BRANCH   1  17
HETATM   17  O2  UNL     1      -1.454   7.350  11.463  1.00  0.00    -0.382 OA
ATOM     18  H2  UNL     1      -2.115   8.029  11.406  1.00  0.00     0.211 HD
ENDBRANCH   1  17
BRANCH   2  19
HETATM   19  C5  UNL     1       0.374   5.053  10.555  1.00  0.00     0.077 C 
HETATM   20  C6  UNL     1       0.569   3.861   9.630  1.00  0.00     0.050 C 
HETATM   21  C7  UNL     1       1.592   5.199  11.395  1.00  0.00     0.050 C 
BRANCH  19  22
HETATM   22  O3  UNL     1       0.350   6.166   9.665  1.00  0.00    -0.386 OA
ATOM     23  H3  UNL     1       1.231   6.291   9.331  1.00  0.00     0.211 HD
ENDBRANCH  19  22
ENDBRANCH   2  19
BRANCH   6  24
HETATM   24  C13 UNL     1      -4.436   2.659  15.549  1.00  0.00     0.035 C 
BRANCH  24  25
HETATM   25  C14 UNL     1      -4.558   1.178  15.425  1.00  0.00     0.165 C 
BRANCH  25  26
HETATM   26  O4  UNL     1      -3.571   0.627  16.276  1.00  0.00    -0.401 OA
ATOM     27  H4  UNL     1      -3.586  -0.311  16.128  1.00  0.00     0.209 HD
ENDBRANCH  25  26
ENDBRANCH  24  25
ENDBRANCH   6  24
TORSDOF 8
ENDMDL
