MODEL 1
REMARK VINA RESULT: -7.317473538      0.000      0.000
REMARK  14 active torsions:
REMARK  status: ('A' for Active; 'I' for Inactive)
REMARK    1  A    between atoms: N1_1  and  C1_4 
REMARK    2  A    between atoms: C2_7  and  S1_8 
REMARK    3  A    between atoms: S1_8  and  C3_9 
REMARK    4  A    between atoms: C3_9  and  C4_10 
REMARK    5  A    between atoms: C4_10  and  N3_11 
REMARK    6  A    between atoms: C4_10  and  C5_15 
REMARK    7  A    between atoms: C5_15  and  N4_16 
REMARK    8  A    between atoms: N4_16  and  C6_18 
REMARK    9  A    between atoms: C6_18  and  O1_19 
REMARK   10  A    between atoms: C6_18  and  C7_21 
REMARK   11  A    between atoms: C6_18  and  C8_26 
REMARK   12  A    between atoms: C7_21  and  N5_22 
REMARK   13  A    between atoms: C8_26  and  S2_27 
REMARK   14  A    between atoms: S2_27  and  C9_28 
ROOT
HETATM    1  C5  UNL     1      -9.883  27.958 -23.874  1.00  0.00     0.150 C 
ENDROOT
BRANCH   1   2
HETATM    2  C4  UNL     1      -9.951  29.226 -24.705  1.00  0.00     0.210 C 
BRANCH   2   3
HETATM    3  C3  UNL     1     -11.214  29.362 -25.460  1.00  0.00     0.116 C 
BRANCH   3   4
HETATM    4  S1  UNL     1     -12.505  28.194 -25.154  1.00  0.00    -0.090 SA
BRANCH   4   5
HETATM    5  C2  UNL     1     -12.508  26.894 -26.378  1.00  0.00     0.174 A 
HETATM    6  N2  UNL     1     -11.831  26.776 -27.527  1.00  0.00    -0.168 N 
HETATM    7  C1  UNL     1     -12.186  25.623 -28.111  1.00  0.00     0.692 A 
ATOM      8  H2  UNL     1     -11.160  27.449 -27.896  1.00  0.00     0.186 HD
HETATM    9  N9  UNL     1     -13.096  24.989 -27.340  1.00  0.00    -0.130 N 
HETATM   10  N8  UNL     1     -13.284  25.762 -26.299  1.00  0.00    -0.265 N 
ATOM     11  H9  UNL     1     -13.545  24.093 -27.529  1.00  0.00     0.205 HD
ATOM     12  H8  UNL     1     -13.921  25.551 -25.531  1.00  0.00     0.189 HD
BRANCH   7  13
HETATM   13  N1  UNL     1     -11.738  25.156 -29.252  1.00  0.00    -0.233 N 
ATOM     14  H12 UNL     1     -11.264  25.723 -29.954  1.00  0.00     0.174 HD
ATOM     15  H11 UNL     1     -11.802  24.192 -29.580  1.00  0.00     0.174 HD
ENDBRANCH   7  13
ENDBRANCH   4   5
ENDBRANCH   3   4
ENDBRANCH   2   3
BRANCH   2  16
HETATM   16  N3  UNL     1      -8.741  29.430 -25.452  1.00  0.00    -0.073 N 
ATOM     17  H33 UNL     1      -7.935  29.174 -24.881  1.00  0.00     0.274 HD
ATOM     18  H32 UNL     1      -8.671  28.732 -26.193  1.00  0.00     0.274 HD
ATOM     19  H31 UNL     1      -8.605  30.362 -25.842  1.00  0.00     0.274 HD
ENDBRANCH   2  16
ENDBRANCH   1   2
BRANCH   1  20
HETATM   20  N4  UNL     1      -8.635  27.308 -23.993  1.00  0.00    -0.388 N 
ATOM     21  H4  UNL     1      -7.783  27.840 -24.173  1.00  0.00     0.156 HD
BRANCH  20  22
HETATM   22  C6  UNL     1      -8.594  25.897 -23.858  1.00  0.00     0.160 C 
BRANCH  22  23
HETATM   23  O1  UNL     1      -8.850  25.433 -22.590  1.00  0.00    -0.369 OA
ATOM     24  H1  UNL     1      -9.761  25.485 -22.324  1.00  0.00     0.212 HD
ENDBRANCH  22  23
BRANCH  22  25
HETATM   25  C7  UNL     1      -9.682  25.374 -24.834  1.00  0.00     0.290 C 
BRANCH  25  26
HETATM   26  N5  UNL     1     -10.698  24.734 -24.022  1.00  0.00    -0.075 N 
ATOM     27  H53 UNL     1     -10.498  23.754 -23.827  1.00  0.00     0.274 HD
ATOM     28  H52 UNL     1     -10.704  25.059 -23.056  1.00  0.00     0.274 HD
ATOM     29  H51 UNL     1     -11.588  24.877 -24.500  1.00  0.00     0.274 HD
ENDBRANCH  25  26
ENDBRANCH  22  25
BRANCH  22  30
HETATM   30  C8  UNL     1      -7.309  25.300 -24.366  1.00  0.00     0.144 C 
BRANCH  30  31
HETATM   31  S2  UNL     1      -5.826  26.092 -23.734  1.00  0.00    -0.086 SA
BRANCH  31  32
HETATM   32  C9  UNL     1      -5.120  27.273 -24.847  1.00  0.00     0.188 A 
HETATM   33  N6  UNL     1      -5.539  28.309 -25.609  1.00  0.00    -0.218 N 
HETATM   34  O2  UNL     1      -4.351  28.538 -26.058  1.00  0.00    -0.153 OA
ATOM     35  H6  UNL     1      -6.448  28.743 -25.768  1.00  0.00     0.199 HD
HETATM   36  N7  UNL     1      -3.905  27.536 -25.327  1.00  0.00    -0.218 N 
ATOM     37  H7  UNL     1      -2.984  27.122 -25.184  1.00  0.00     0.199 HD
ENDBRANCH  31  32
ENDBRANCH  30  31
ENDBRANCH  22  30
ENDBRANCH  20  22
ENDBRANCH   1  20
TORSDOF 14
ENDMDL
MODEL 2
REMARK VINA RESULT: -7.029748852      1.383      1.741
REMARK  14 active torsions:
REMARK  status: ('A' for Active; 'I' for Inactive)
REMARK    1  A    between atoms: N1_1  and  C1_4 
REMARK    2  A    between atoms: C2_7  and  S1_8 
REMARK    3  A    between atoms: S1_8  and  C3_9 
REMARK    4  A    between atoms: C3_9  and  C4_10 
REMARK    5  A    between atoms: C4_10  and  N3_11 
REMARK    6  A    between atoms: C4_10  and  C5_15 
REMARK    7  A    between atoms: C5_15  and  N4_16 
REMARK    8  A    between atoms: N4_16  and  C6_18 
REMARK    9  A    between atoms: C6_18  and  O1_19 
REMARK   10  A    between atoms: C6_18  and  C7_21 
REMARK   11  A    between atoms: C6_18  and  C8_26 
REMARK   12  A    between atoms: C7_21  and  N5_22 
REMARK   13  A    between atoms: C8_26  and  S2_27 
REMARK   14  A    between atoms: S2_27  and  C9_28 
ROOT
HETATM    1  C5  UNL     1     -10.215  28.266 -23.651  1.00  0.00     0.150 C 
ENDROOT
BRANCH   1   2
HETATM    2  C4  UNL     1     -11.635  28.485 -24.140  1.00  0.00     0.210 C 
BRANCH   2   3
HETATM    3  C3  UNL     1     -11.836  28.076 -25.546  1.00  0.00     0.116 C 
BRANCH   3   4
HETATM    4  S1  UNL     1     -13.106  26.899 -25.905  1.00  0.00    -0.090 SA
BRANCH   4   5
HETATM    5  C2  UNL     1     -12.599  25.771 -27.194  1.00  0.00     0.174 A 
HETATM    6  N2  UNL     1     -12.800  24.454 -27.329  1.00  0.00    -0.168 N 
HETATM    7  C1  UNL     1     -12.208  24.050 -28.462  1.00  0.00     0.692 A 
ATOM      8  H2  UNL     1     -13.316  23.860 -26.681  1.00  0.00     0.186 HD
HETATM    9  N9  UNL     1     -11.620  25.106 -29.064  1.00  0.00    -0.130 N 
HETATM   10  N8  UNL     1     -11.861  26.137 -28.293  1.00  0.00    -0.265 N 
ATOM     11  H9  UNL     1     -11.096  25.101 -29.939  1.00  0.00     0.205 HD
ATOM     12  H8  UNL     1     -11.542  27.087 -28.484  1.00  0.00     0.189 HD
BRANCH   7  13
HETATM   13  N1  UNL     1     -12.185  22.827 -28.937  1.00  0.00    -0.233 N 
ATOM     14  H12 UNL     1     -11.749  22.038 -28.460  1.00  0.00     0.174 HD
ATOM     15  H11 UNL     1     -12.589  22.512 -29.819  1.00  0.00     0.174 HD
ENDBRANCH   7  13
ENDBRANCH   4   5
ENDBRANCH   3   4
ENDBRANCH   2   3
BRANCH   2  16
HETATM   16  N3  UNL     1     -12.118  29.791 -23.785  1.00  0.00    -0.073 N 
ATOM     17  H33 UNL     1     -11.380  30.481 -23.922  1.00  0.00     0.274 HD
ATOM     18  H32 UNL     1     -12.798  30.107 -24.477  1.00  0.00     0.274 HD
ATOM     19  H31 UNL     1     -12.510  29.885 -22.848  1.00  0.00     0.274 HD
ENDBRANCH   2  16
ENDBRANCH   1   2
BRANCH   1  20
HETATM   20  N4  UNL     1     -10.020  26.962 -23.146  1.00  0.00    -0.388 N 
ATOM     21  H4  UNL     1     -10.626  26.588 -22.415  1.00  0.00     0.156 HD
BRANCH  20  22
HETATM   22  C6  UNL     1      -8.962  26.183 -23.678  1.00  0.00     0.160 C 
BRANCH  22  23
HETATM   23  O1  UNL     1      -8.334  25.367 -22.768  1.00  0.00    -0.369 OA
ATOM     24  H1  UNL     1      -7.518  24.985 -23.072  1.00  0.00     0.212 HD
ENDBRANCH  22  23
BRANCH  22  25
HETATM   25  C7  UNL     1      -9.626  25.317 -24.783  1.00  0.00     0.290 C 
BRANCH  25  26
HETATM   26  N5  UNL     1     -10.781  24.683 -24.179  1.00  0.00    -0.075 N 
ATOM     27  H53 UNL     1     -10.571  24.228 -23.291  1.00  0.00     0.274 HD
ATOM     28  H52 UNL     1     -11.466  25.350 -23.823  1.00  0.00     0.274 HD
ATOM     29  H51 UNL     1     -11.165  24.047 -24.878  1.00  0.00     0.274 HD
ENDBRANCH  25  26
ENDBRANCH  22  25
BRANCH  22  30
HETATM   30  C8  UNL     1      -7.938  27.011 -24.407  1.00  0.00     0.144 C 
BRANCH  30  31
HETATM   31  S2  UNL     1      -6.245  26.456 -24.184  1.00  0.00    -0.086 SA
BRANCH  31  32
HETATM   32  C9  UNL     1      -5.034  27.656 -24.658  1.00  0.00     0.188 A 
HETATM   33  N6  UNL     1      -3.833  27.679 -25.280  1.00  0.00    -0.218 N 
HETATM   34  O2  UNL     1      -3.725  28.960 -25.155  1.00  0.00    -0.153 OA
ATOM     35  H6  UNL     1      -3.240  26.959 -25.691  1.00  0.00     0.199 HD
HETATM   36  N7  UNL     1      -4.894  28.977 -24.547  1.00  0.00    -0.218 N 
ATOM     37  H7  UNL     1      -5.469  29.718 -24.146  1.00  0.00     0.199 HD
ENDBRANCH  31  32
ENDBRANCH  30  31
ENDBRANCH  22  30
ENDBRANCH  20  22
ENDBRANCH   1  20
TORSDOF 14
ENDMDL
MODEL 3
REMARK VINA RESULT: -6.665623887      1.435      1.639
REMARK  14 active torsions:
REMARK  status: ('A' for Active; 'I' for Inactive)
REMARK    1  A    between atoms: N1_1  and  C1_4 
REMARK    2  A    between atoms: C2_7  and  S1_8 
REMARK    3  A    between atoms: S1_8  and  C3_9 
REMARK    4  A    between atoms: C3_9  and  C4_10 
REMARK    5  A    between atoms: C4_10  and  N3_11 
REMARK    6  A    between atoms: C4_10  and  C5_15 
REMARK    7  A    between atoms: C5_15  and  N4_16 
REMARK    8  A    between atoms: N4_16  and  C6_18 
REMARK    9  A    between atoms: C6_18  and  O1_19 
REMARK   10  A    between atoms: C6_18  and  C7_21 
REMARK   11  A    between atoms: C6_18  and  C8_26 
REMARK   12  A    between atoms: C7_21  and  N5_22 
REMARK   13  A    between atoms: C8_26  and  S2_27 
REMARK   14  A    between atoms: S2_27  and  C9_28 
ROOT
HETATM    1  C5  UNL     1     -10.373  28.766 -23.712  1.00  0.00     0.150 C 
ENDROOT
BRANCH   1   2
HETATM    2  C4  UNL     1     -11.797  29.160 -24.061  1.00  0.00     0.210 C 
BRANCH   2   3
HETATM    3  C3  UNL     1     -12.759  28.047 -23.925  1.00  0.00     0.116 C 
BRANCH   3   4
HETATM    4  S1  UNL     1     -13.841  27.702 -25.280  1.00  0.00    -0.090 SA
BRANCH   4   5
HETATM    5  C2  UNL     1     -13.095  26.557 -26.431  1.00  0.00     0.174 A 
HETATM    6  N2  UNL     1     -13.371  25.272 -26.686  1.00  0.00    -0.168 N 
HETATM    7  C1  UNL     1     -12.521  24.836 -27.625  1.00  0.00     0.692 A 
ATOM      8  H2  UNL     1     -14.103  24.720 -26.241  1.00  0.00     0.186 HD
HETATM    9  N9  UNL     1     -11.689  25.839 -27.982  1.00  0.00    -0.130 N 
HETATM   10  N8  UNL     1     -12.043  26.871 -27.258  1.00  0.00    -0.265 N 
ATOM     11  H9  UNL     1     -10.941  25.800 -28.673  1.00  0.00     0.205 HD
ATOM     12  H8  UNL     1     -11.596  27.787 -27.301  1.00  0.00     0.189 HD
BRANCH   7  13
HETATM   13  N1  UNL     1     -12.477  23.628 -28.137  1.00  0.00    -0.233 N 
ATOM     14  H12 UNL     1     -13.289  23.137 -28.510  1.00  0.00     0.174 HD
ATOM     15  H11 UNL     1     -11.650  23.038 -28.229  1.00  0.00     0.174 HD
ENDBRANCH   7  13
ENDBRANCH   4   5
ENDBRANCH   3   4
ENDBRANCH   2   3
BRANCH   2  16
HETATM   16  N3  UNL     1     -11.851  29.900 -25.292  1.00  0.00    -0.073 N 
ATOM     17  H33 UNL     1     -11.159  29.533 -25.945  1.00  0.00     0.274 HD
ATOM     18  H32 UNL     1     -12.713  29.676 -25.790  1.00  0.00     0.274 HD
ATOM     19  H31 UNL     1     -11.751  30.911 -25.213  1.00  0.00     0.274 HD
ENDBRANCH   2  16
ENDBRANCH   1   2
BRANCH   1  20
HETATM   20  N4  UNL     1      -9.862  27.783 -24.589  1.00  0.00    -0.388 N 
ATOM     21  H4  UNL     1      -9.928  27.900 -25.600  1.00  0.00     0.156 HD
BRANCH  20  22
HETATM   22  C6  UNL     1      -9.255  26.631 -24.030  1.00  0.00     0.160 C 
BRANCH  22  23
HETATM   23  O1  UNL     1      -9.511  26.436 -22.694  1.00  0.00    -0.369 OA
ATOM     24  H1  UNL     1      -8.748  26.216 -22.171  1.00  0.00     0.212 HD
ENDBRANCH  22  23
BRANCH  22  25
HETATM   25  C7  UNL     1      -9.832  25.444 -24.849  1.00  0.00     0.290 C 
BRANCH  25  26
HETATM   26  N5  UNL     1     -10.894  24.863 -24.050  1.00  0.00    -0.075 N 
ATOM     27  H53 UNL     1     -10.857  25.140 -23.069  1.00  0.00     0.274 HD
ATOM     28  H52 UNL     1     -11.813  25.252 -24.259  1.00  0.00     0.274 HD
ATOM     29  H51 UNL     1     -10.845  23.854 -24.186  1.00  0.00     0.274 HD
ENDBRANCH  25  26
ENDBRANCH  22  25
BRANCH  22  30
HETATM   30  C8  UNL     1      -7.771  26.576 -24.275  1.00  0.00     0.144 C 
BRANCH  30  31
HETATM   31  S2  UNL     1      -7.037  28.152 -24.723  1.00  0.00    -0.086 SA
BRANCH  31  32
HETATM   32  C9  UNL     1      -5.287  28.078 -24.970  1.00  0.00     0.188 A 
HETATM   33  N6  UNL     1      -4.298  28.896 -25.397  1.00  0.00    -0.218 N 
HETATM   34  O2  UNL     1      -3.396  27.985 -25.246  1.00  0.00    -0.153 OA
ATOM     35  H6  UNL     1      -4.274  29.865 -25.717  1.00  0.00     0.199 HD
HETATM   36  N7  UNL     1      -4.332  27.160 -24.822  1.00  0.00    -0.218 N 
ATOM     37  H7  UNL     1      -4.327  26.191 -24.503  1.00  0.00     0.199 HD
ENDBRANCH  31  32
ENDBRANCH  30  31
ENDBRANCH  22  30
ENDBRANCH  20  22
ENDBRANCH   1  20
TORSDOF 14
ENDMDL
MODEL 4
REMARK VINA RESULT: -6.641815161      1.565      2.073
REMARK  14 active torsions:
REMARK  status: ('A' for Active; 'I' for Inactive)
REMARK    1  A    between atoms: N1_1  and  C1_4 
REMARK    2  A    between atoms: C2_7  and  S1_8 
REMARK    3  A    between atoms: S1_8  and  C3_9 
REMARK    4  A    between atoms: C3_9  and  C4_10 
REMARK    5  A    between atoms: C4_10  and  N3_11 
REMARK    6  A    between atoms: C4_10  and  C5_15 
REMARK    7  A    between atoms: C5_15  and  N4_16 
REMARK    8  A    between atoms: N4_16  and  C6_18 
REMARK    9  A    between atoms: C6_18  and  O1_19 
REMARK   10  A    between atoms: C6_18  and  C7_21 
REMARK   11  A    between atoms: C6_18  and  C8_26 
REMARK   12  A    between atoms: C7_21  and  N5_22 
REMARK   13  A    between atoms: C8_26  and  S2_27 
REMARK   14  A    between atoms: S2_27  and  C9_28 
ROOT
HETATM    1  C5  UNL     1     -10.706  25.349 -24.285  1.00  0.00     0.150 C 
ENDROOT
BRANCH   1   2
HETATM    2  C4  UNL     1     -11.636  26.416 -23.737  1.00  0.00     0.210 C 
BRANCH   2   3
HETATM    3  C3  UNL     1     -11.611  27.669 -24.519  1.00  0.00     0.116 C 
BRANCH   3   4
HETATM    4  S1  UNL     1     -12.727  27.833 -25.880  1.00  0.00    -0.090 SA
BRANCH   4   5
HETATM    5  C2  UNL     1     -12.546  26.480 -27.033  1.00  0.00     0.174 A 
HETATM    6  N2  UNL     1     -11.793  26.367 -28.134  1.00  0.00    -0.168 N 
HETATM    7  C1  UNL     1     -12.015  25.161 -28.676  1.00  0.00     0.692 A 
ATOM      8  H2  UNL     1     -11.159  27.077 -28.499  1.00  0.00     0.186 HD
HETATM    9  N9  UNL     1     -12.915  24.489 -27.926  1.00  0.00    -0.130 N 
HETATM   10  N8  UNL     1     -13.229  25.291 -26.940  1.00  0.00    -0.265 N 
ATOM     11  H9  UNL     1     -13.275  23.550 -28.094  1.00  0.00     0.205 HD
ATOM     12  H8  UNL     1     -13.893  25.063 -26.199  1.00  0.00     0.189 HD
BRANCH   7  13
HETATM   13  N1  UNL     1     -11.461  24.681 -29.764  1.00  0.00    -0.233 N 
ATOM     14  H12 UNL     1     -10.686  25.127 -30.255  1.00  0.00     0.174 HD
ATOM     15  H11 UNL     1     -11.722  23.823 -30.250  1.00  0.00     0.174 HD
ENDBRANCH   7  13
ENDBRANCH   4   5
ENDBRANCH   3   4
ENDBRANCH   2   3
BRANCH   2  16
HETATM   16  N3  UNL     1     -11.496  26.554 -22.313  1.00  0.00    -0.073 N 
ATOM     17  H33 UNL     1     -10.580  26.946 -22.094  1.00  0.00     0.274 HD
ATOM     18  H32 UNL     1     -12.102  27.303 -21.978  1.00  0.00     0.274 HD
ATOM     19  H31 UNL     1     -11.652  25.710 -21.762  1.00  0.00     0.274 HD
ENDBRANCH   2  16
ENDBRANCH   1   2
BRANCH   1  20
HETATM   20  N4  UNL     1      -9.490  25.893 -24.757  1.00  0.00    -0.388 N 
ATOM     21  H4  UNL     1      -9.407  26.235 -25.715  1.00  0.00     0.156 HD
BRANCH  20  22
HETATM   22  C6  UNL     1      -8.388  25.953 -23.868  1.00  0.00     0.160 C 
BRANCH  22  23
HETATM   23  O1  UNL     1      -8.597  25.350 -22.651  1.00  0.00    -0.369 OA
ATOM     24  H1  UNL     1      -8.086  25.711 -21.935  1.00  0.00     0.212 HD
ENDBRANCH  22  23
BRANCH  22  25
HETATM   25  C7  UNL     1      -7.236  25.230 -24.617  1.00  0.00     0.290 C 
BRANCH  25  26
HETATM   26  N5  UNL     1      -7.048  23.952 -23.959  1.00  0.00    -0.075 N 
ATOM     27  H53 UNL     1      -6.635  24.036 -23.030  1.00  0.00     0.274 HD
ATOM     28  H52 UNL     1      -7.923  23.515 -23.672  1.00  0.00     0.274 HD
ATOM     29  H51 UNL     1      -6.498  23.374 -24.593  1.00  0.00     0.274 HD
ENDBRANCH  25  26
ENDBRANCH  22  25
BRANCH  22  30
HETATM   30  C8  UNL     1      -7.884  27.356 -23.658  1.00  0.00     0.144 C 
BRANCH  30  31
HETATM   31  S2  UNL     1      -7.193  28.120 -25.129  1.00  0.00    -0.086 SA
BRANCH  31  32
HETATM   32  C9  UNL     1      -5.425  28.174 -25.140  1.00  0.00     0.188 A 
HETATM   33  N6  UNL     1      -4.449  29.040 -25.496  1.00  0.00    -0.218 N 
HETATM   34  O2  UNL     1      -3.513  28.217 -25.160  1.00  0.00    -0.153 OA
ATOM     35  H6  UNL     1      -4.452  29.984 -25.883  1.00  0.00     0.199 HD
HETATM   36  N7  UNL     1      -4.435  27.348 -24.800  1.00  0.00    -0.218 N 
ATOM     37  H7  UNL     1      -4.403  26.406 -24.411  1.00  0.00     0.199 HD
ENDBRANCH  31  32
ENDBRANCH  30  31
ENDBRANCH  22  30
ENDBRANCH  20  22
ENDBRANCH   1  20
TORSDOF 14
ENDMDL
MODEL 5
REMARK VINA RESULT: -6.612237210      1.541      2.439
REMARK  14 active torsions:
REMARK  status: ('A' for Active; 'I' for Inactive)
REMARK    1  A    between atoms: N1_1  and  C1_4 
REMARK    2  A    between atoms: C2_7  and  S1_8 
REMARK    3  A    between atoms: S1_8  and  C3_9 
REMARK    4  A    between atoms: C3_9  and  C4_10 
REMARK    5  A    between atoms: C4_10  and  N3_11 
REMARK    6  A    between atoms: C4_10  and  C5_15 
REMARK    7  A    between atoms: C5_15  and  N4_16 
REMARK    8  A    between atoms: N4_16  and  C6_18 
REMARK    9  A    between atoms: C6_18  and  O1_19 
REMARK   10  A    between atoms: C6_18  and  C7_21 
REMARK   11  A    between atoms: C6_18  and  C8_26 
REMARK   12  A    between atoms: C7_21  and  N5_22 
REMARK   13  A    between atoms: C8_26  and  S2_27 
REMARK   14  A    between atoms: S2_27  and  C9_28 
ROOT
HETATM    1  C5  UNL     1     -10.703  26.173 -22.515  1.00  0.00     0.150 C 
ENDROOT
BRANCH   1   2
HETATM    2  C4  UNL     1     -12.083  26.158 -23.145  1.00  0.00     0.210 C 
BRANCH   2   3
HETATM    3  C3  UNL     1     -12.611  27.510 -23.424  1.00  0.00     0.116 C 
BRANCH   3   4
HETATM    4  S1  UNL     1     -13.501  27.771 -24.929  1.00  0.00    -0.090 SA
BRANCH   4   5
HETATM    5  C2  UNL     1     -12.945  26.660 -26.212  1.00  0.00     0.174 A 
HETATM    6  N2  UNL     1     -13.334  25.416 -26.519  1.00  0.00    -0.168 N 
HETATM    7  C1  UNL     1     -12.605  24.989 -27.558  1.00  0.00     0.692 A 
ATOM      8  H2  UNL     1     -14.062  24.884 -26.042  1.00  0.00     0.186 HD
HETATM    9  N9  UNL     1     -11.739  25.956 -27.929  1.00  0.00    -0.130 N 
HETATM   10  N8  UNL     1     -11.951  26.958 -27.113  1.00  0.00    -0.265 N 
ATOM     11  H9  UNL     1     -11.059  25.915 -28.688  1.00  0.00     0.205 HD
ATOM     12  H8  UNL     1     -11.444  27.843 -27.141  1.00  0.00     0.189 HD
BRANCH   7  13
HETATM   13  N1  UNL     1     -12.695  23.819 -28.146  1.00  0.00    -0.233 N 
ATOM     14  H12 UNL     1     -12.958  23.689 -29.122  1.00  0.00     0.174 HD
ATOM     15  H11 UNL     1     -12.517  22.910 -27.717  1.00  0.00     0.174 HD
ENDBRANCH   7  13
ENDBRANCH   4   5
ENDBRANCH   3   4
ENDBRANCH   2   3
BRANCH   2  16
HETATM   16  N3  UNL     1     -12.968  25.262 -22.452  1.00  0.00    -0.073 N 
ATOM     17  H33 UNL     1     -13.899  25.308 -22.867  1.00  0.00     0.274 HD
ATOM     18  H32 UNL     1     -12.718  24.296 -22.666  1.00  0.00     0.274 HD
ATOM     19  H31 UNL     1     -13.033  25.387 -21.442  1.00  0.00     0.274 HD
ENDBRANCH   2  16
ENDBRANCH   1   2
BRANCH   1  20
HETATM   20  N4  UNL     1      -9.797  25.328 -23.194  1.00  0.00    -0.388 N 
ATOM     21  H4  UNL     1      -9.659  24.362 -22.895  1.00  0.00     0.156 HD
BRANCH  20  22
HETATM   22  C6  UNL     1      -9.084  25.853 -24.301  1.00  0.00     0.160 C 
BRANCH  22  23
HETATM   23  O1  UNL     1      -9.751  25.783 -25.500  1.00  0.00    -0.369 OA
ATOM     24  H1  UNL     1      -9.856  24.904 -25.846  1.00  0.00     0.212 HD
ENDBRANCH  22  23
BRANCH  22  25
HETATM   25  C7  UNL     1      -8.825  27.340 -23.935  1.00  0.00     0.290 C 
BRANCH  25  26
HETATM   26  N5  UNL     1      -9.349  28.136 -25.027  1.00  0.00    -0.075 N 
ATOM     27  H53 UNL     1      -8.703  28.217 -25.812  1.00  0.00     0.274 HD
ATOM     28  H52 UNL     1     -10.107  27.677 -25.532  1.00  0.00     0.274 HD
ATOM     29  H51 UNL     1      -9.618  29.037 -24.631  1.00  0.00     0.274 HD
ENDBRANCH  25  26
ENDBRANCH  22  25
BRANCH  22  30
HETATM   30  C8  UNL     1      -7.712  25.253 -24.448  1.00  0.00     0.144 C 
BRANCH  30  31
HETATM   31  S2  UNL     1      -6.405  26.193 -23.650  1.00  0.00    -0.086 SA
BRANCH  31  32
HETATM   32  C9  UNL     1      -5.481  27.212 -24.762  1.00  0.00     0.188 A 
HETATM   33  N6  UNL     1      -5.697  28.286 -25.555  1.00  0.00    -0.218 N 
HETATM   34  O2  UNL     1      -4.476  28.301 -25.972  1.00  0.00    -0.153 OA
ATOM     35  H6  UNL     1      -6.515  28.865 -25.748  1.00  0.00     0.199 HD
HETATM   36  N7  UNL     1      -4.226  27.256 -25.210  1.00  0.00    -0.218 N 
ATOM     37  H7  UNL     1      -3.393  26.695 -25.032  1.00  0.00     0.199 HD
ENDBRANCH  31  32
ENDBRANCH  30  31
ENDBRANCH  22  30
ENDBRANCH  20  22
ENDBRANCH   1  20
TORSDOF 14
ENDMDL
