MODEL 1
REMARK VINA RESULT: -8.356756678      0.000      0.000
REMARK  4 active torsions:
REMARK  status: ('A' for Active; 'I' for Inactive)
REMARK    1  A    between atoms: O1_2  and  N1_3 
REMARK    2  A    between atoms: N1_3  and  C2_5 
REMARK    3  A    between atoms: N2_6  and  O2_7 
REMARK    4  A    between atoms: C4_11  and  C5_12 
ROOT
HETATM    1  C2  UNL     1      27.777  24.430 106.067  1.00  0.00     0.734 A 
HETATM    2  N2  UNL     1      28.095  24.273 107.373  1.00  0.00    -0.038 N 
HETATM    3  C3  UNL     1      27.155  24.443 108.300  1.00  0.00     0.164 A 
HETATM    4 CL1  UNL     1      27.632  24.226 109.988  1.00  0.00    -0.060 Cl
HETATM    5  C4  UNL     1      25.833  24.783 107.976  1.00  0.00     0.083 A 
HETATM    6  C9  UNL     1      25.546  24.935 106.653  1.00  0.00     0.273 A 
HETATM    7  O3  UNL     1      24.376  25.245 106.265  1.00  0.00    -0.267 OA
HETATM    8  N4  UNL     1      26.532  24.751 105.747  1.00  0.00    -0.147 N 
HETATM    9  C10 UNL     1      26.165  24.911 104.348  1.00  0.00     0.179 C 
ENDROOT
BRANCH   5  10
HETATM   10  C5  UNL     1      24.886  24.914 109.057  1.00  0.00     0.227 C 
HETATM   11  C6  UNL     1      24.639  26.231 109.673  1.00  0.00     0.040 C 
HETATM   12  C7  UNL     1      23.461  25.850 110.614  1.00  0.00     0.030 C 
HETATM   13  C8  UNL     1      22.836  24.639 109.945  1.00  0.00     0.233 C 
HETATM   14  N3  UNL     1      23.526  24.527 108.674  1.00  0.00    -0.067 N 
ATOM     15  H32 UNL     1      23.119  25.060 107.906  1.00  0.00     0.277 HD
ATOM     16  H31 UNL     1      23.442  23.623 108.209  1.00  0.00     0.277 HD
ENDBRANCH   5  10
BRANCH   2  17
HETATM   17  O2  UNL     1      29.399  23.938 107.733  1.00  0.00    -0.268 OA
ATOM     18  H2  UNL     1      29.572  23.110 108.166  1.00  0.00     0.246 HD
ENDBRANCH   2  17
BRANCH   1  19
HETATM   19  N1  UNL     1      28.715  24.255 105.174  1.00  0.00    -0.094 N 
ATOM     20  H1  UNL     1      29.267  25.043 104.835  1.00  0.00     0.213 HD
BRANCH  19  21
HETATM   21  O1  UNL     1      28.935  23.011 104.711  1.00  0.00    -0.271 OA
HETATM   22  C1  UNL     1      28.752  22.547 103.391  1.00  0.00     0.238 C 
ENDBRANCH  19  21
ENDBRANCH   1  19
TORSDOF 4
ENDMDL
MODEL 2
REMARK VINA RESULT: -7.847305291      1.105      1.242
REMARK  4 active torsions:
REMARK  status: ('A' for Active; 'I' for Inactive)
REMARK    1  A    between atoms: O1_2  and  N1_3 
REMARK    2  A    between atoms: N1_3  and  C2_5 
REMARK    3  A    between atoms: N2_6  and  O2_7 
REMARK    4  A    between atoms: C4_11  and  C5_12 
ROOT
HETATM    1  C2  UNL     1      27.404  24.675 105.829  1.00  0.00     0.734 A 
HETATM    2  N2  UNL     1      27.832  24.581 107.110  1.00  0.00    -0.038 N 
HETATM    3  C3  UNL     1      26.949  24.664 108.102  1.00  0.00     0.164 A 
HETATM    4 CL1  UNL     1      27.568  24.537 109.752  1.00  0.00    -0.060 Cl
HETATM    5  C4  UNL     1      25.576  24.847 107.873  1.00  0.00     0.083 A 
HETATM    6  C9  UNL     1      25.179  24.938 106.573  1.00  0.00     0.273 A 
HETATM    7  O3  UNL     1      23.957  25.107 106.270  1.00  0.00    -0.267 OA
HETATM    8  N4  UNL     1      26.111  24.847 105.599  1.00  0.00    -0.147 N 
HETATM    9  C10 UNL     1      25.628  24.935 104.230  1.00  0.00     0.179 C 
ENDROOT
BRANCH   5  10
HETATM   10  C5  UNL     1      24.702  24.893 109.020  1.00  0.00     0.227 C 
HETATM   11  C6  UNL     1      24.496  26.160 109.747  1.00  0.00     0.040 C 
HETATM   12  C7  UNL     1      23.382  25.706 110.731  1.00  0.00     0.030 C 
HETATM   13  C8  UNL     1      22.713  24.544 110.016  1.00  0.00     0.233 C 
HETATM   14  N3  UNL     1      23.319  24.530 108.698  1.00  0.00    -0.067 N 
ATOM     15  H32 UNL     1      22.864  25.117 108.000  1.00  0.00     0.277 HD
ATOM     16  H31 UNL     1      23.205  23.663 108.174  1.00  0.00     0.277 HD
ENDBRANCH   5  10
BRANCH   2  17
HETATM   17  O2  UNL     1      29.189  24.402 107.376  1.00  0.00    -0.268 OA
ATOM     18  H2  UNL     1      29.657  23.678 106.977  1.00  0.00     0.246 HD
ENDBRANCH   2  17
BRANCH   1  19
HETATM   19  N1  UNL     1      28.289  24.587 104.871  1.00  0.00    -0.094 N 
ATOM     20  H1  UNL     1      28.390  23.728 104.331  1.00  0.00     0.213 HD
BRANCH  19  21
HETATM   21  O1  UNL     1      29.063  25.657 104.613  1.00  0.00    -0.271 OA
HETATM   22  C1  UNL     1      28.732  26.780 103.826  1.00  0.00     0.238 C 
ENDBRANCH  19  21
ENDBRANCH   1  19
TORSDOF 4
ENDMDL
MODEL 3
REMARK VINA RESULT: -7.530118758      2.540      6.374
REMARK  4 active torsions:
REMARK  status: ('A' for Active; 'I' for Inactive)
REMARK    1  A    between atoms: O1_2  and  N1_3 
REMARK    2  A    between atoms: N1_3  and  C2_5 
REMARK    3  A    between atoms: N2_6  and  O2_7 
REMARK    4  A    between atoms: C4_11  and  C5_12 
ROOT
HETATM    1  C2  UNL     1      26.147  24.075 106.643  1.00  0.00     0.734 A 
HETATM    2  N2  UNL     1      25.507  24.537 105.543  1.00  0.00    -0.038 N 
HETATM    3  C3  UNL     1      26.165  24.615 104.389  1.00  0.00     0.164 A 
HETATM    4 CL1  UNL     1      25.277  25.228 102.989  1.00  0.00    -0.060 Cl
HETATM    5  C4  UNL     1      27.511  24.236 104.263  1.00  0.00     0.083 A 
HETATM    6  C9  UNL     1      28.126  23.777 105.389  1.00  0.00     0.273 A 
HETATM    7  O3  UNL     1      29.343  23.415 105.371  1.00  0.00    -0.267 OA
HETATM    8  N4  UNL     1      27.417  23.713 106.538  1.00  0.00    -0.147 N 
HETATM    9  C10 UNL     1      28.120  23.201 107.704  1.00  0.00     0.179 C 
ENDROOT
BRANCH   5  10
HETATM   10  C5  UNL     1      28.119  24.334 102.958  1.00  0.00     0.227 C 
HETATM   11  C6  UNL     1      28.802  25.575 102.548  1.00  0.00     0.040 C 
HETATM   12  C7  UNL     1      29.400  25.097 101.196  1.00  0.00     0.030 C 
HETATM   13  C8  UNL     1      29.522  23.592 101.361  1.00  0.00     0.233 C 
HETATM   14  N3  UNL     1      29.185  23.350 102.751  1.00  0.00    -0.067 N 
ATOM     15  H32 UNL     1      29.964  23.404 103.406  1.00  0.00     0.277 HD
ATOM     16  H31 UNL     1      28.942  22.386 102.981  1.00  0.00     0.277 HD
ENDBRANCH   5  10
BRANCH   2  17
HETATM   17  O2  UNL     1      24.171  24.925 105.630  1.00  0.00    -0.268 OA
ATOM     18  H2  UNL     1      23.620  24.900 104.856  1.00  0.00     0.246 HD
ENDBRANCH   2  17
BRANCH   1  19
HETATM   19  N1  UNL     1      25.480  24.003 107.765  1.00  0.00    -0.094 N 
ATOM     20  H1  UNL     1      25.214  23.099 108.156  1.00  0.00     0.213 HD
BRANCH  19  21
HETATM   21  O1  UNL     1      25.153  25.148 108.391  1.00  0.00    -0.271 OA
HETATM   22  C1  UNL     1      25.530  25.547 109.690  1.00  0.00     0.238 C 
ENDBRANCH  19  21
ENDBRANCH   1  19
TORSDOF 4
ENDMDL
MODEL 4
REMARK VINA RESULT: -7.433573678      1.979      5.493
REMARK  4 active torsions:
REMARK  status: ('A' for Active; 'I' for Inactive)
REMARK    1  A    between atoms: O1_2  and  N1_3 
REMARK    2  A    between atoms: N1_3  and  C2_5 
REMARK    3  A    between atoms: N2_6  and  O2_7 
REMARK    4  A    between atoms: C4_11  and  C5_12 
ROOT
HETATM    1  C2  UNL     1      25.921  24.523 108.121  1.00  0.00     0.734 A 
HETATM    2  N2  UNL     1      27.254  24.289 108.092  1.00  0.00    -0.038 N 
HETATM    3  C3  UNL     1      27.868  24.152 106.919  1.00  0.00     0.164 A 
HETATM    4 CL1  UNL     1      29.609  23.847 106.945  1.00  0.00    -0.060 Cl
HETATM    5  C4  UNL     1      27.183  24.239 105.697  1.00  0.00     0.083 A 
HETATM    6  C9  UNL     1      25.843  24.474 105.761  1.00  0.00     0.273 A 
HETATM    7  O3  UNL     1      25.141  24.565 104.707  1.00  0.00    -0.267 OA
HETATM    8  N4  UNL     1      25.262  24.608 106.974  1.00  0.00    -0.147 N 
HETATM    9  C10 UNL     1      23.832  24.872 106.982  1.00  0.00     0.179 C 
ENDROOT
BRANCH   5  10
HETATM   10  C5  UNL     1      27.951  24.104 104.483  1.00  0.00     0.227 C 
HETATM   11  C6  UNL     1      27.880  22.862 103.692  1.00  0.00     0.040 C 
HETATM   12  C7  UNL     1      28.717  23.301 102.459  1.00  0.00     0.030 C 
HETATM   13  C8  UNL     1      28.573  24.813 102.438  1.00  0.00     0.233 C 
HETATM   14  N3  UNL     1      27.593  25.100 103.468  1.00  0.00    -0.067 N 
ATOM     15  H32 UNL     1      26.620  25.083 103.164  1.00  0.00     0.277 HD
ATOM     16  H31 UNL     1      27.569  26.066 103.792  1.00  0.00     0.277 HD
ENDBRANCH   5  10
BRANCH   2  17
HETATM   17  O2  UNL     1      27.967  24.194 109.285  1.00  0.00    -0.268 OA
ATOM     18  H2  UNL     1      28.910  24.077 109.265  1.00  0.00     0.246 HD
ENDBRANCH   2  17
BRANCH   1  19
HETATM   19  N1  UNL     1      25.339  24.658 109.283  1.00  0.00    -0.094 N 
ATOM     20  H1  UNL     1      24.778  23.903 109.677  1.00  0.00     0.213 HD
BRANCH  19  21
HETATM   21  O1  UNL     1      25.497  25.817 109.948  1.00  0.00    -0.271 OA
HETATM   22  C1  UNL     1      24.676  26.331 110.973  1.00  0.00     0.238 C 
ENDBRANCH  19  21
ENDBRANCH   1  19
TORSDOF 4
ENDMDL
MODEL 5
REMARK VINA RESULT: -7.410371377      1.529      1.861
REMARK  4 active torsions:
REMARK  status: ('A' for Active; 'I' for Inactive)
REMARK    1  A    between atoms: O1_2  and  N1_3 
REMARK    2  A    between atoms: N1_3  and  C2_5 
REMARK    3  A    between atoms: N2_6  and  O2_7 
REMARK    4  A    between atoms: C4_11  and  C5_12 
ROOT
HETATM    1  C2  UNL     1      27.908  24.652 104.207  1.00  0.00     0.734 A 
HETATM    2  N2  UNL     1      28.224  23.949 105.320  1.00  0.00    -0.038 N 
HETATM    3  C3  UNL     1      27.414  23.996 106.375  1.00  0.00     0.164 A 
HETATM    4 CL1  UNL     1      27.881  23.059 107.799  1.00  0.00    -0.060 Cl
HETATM    5  C4  UNL     1      26.232  24.754 106.382  1.00  0.00     0.083 A 
HETATM    6  C9  UNL     1      25.944  25.450 105.248  1.00  0.00     0.273 A 
HETATM    7  O3  UNL     1      24.898  26.165 105.164  1.00  0.00    -0.267 OA
HETATM    8  N4  UNL     1      26.795  25.371 104.201  1.00  0.00    -0.147 N 
HETATM    9  C10 UNL     1      26.429  26.123 103.010  1.00  0.00     0.179 C 
ENDROOT
BRANCH   5  10
HETATM   10  C5  UNL     1      25.412  24.710 107.569  1.00  0.00     0.227 C 
HETATM   11  C6  UNL     1      25.490  25.793 108.567  1.00  0.00     0.040 C 
HETATM   12  C7  UNL     1      24.327  25.357 109.501  1.00  0.00     0.030 C 
HETATM   13  C8  UNL     1      23.416  24.546 108.597  1.00  0.00     0.233 C 
HETATM   14  N3  UNL     1      23.977  24.712 107.270  1.00  0.00    -0.067 N 
ATOM     15  H32 UNL     1      23.640  25.521 106.749  1.00  0.00     0.277 HD
ATOM     16  H31 UNL     1      23.673  24.028 106.577  1.00  0.00     0.277 HD
ENDBRANCH   5  10
BRANCH   2  17
HETATM   17  O2  UNL     1      29.391  23.187 105.350  1.00  0.00    -0.268 OA
ATOM     18  H2  UNL     1      30.188  23.557 105.712  1.00  0.00     0.246 HD
ENDBRANCH   2  17
BRANCH   1  19
HETATM   19  N1  UNL     1      28.716  24.588 103.182  1.00  0.00    -0.094 N 
ATOM     20  H1  UNL     1      29.118  25.436 102.781  1.00  0.00     0.213 HD
BRANCH  19  21
HETATM   21  O1  UNL     1      29.004  23.379 102.667  1.00  0.00    -0.271 OA
HETATM   22  C1  UNL     1      29.889  23.093 101.607  1.00  0.00     0.238 C 
ENDBRANCH  19  21
ENDBRANCH   1  19
TORSDOF 4
ENDMDL
