MODEL 1
REMARK VINA RESULT: -5.315760150      0.000      0.000
REMARK  6 active torsions:
REMARK  status: ('A' for Active; 'I' for Inactive)
REMARK    1  A    between atoms: C2_2  and  C3_3 
REMARK    2  A    between atoms: C3_3  and  C4_4 
REMARK    3  A    between atoms: C4_4  and  N1_5 
REMARK    4  A    between atoms: N1_5  and  C5_8 
REMARK    5  A    between atoms: C5_8  and  C6_9 
REMARK    6  A    between atoms: C7_10  and  C8_11 
ROOT
HETATM    1  N1  UNL     1     -10.129  -8.096 -17.774  1.00  0.00    -0.072 N 
ATOM      2  H11 UNL     1     -10.672  -8.313 -16.938  1.00  0.00     0.277 HD
ATOM      3  H12 UNL     1     -10.626  -7.260 -18.079  1.00  0.00     0.277 HD
ENDROOT
BRANCH   1   4
HETATM    4  C4  UNL     1     -10.236  -9.142 -18.745  1.00  0.00     0.236 C 
BRANCH   4   5
HETATM    5  C3  UNL     1     -11.709  -9.535 -18.893  1.00  0.00     0.054 C 
BRANCH   5   6
HETATM    6  C2  UNL     1     -11.830 -10.726 -19.741  1.00  0.00    -0.035 C 
HETATM    7  C1  UNL     1     -12.953 -11.470 -19.646  1.00  0.00     0.007 C 
ENDBRANCH   5   6
ENDBRANCH   4   5
ENDBRANCH   1   4
BRANCH   1   8
HETATM    8  C5  UNL     1      -8.747  -7.790 -17.435  1.00  0.00     0.259 C 
BRANCH   8   9
HETATM    9  C6  UNL     1      -8.105  -7.150 -18.580  1.00  0.00    -0.003 C 
HETATM   10  C7  UNL     1      -7.081  -6.376 -18.538  1.00  0.00    -0.025 C 
BRANCH  10  11
HETATM   11  C8  UNL     1      -6.363  -5.994 -17.314  1.00  0.00    -0.001 C 
HETATM   12  C9  UNL     1      -5.173  -6.926 -17.128  1.00  0.00     0.013 C 
HETATM   13  C10 UNL     1      -5.878  -4.550 -17.412  1.00  0.00     0.013 C 
ENDBRANCH  10  11
ENDBRANCH   8   9
ENDBRANCH   1   8
TORSDOF 6
ENDMDL
MODEL 2
REMARK VINA RESULT: -5.048555079      1.039      1.975
REMARK  6 active torsions:
REMARK  status: ('A' for Active; 'I' for Inactive)
REMARK    1  A    between atoms: C2_2  and  C3_3 
REMARK    2  A    between atoms: C3_3  and  C4_4 
REMARK    3  A    between atoms: C4_4  and  N1_5 
REMARK    4  A    between atoms: N1_5  and  C5_8 
REMARK    5  A    between atoms: C5_8  and  C6_9 
REMARK    6  A    between atoms: C7_10  and  C8_11 
ROOT
HETATM    1  N1  UNL     1     -10.391  -9.179 -18.714  1.00  0.00    -0.072 N 
ATOM      2  H11 UNL     1      -9.841  -9.208 -19.572  1.00  0.00     0.277 HD
ATOM      3  H12 UNL     1      -9.893  -9.888 -18.176  1.00  0.00     0.277 HD
ENDROOT
BRANCH   1   4
HETATM    4  C4  UNL     1     -11.746  -9.573 -18.955  1.00  0.00     0.236 C 
BRANCH   4   5
HETATM    5  C3  UNL     1     -11.751 -10.801 -19.870  1.00  0.00     0.054 C 
BRANCH   5   6
HETATM    6  C2  UNL     1     -12.977 -11.579 -19.662  1.00  0.00    -0.035 C 
HETATM    7  C1  UNL     1     -13.101 -12.764 -20.297  1.00  0.00     0.007 C 
ENDBRANCH   5   6
ENDBRANCH   4   5
ENDBRANCH   1   4
BRANCH   1   8
HETATM    8  C5  UNL     1     -10.296  -7.874 -18.075  1.00  0.00     0.259 C 
BRANCH   8   9
HETATM    9  C6  UNL     1      -9.277  -7.925 -17.031  1.00  0.00    -0.003 C 
HETATM   10  C7  UNL     1      -8.112  -7.388 -17.085  1.00  0.00    -0.025 C 
BRANCH  10  11
HETATM   11  C8  UNL     1      -7.592  -6.614 -18.220  1.00  0.00    -0.001 C 
HETATM   12  C9  UNL     1      -6.576  -5.603 -17.704  1.00  0.00     0.013 C 
HETATM   13  C10 UNL     1      -6.929  -7.540 -19.236  1.00  0.00     0.013 C 
ENDBRANCH  10  11
ENDBRANCH   8   9
ENDBRANCH   1   8
TORSDOF 6
ENDMDL
MODEL 3
REMARK VINA RESULT: -4.948637744      1.050      1.593
REMARK  6 active torsions:
REMARK  status: ('A' for Active; 'I' for Inactive)
REMARK    1  A    between atoms: C2_2  and  C3_3 
REMARK    2  A    between atoms: C3_3  and  C4_4 
REMARK    3  A    between atoms: C4_4  and  N1_5 
REMARK    4  A    between atoms: N1_5  and  C5_8 
REMARK    5  A    between atoms: C5_8  and  C6_9 
REMARK    6  A    between atoms: C7_10  and  C8_11 
ROOT
HETATM    1  N1  UNL     1      -8.252  -8.965 -18.523  1.00  0.00    -0.072 N 
ATOM      2  H11 UNL     1      -7.952  -9.754 -19.095  1.00  0.00     0.277 HD
ATOM      3  H12 UNL     1      -7.931  -9.292 -17.612  1.00  0.00     0.277 HD
ENDROOT
BRANCH   1   4
HETATM    4  C4  UNL     1      -9.677  -8.825 -18.547  1.00  0.00     0.236 C 
BRANCH   4   5
HETATM    5  C3  UNL     1     -10.278  -9.981 -19.350  1.00  0.00     0.054 C 
BRANCH   5   6
HETATM    6  C2  UNL     1     -11.742  -9.950 -19.261  1.00  0.00    -0.035 C 
HETATM    7  C1  UNL     1     -12.430 -11.063 -19.592  1.00  0.00     0.007 C 
ENDBRANCH   5   6
ENDBRANCH   4   5
ENDBRANCH   1   4
BRANCH   1   8
HETATM    8  C5  UNL     1      -7.565  -7.743 -18.915  1.00  0.00     0.259 C 
BRANCH   8   9
HETATM    9  C6  UNL     1      -7.940  -6.670 -17.998  1.00  0.00    -0.003 C 
HETATM   10  C7  UNL     1      -7.132  -5.874 -17.396  1.00  0.00    -0.025 C 
BRANCH  10  11
HETATM   11  C8  UNL     1      -5.669  -5.901 -17.526  1.00  0.00    -0.001 C 
HETATM   12  C9  UNL     1      -5.141  -4.473 -17.459  1.00  0.00     0.013 C 
HETATM   13  C10 UNL     1      -5.051  -6.733 -16.405  1.00  0.00     0.013 C 
ENDBRANCH  10  11
ENDBRANCH   8   9
ENDBRANCH   1   8
TORSDOF 6
ENDMDL
MODEL 4
REMARK VINA RESULT: -4.861847506      2.870      3.955
REMARK  6 active torsions:
REMARK  status: ('A' for Active; 'I' for Inactive)
REMARK    1  A    between atoms: C2_2  and  C3_3 
REMARK    2  A    between atoms: C3_3  and  C4_4 
REMARK    3  A    between atoms: C4_4  and  N1_5 
REMARK    4  A    between atoms: N1_5  and  C5_8 
REMARK    5  A    between atoms: C5_8  and  C6_9 
REMARK    6  A    between atoms: C7_10  and  C8_11 
ROOT
HETATM    1  N1  UNL     1      -6.060  -7.355 -18.031  1.00  0.00    -0.072 N 
ATOM      2  H11 UNL     1      -5.307  -7.505 -18.702  1.00  0.00     0.277 HD
ATOM      3  H12 UNL     1      -6.110  -8.291 -17.630  1.00  0.00     0.277 HD
ENDROOT
BRANCH   1   4
HETATM    4  C4  UNL     1      -7.282  -7.013 -18.694  1.00  0.00     0.236 C 
BRANCH   4   5
HETATM    5  C3  UNL     1      -8.289  -8.150 -18.500  1.00  0.00     0.054 C 
BRANCH   5   6
HETATM    6  C2  UNL     1      -9.108  -7.901 -17.309  1.00  0.00    -0.035 C 
HETATM    7  C1  UNL     1      -9.522  -6.638 -17.067  1.00  0.00     0.007 C 
ENDBRANCH   5   6
ENDBRANCH   4   5
ENDBRANCH   1   4
BRANCH   1   8
HETATM    8  C5  UNL     1      -5.678  -6.373 -17.026  1.00  0.00     0.259 C 
BRANCH   8   9
HETATM    9  C6  UNL     1      -6.131  -5.052 -17.452  1.00  0.00    -0.003 C 
HETATM   10  C7  UNL     1      -5.464  -3.959 -17.360  1.00  0.00    -0.025 C 
BRANCH  10  11
HETATM   11  C8  UNL     1      -4.109  -3.842 -16.805  1.00  0.00    -0.001 C 
HETATM   12  C9  UNL     1      -3.101  -3.888 -17.947  1.00  0.00     0.013 C 
HETATM   13  C10 UNL     1      -3.960  -2.530 -16.038  1.00  0.00     0.013 C 
ENDBRANCH  10  11
ENDBRANCH   8   9
ENDBRANCH   1   8
TORSDOF 6
ENDMDL
MODEL 5
REMARK VINA RESULT: -4.763925563      3.029      7.443
REMARK  6 active torsions:
REMARK  status: ('A' for Active; 'I' for Inactive)
REMARK    1  A    between atoms: C2_2  and  C3_3 
REMARK    2  A    between atoms: C3_3  and  C4_4 
REMARK    3  A    between atoms: C4_4  and  N1_5 
REMARK    4  A    between atoms: N1_5  and  C5_8 
REMARK    5  A    between atoms: C5_8  and  C6_9 
REMARK    6  A    between atoms: C7_10  and  C8_11 
ROOT
HETATM    1  N1  UNL     1      -4.792  -5.176 -16.837  1.00  0.00    -0.072 N 
ATOM      2  H11 UNL     1      -4.578  -5.058 -15.847  1.00  0.00     0.277 HD
ATOM      3  H12 UNL     1      -3.856  -5.384 -17.183  1.00  0.00     0.277 HD
ENDROOT
BRANCH   1   4
HETATM    4  C4  UNL     1      -5.294  -3.962 -17.406  1.00  0.00     0.236 C 
BRANCH   4   5
HETATM    5  C3  UNL     1      -4.705  -2.774 -16.640  1.00  0.00     0.054 C 
BRANCH   5   6
HETATM    6  C2  UNL     1      -3.478  -3.180 -15.946  1.00  0.00    -0.035 C 
HETATM    7  C1  UNL     1      -2.438  -2.320 -15.924  1.00  0.00     0.007 C 
ENDBRANCH   5   6
ENDBRANCH   4   5
ENDBRANCH   1   4
BRANCH   1   8
HETATM    8  C5  UNL     1      -5.691  -6.302 -17.047  1.00  0.00     0.259 C 
BRANCH   8   9
HETATM    9  C6  UNL     1      -6.596  -5.992 -18.150  1.00  0.00    -0.003 C 
HETATM   10  C7  UNL     1      -7.685  -6.611 -18.431  1.00  0.00    -0.025 C 
BRANCH  10  11
HETATM   11  C8  UNL     1      -8.223  -7.755 -17.680  1.00  0.00    -0.001 C 
HETATM   12  C9  UNL     1      -9.582  -7.374 -17.106  1.00  0.00     0.013 C 
HETATM   13  C10 UNL     1      -8.370  -8.968 -18.594  1.00  0.00     0.013 C 
ENDBRANCH  10  11
ENDBRANCH   8   9
ENDBRANCH   1   8
TORSDOF 6
ENDMDL
