MODEL 1
REMARK VINA RESULT: -8.722148676      0.000      0.000
REMARK  13 active torsions:
REMARK  status: ('A' for Active; 'I' for Inactive)
REMARK    1  A    between atoms: O1_2  and  C2_3 
REMARK    2  A    between atoms: C2_3  and  C3_4 
REMARK    3  A    between atoms: C3_4  and  C4_5 
REMARK    4  A    between atoms: C4_5  and  O2_6 
REMARK    5  A    between atoms: O2_6  and  C5_7 
REMARK    6  A    between atoms: C8_10  and  C9_11 
REMARK    7  A    between atoms: C10_12  and  C11_13 
REMARK    8  A    between atoms: C16_20  and  C17_21 
REMARK    9  A    between atoms: C17_21  and  C18_22 
REMARK       I    between atoms: C18_22  and  N2_24 
REMARK   10  A    between atoms: N2_24  and  C19_26 
REMARK   11  A    between atoms: C19_26  and  C20_27 
REMARK   12  A    between atoms: C20_27  and  N3_28 
REMARK   13  A    between atoms: C27_40  and  O4_41 
ROOT
HETATM    1  C11 UNL     1     -14.952 -20.663 -16.557  1.00  0.00     0.064 A 
HETATM    2  C12 UNL     1     -15.046 -21.426 -17.699  1.00  0.00     0.056 A 
HETATM    3  C13 UNL     1     -14.030 -22.252 -18.087  1.00  0.00     0.061 A 
HETATM    4  N1  UNL     1     -14.111 -23.004 -19.204  1.00  0.00    -0.358 N 
ATOM      5  H1  UNL     1     -14.961 -22.944 -19.764  1.00  0.00     0.166 HD
HETATM    6  C14 UNL     1     -13.128 -23.832 -19.621  1.00  0.00     0.012 A 
HETATM    7  C15 UNL     1     -13.302 -24.627 -20.859  1.00  0.00     0.068 C 
HETATM    8  C16 UNL     1     -11.960 -23.953 -18.903  1.00  0.00    -0.025 A 
HETATM    9  C23 UNL     1     -11.862 -23.178 -17.742  1.00  0.00     0.041 A 
HETATM   10  C24 UNL     1     -12.875 -22.337 -17.332  1.00  0.00     0.061 A 
HETATM   11  N4  UNL     1     -12.807 -21.589 -16.230  1.00  0.00    -0.340 N 
ATOM     12  H4  UNL     1     -11.959 -21.645 -15.665  1.00  0.00     0.167 HD
HETATM   13  C25 UNL     1     -13.798 -20.756 -15.812  1.00  0.00     0.118 A 
HETATM   14  N5  UNL     1     -13.664 -20.060 -14.735  1.00  0.00    -0.384 N 
ATOM     15  H51 UNL     1     -12.809 -20.129 -14.183  1.00  0.00     0.157 HD
ATOM     16  H52 UNL     1     -14.407 -19.436 -14.422  1.00  0.00     0.157 HD
ENDROOT
BRANCH   1  17
HETATM   17  C10 UNL     1     -16.042 -19.786 -16.148  1.00  0.00    -0.058 C 
HETATM   18  C9  UNL     1     -16.958 -19.074 -15.817  1.00  0.00    -0.061 C 
BRANCH  18  19
HETATM   19  C8  UNL     1     -18.056 -18.238 -15.444  1.00  0.00     0.021 A 
HETATM   20  C7  UNL     1     -18.198 -17.736 -14.165  1.00  0.00     0.023 A 
HETATM   21  C6  UNL     1     -19.255 -16.930 -13.803  1.00  0.00     0.041 A 
HETATM   22  C5  UNL     1     -20.224 -16.591 -14.720  1.00  0.00     0.102 A 
HETATM   23  C27 UNL     1     -20.103 -17.081 -16.001  1.00  0.00     0.102 A 
HETATM   24  C26 UNL     1     -19.039 -17.886 -16.344  1.00  0.00     0.060 A 
BRANCH  22  25
HETATM   25  O2  UNL     1     -21.305 -15.776 -14.379  1.00  0.00    -0.348 OA
BRANCH  25  26
HETATM   26  C4  UNL     1     -21.180 -14.428 -14.061  1.00  0.00     0.178 C 
BRANCH  26  27
HETATM   27  C3  UNL     1     -22.437 -13.642 -14.360  1.00  0.00     0.053 C 
BRANCH  27  28
HETATM   28  C2  UNL     1     -23.215 -14.307 -15.454  1.00  0.00     0.169 C 
BRANCH  28  29
HETATM   29  O1  UNL     1     -24.579 -14.197 -15.298  1.00  0.00    -0.396 OA
HETATM   30  C1  UNL     1     -24.991 -12.922 -15.620  1.00  0.00     0.201 C 
ENDBRANCH  28  29
ENDBRANCH  27  28
ENDBRANCH  26  27
ENDBRANCH  25  26
ENDBRANCH  22  25
BRANCH  23  31
HETATM   31  O4  UNL     1     -21.078 -16.744 -16.929  1.00  0.00    -0.353 OA
HETATM   32  C28 UNL     1     -20.912 -15.774 -17.933  1.00  0.00     0.210 C 
ENDBRANCH  23  31
ENDBRANCH  18  19
ENDBRANCH   1  17
BRANCH   8  33
HETATM   33  C17 UNL     1     -10.833 -24.831 -19.292  1.00  0.00     0.143 C 
BRANCH  33  34
HETATM   34  C18 UNL     1     -10.659 -25.987 -18.372  1.00  0.00     0.222 C 
HETATM   35  O3  UNL     1     -11.617 -26.561 -17.817  1.00  0.00    -0.273 OA
HETATM   36  N2  UNL     1      -9.333 -26.446 -18.127  1.00  0.00    -0.356 N 
ATOM     37  H2  UNL     1      -8.534 -25.992 -18.570  1.00  0.00     0.162 HD
BRANCH  36  38
HETATM   38  C19 UNL     1      -9.148 -27.550 -17.252  1.00  0.00     0.166 C 
BRANCH  38  39
HETATM   39  C20 UNL     1      -8.746 -27.185 -15.874  1.00  0.00     0.076 C 
BRANCH  39  40
HETATM   40  N3  UNL     1      -9.719 -27.456 -14.896  1.00  0.00    -0.400 N 
HETATM   41  C21 UNL     1     -10.597 -26.480 -14.450  1.00  0.00     0.148 C 
HETATM   42  C22 UNL     1     -10.174 -28.809 -14.954  1.00  0.00     0.148 C 
ENDBRANCH  39  40
ENDBRANCH  38  39
ENDBRANCH  36  38
ENDBRANCH  33  34
ENDBRANCH   8  33
TORSDOF 13
ENDMDL
MODEL 2
REMARK VINA RESULT: -8.662471491      1.562      2.321
REMARK  13 active torsions:
REMARK  status: ('A' for Active; 'I' for Inactive)
REMARK    1  A    between atoms: O1_2  and  C2_3 
REMARK    2  A    between atoms: C2_3  and  C3_4 
REMARK    3  A    between atoms: C3_4  and  C4_5 
REMARK    4  A    between atoms: C4_5  and  O2_6 
REMARK    5  A    between atoms: O2_6  and  C5_7 
REMARK    6  A    between atoms: C8_10  and  C9_11 
REMARK    7  A    between atoms: C10_12  and  C11_13 
REMARK    8  A    between atoms: C16_20  and  C17_21 
REMARK    9  A    between atoms: C17_21  and  C18_22 
REMARK       I    between atoms: C18_22  and  N2_24 
REMARK   10  A    between atoms: N2_24  and  C19_26 
REMARK   11  A    between atoms: C19_26  and  C20_27 
REMARK   12  A    between atoms: C20_27  and  N3_28 
REMARK   13  A    between atoms: C27_40  and  O4_41 
ROOT
HETATM    1  C11 UNL     1     -15.281 -20.744 -17.953  1.00  0.00     0.064 A 
HETATM    2  C12 UNL     1     -15.048 -21.656 -18.957  1.00  0.00     0.056 A 
HETATM    3  C13 UNL     1     -13.951 -22.470 -18.936  1.00  0.00     0.061 A 
HETATM    4  N1  UNL     1     -13.713 -23.368 -19.913  1.00  0.00    -0.358 N 
ATOM      5  H1  UNL     1     -14.379 -23.431 -20.684  1.00  0.00     0.166 HD
HETATM    6  C14 UNL     1     -12.641 -24.190 -19.929  1.00  0.00     0.012 A 
HETATM    7  C15 UNL     1     -12.458 -25.152 -21.041  1.00  0.00     0.068 C 
HETATM    8  C16 UNL     1     -11.711 -24.151 -18.915  1.00  0.00    -0.025 A 
HETATM    9  C23 UNL     1     -11.945 -23.223 -17.893  1.00  0.00     0.041 A 
HETATM   10  C24 UNL     1     -13.045 -22.391 -17.895  1.00  0.00     0.061 A 
HETATM   11  N4  UNL     1     -13.292 -21.500 -16.934  1.00  0.00    -0.340 N 
ATOM     12  H4  UNL     1     -12.629 -21.433 -16.161  1.00  0.00     0.167 HD
HETATM   13  C25 UNL     1     -14.372 -20.674 -16.921  1.00  0.00     0.118 A 
HETATM   14  N5  UNL     1     -14.549 -19.833 -15.958  1.00  0.00    -0.384 N 
ATOM     15  H51 UNL     1     -13.876 -19.781 -15.194  1.00  0.00     0.157 HD
ATOM     16  H52 UNL     1     -15.359 -19.214 -15.949  1.00  0.00     0.157 HD
ENDROOT
BRANCH   1  17
HETATM   17  C10 UNL     1     -16.455 -19.880 -17.981  1.00  0.00    -0.058 C 
HETATM   18  C9  UNL     1     -17.416 -19.152 -17.989  1.00  0.00    -0.061 C 
BRANCH  18  19
HETATM   19  C8  UNL     1     -18.554 -18.285 -17.975  1.00  0.00     0.021 A 
HETATM   20  C7  UNL     1     -18.728 -17.316 -17.006  1.00  0.00     0.023 A 
HETATM   21  C6  UNL     1     -19.823 -16.479 -16.989  1.00  0.00     0.041 A 
HETATM   22  C5  UNL     1     -20.797 -16.580 -17.957  1.00  0.00     0.102 A 
HETATM   23  C27 UNL     1     -20.644 -17.540 -18.932  1.00  0.00     0.102 A 
HETATM   24  C26 UNL     1     -19.543 -18.368 -18.931  1.00  0.00     0.060 A 
BRANCH  22  25
HETATM   25  O2  UNL     1     -21.916 -15.745 -17.963  1.00  0.00    -0.348 OA
BRANCH  25  26
HETATM   26  C4  UNL     1     -23.049 -15.976 -17.192  1.00  0.00     0.178 C 
BRANCH  26  27
HETATM   27  C3  UNL     1     -22.812 -15.719 -15.721  1.00  0.00     0.053 C 
BRANCH  27  28
HETATM   28  C2  UNL     1     -22.620 -14.253 -15.476  1.00  0.00     0.169 C 
BRANCH  28  29
HETATM   29  O1  UNL     1     -21.348 -13.933 -15.056  1.00  0.00    -0.396 OA
HETATM   30  C1  UNL     1     -21.049 -14.608 -13.893  1.00  0.00     0.201 C 
ENDBRANCH  28  29
ENDBRANCH  27  28
ENDBRANCH  26  27
ENDBRANCH  25  26
ENDBRANCH  22  25
BRANCH  23  31
HETATM   31  O4  UNL     1     -21.624 -17.648 -19.909  1.00  0.00    -0.353 OA
HETATM   32  C28 UNL     1     -21.962 -18.846 -20.560  1.00  0.00     0.210 C 
ENDBRANCH  23  31
ENDBRANCH  18  19
ENDBRANCH   1  17
BRANCH   8  33
HETATM   33  C17 UNL     1     -10.507 -25.010 -18.858  1.00  0.00     0.143 C 
BRANCH  33  34
HETATM   34  C18 UNL     1     -10.527 -25.956 -17.709  1.00  0.00     0.222 C 
HETATM   35  O3  UNL     1     -11.346 -26.893 -17.618  1.00  0.00    -0.273 OA
HETATM   36  N2  UNL     1      -9.563 -25.769 -16.678  1.00  0.00    -0.356 N 
ATOM     37  H2  UNL     1      -8.884 -25.010 -16.731  1.00  0.00     0.162 HD
BRANCH  36  38
HETATM   38  C19 UNL     1      -9.568 -26.664 -15.574  1.00  0.00     0.166 C 
BRANCH  38  39
HETATM   39  C20 UNL     1      -8.531 -27.719 -15.630  1.00  0.00     0.076 C 
BRANCH  39  40
HETATM   40  N3  UNL     1      -9.003 -28.973 -16.054  1.00  0.00    -0.400 N 
HETATM   41  C21 UNL     1     -10.173 -29.521 -15.551  1.00  0.00     0.148 C 
HETATM   42  C22 UNL     1      -8.650 -29.248 -17.412  1.00  0.00     0.148 C 
ENDBRANCH  39  40
ENDBRANCH  38  39
ENDBRANCH  36  38
ENDBRANCH  33  34
ENDBRANCH   8  33
TORSDOF 13
ENDMDL
MODEL 3
REMARK VINA RESULT: -8.641521945      4.417     12.821
REMARK  13 active torsions:
REMARK  status: ('A' for Active; 'I' for Inactive)
REMARK    1  A    between atoms: O1_2  and  C2_3 
REMARK    2  A    between atoms: C2_3  and  C3_4 
REMARK    3  A    between atoms: C3_4  and  C4_5 
REMARK    4  A    between atoms: C4_5  and  O2_6 
REMARK    5  A    between atoms: O2_6  and  C5_7 
REMARK    6  A    between atoms: C8_10  and  C9_11 
REMARK    7  A    between atoms: C10_12  and  C11_13 
REMARK    8  A    between atoms: C16_20  and  C17_21 
REMARK    9  A    between atoms: C17_21  and  C18_22 
REMARK       I    between atoms: C18_22  and  N2_24 
REMARK   10  A    between atoms: N2_24  and  C19_26 
REMARK   11  A    between atoms: C19_26  and  C20_27 
REMARK   12  A    between atoms: C20_27  and  N3_28 
REMARK   13  A    between atoms: C27_40  and  O4_41 
ROOT
HETATM    1  C11 UNL     1     -17.637 -19.120 -15.287  1.00  0.00     0.064 A 
HETATM    2  C12 UNL     1     -18.067 -18.071 -14.507  1.00  0.00     0.056 A 
HETATM    3  C13 UNL     1     -19.150 -17.318 -14.863  1.00  0.00     0.061 A 
HETATM    4  N1  UNL     1     -19.580 -16.288 -14.107  1.00  0.00    -0.358 N 
ATOM      5  H1  UNL     1     -19.074 -16.077 -13.247  1.00  0.00     0.166 HD
HETATM    6  C14 UNL     1     -20.646 -15.521 -14.425  1.00  0.00     0.012 A 
HETATM    7  C15 UNL     1     -21.054 -14.410 -13.533  1.00  0.00     0.068 C 
HETATM    8  C16 UNL     1     -21.367 -15.761 -15.572  1.00  0.00    -0.025 A 
HETATM    9  C23 UNL     1     -20.931 -16.827 -16.367  1.00  0.00     0.041 A 
HETATM   10  C24 UNL     1     -19.841 -17.599 -16.027  1.00  0.00     0.061 A 
HETATM   11  N4  UNL     1     -19.405 -18.621 -16.767  1.00  0.00    -0.340 N 
ATOM     12  H4  UNL     1     -19.908 -18.837 -17.628  1.00  0.00     0.167 HD
HETATM   13  C25 UNL     1     -18.333 -19.392 -16.444  1.00  0.00     0.118 A 
HETATM   14  N5  UNL     1     -17.966 -20.365 -17.207  1.00  0.00    -0.384 N 
ATOM     15  H51 UNL     1     -18.481 -20.566 -18.064  1.00  0.00     0.157 HD
ATOM     16  H52 UNL     1     -17.161 -20.943 -16.965  1.00  0.00     0.157 HD
ENDROOT
BRANCH   1  17
HETATM   17  C10 UNL     1     -16.482 -19.920 -14.899  1.00  0.00    -0.058 C 
HETATM   18  C9  UNL     1     -15.527 -20.592 -14.598  1.00  0.00    -0.061 C 
BRANCH  18  19
HETATM   19  C8  UNL     1     -14.404 -21.409 -14.253  1.00  0.00     0.021 A 
HETATM   20  C7  UNL     1     -14.356 -22.137 -13.081  1.00  0.00     0.023 A 
HETATM   21  C6  UNL     1     -13.276 -22.925 -12.746  1.00  0.00     0.041 A 
HETATM   22  C5  UNL     1     -12.188 -23.015 -13.585  1.00  0.00     0.102 A 
HETATM   23  C27 UNL     1     -12.215 -22.297 -14.759  1.00  0.00     0.102 A 
HETATM   24  C26 UNL     1     -13.303 -21.514 -15.076  1.00  0.00     0.060 A 
BRANCH  22  25
HETATM   25  O2  UNL     1     -11.081 -23.806 -13.270  1.00  0.00    -0.348 OA
BRANCH  25  26
HETATM   26  C4  UNL     1     -11.099 -24.795 -12.294  1.00  0.00     0.178 C 
BRANCH  26  27
HETATM   27  C3  UNL     1     -11.629 -26.113 -12.812  1.00  0.00     0.053 C 
BRANCH  27  28
HETATM   28  C2  UNL     1     -12.601 -26.700 -11.836  1.00  0.00     0.169 C 
BRANCH  28  29
HETATM   29  O1  UNL     1     -13.900 -26.299 -12.051  1.00  0.00    -0.396 OA
HETATM   30  C1  UNL     1     -14.767 -27.105 -11.345  1.00  0.00     0.201 C 
ENDBRANCH  28  29
ENDBRANCH  27  28
ENDBRANCH  26  27
ENDBRANCH  25  26
ENDBRANCH  22  25
BRANCH  23  31
HETATM   31  O4  UNL     1     -11.120 -22.383 -15.608  1.00  0.00    -0.353 OA
HETATM   32  C28 UNL     1     -11.103 -23.123 -16.803  1.00  0.00     0.210 C 
ENDBRANCH  23  31
ENDBRANCH  18  19
ENDBRANCH   1  17
BRANCH   8  33
HETATM   33  C17 UNL     1     -22.541 -14.966 -15.997  1.00  0.00     0.143 C 
BRANCH  33  34
HETATM   34  C18 UNL     1     -23.645 -15.808 -16.533  1.00  0.00     0.222 C 
HETATM   35  O3  UNL     1     -24.204 -16.698 -15.861  1.00  0.00    -0.273 OA
HETATM   36  N2  UNL     1     -24.068 -15.574 -17.872  1.00  0.00    -0.356 N 
ATOM     37  H2  UNL     1     -23.626 -14.851 -18.440  1.00  0.00     0.162 HD
BRANCH  36  38
HETATM   38  C19 UNL     1     -25.121 -16.368 -18.399  1.00  0.00     0.166 C 
BRANCH  38  39
HETATM   39  C20 UNL     1     -24.678 -17.599 -19.093  1.00  0.00     0.076 C 
BRANCH  39  40
HETATM   40  N3  UNL     1     -25.364 -18.763 -18.704  1.00  0.00    -0.400 N 
HETATM   41  C21 UNL     1     -26.604 -18.706 -18.087  1.00  0.00     0.148 C 
HETATM   42  C22 UNL     1     -25.080 -19.866 -19.567  1.00  0.00     0.148 C 
ENDBRANCH  39  40
ENDBRANCH  38  39
ENDBRANCH  36  38
ENDBRANCH  33  34
ENDBRANCH   8  33
TORSDOF 13
ENDMDL
MODEL 4
REMARK VINA RESULT: -8.628913630      4.171     13.037
REMARK  13 active torsions:
REMARK  status: ('A' for Active; 'I' for Inactive)
REMARK    1  A    between atoms: O1_2  and  C2_3 
REMARK    2  A    between atoms: C2_3  and  C3_4 
REMARK    3  A    between atoms: C3_4  and  C4_5 
REMARK    4  A    between atoms: C4_5  and  O2_6 
REMARK    5  A    between atoms: O2_6  and  C5_7 
REMARK    6  A    between atoms: C8_10  and  C9_11 
REMARK    7  A    between atoms: C10_12  and  C11_13 
REMARK    8  A    between atoms: C16_20  and  C17_21 
REMARK    9  A    between atoms: C17_21  and  C18_22 
REMARK       I    between atoms: C18_22  and  N2_24 
REMARK   10  A    between atoms: N2_24  and  C19_26 
REMARK   11  A    between atoms: C19_26  and  C20_27 
REMARK   12  A    between atoms: C20_27  and  N3_28 
REMARK   13  A    between atoms: C27_40  and  O4_41 
ROOT
HETATM    1  C11 UNL     1     -17.619 -19.159 -15.294  1.00  0.00     0.064 A 
HETATM    2  C12 UNL     1     -18.036 -18.104 -14.515  1.00  0.00     0.056 A 
HETATM    3  C13 UNL     1     -19.113 -17.343 -14.869  1.00  0.00     0.061 A 
HETATM    4  N1  UNL     1     -19.531 -16.307 -14.114  1.00  0.00    -0.358 N 
ATOM      5  H1  UNL     1     -19.019 -16.097 -13.257  1.00  0.00     0.166 HD
HETATM    6  C14 UNL     1     -20.591 -15.531 -14.430  1.00  0.00     0.012 A 
HETATM    7  C15 UNL     1     -20.986 -14.414 -13.540  1.00  0.00     0.068 C 
HETATM    8  C16 UNL     1     -21.320 -15.768 -15.573  1.00  0.00    -0.025 A 
HETATM    9  C23 UNL     1     -20.897 -16.840 -16.367  1.00  0.00     0.041 A 
HETATM   10  C24 UNL     1     -19.812 -17.622 -16.029  1.00  0.00     0.061 A 
HETATM   11  N4  UNL     1     -19.389 -18.649 -16.768  1.00  0.00    -0.340 N 
ATOM     12  H4  UNL     1     -19.898 -18.863 -17.626  1.00  0.00     0.167 HD
HETATM   13  C25 UNL     1     -18.322 -19.429 -16.447  1.00  0.00     0.118 A 
HETATM   14  N5  UNL     1     -17.968 -20.407 -17.209  1.00  0.00    -0.384 N 
ATOM     15  H51 UNL     1     -18.488 -20.607 -18.063  1.00  0.00     0.157 HD
ATOM     16  H52 UNL     1     -17.167 -20.992 -16.968  1.00  0.00     0.157 HD
ENDROOT
BRANCH   1  17
HETATM   17  C10 UNL     1     -16.469 -19.969 -14.909  1.00  0.00    -0.058 C 
HETATM   18  C9  UNL     1     -15.511 -20.639 -14.612  1.00  0.00    -0.061 C 
BRANCH  18  19
HETATM   19  C8  UNL     1     -14.377 -21.444 -14.280  1.00  0.00     0.021 A 
HETATM   20  C7  UNL     1     -14.302 -22.161 -13.103  1.00  0.00     0.023 A 
HETATM   21  C6  UNL     1     -13.211 -22.939 -12.781  1.00  0.00     0.041 A 
HETATM   22  C5  UNL     1     -12.138 -23.030 -13.639  1.00  0.00     0.102 A 
HETATM   23  C27 UNL     1     -12.191 -22.322 -14.819  1.00  0.00     0.102 A 
HETATM   24  C26 UNL     1     -13.291 -21.550 -15.122  1.00  0.00     0.060 A 
BRANCH  22  25
HETATM   25  O2  UNL     1     -11.020 -23.810 -13.338  1.00  0.00    -0.348 OA
BRANCH  25  26
HETATM   26  C4  UNL     1     -11.079 -24.971 -12.575  1.00  0.00     0.178 C 
BRANCH  26  27
HETATM   27  C3  UNL     1     -11.279 -26.210 -13.419  1.00  0.00     0.053 C 
BRANCH  27  28
HETATM   28  C2  UNL     1     -10.428 -26.141 -14.649  1.00  0.00     0.169 C 
BRANCH  28  29
HETATM   29  O1  UNL     1     -10.829 -27.011 -15.639  1.00  0.00    -0.396 OA
HETATM   30  C1  UNL     1     -10.062 -26.825 -16.770  1.00  0.00     0.201 C 
ENDBRANCH  28  29
ENDBRANCH  27  28
ENDBRANCH  26  27
ENDBRANCH  25  26
ENDBRANCH  22  25
BRANCH  23  31
HETATM   31  O4  UNL     1     -11.111 -22.409 -15.687  1.00  0.00    -0.353 OA
HETATM   32  C28 UNL     1     -11.118 -23.143 -16.885  1.00  0.00     0.210 C 
ENDBRANCH  23  31
ENDBRANCH  18  19
ENDBRANCH   1  17
BRANCH   8  33
HETATM   33  C17 UNL     1     -22.489 -14.964 -15.996  1.00  0.00     0.143 C 
BRANCH  33  34
HETATM   34  C18 UNL     1     -23.606 -15.799 -16.514  1.00  0.00     0.222 C 
HETATM   35  O3  UNL     1     -24.169 -16.677 -15.830  1.00  0.00    -0.273 OA
HETATM   36  N2  UNL     1     -24.039 -15.571 -17.851  1.00  0.00    -0.356 N 
ATOM     37  H2  UNL     1     -23.594 -14.858 -18.429  1.00  0.00     0.162 HD
BRANCH  36  38
HETATM   38  C19 UNL     1     -25.106 -16.359 -18.362  1.00  0.00     0.166 C 
BRANCH  38  39
HETATM   39  C20 UNL     1     -24.680 -17.572 -19.096  1.00  0.00     0.076 C 
BRANCH  39  40
HETATM   40  N3  UNL     1     -25.345 -18.748 -18.707  1.00  0.00    -0.400 N 
HETATM   41  C21 UNL     1     -26.563 -18.712 -18.046  1.00  0.00     0.148 C 
HETATM   42  C22 UNL     1     -25.086 -19.831 -19.602  1.00  0.00     0.148 C 
ENDBRANCH  39  40
ENDBRANCH  38  39
ENDBRANCH  36  38
ENDBRANCH  33  34
ENDBRANCH   8  33
TORSDOF 13
ENDMDL
MODEL 5
REMARK VINA RESULT: -8.615781639      1.616      2.363
REMARK  13 active torsions:
REMARK  status: ('A' for Active; 'I' for Inactive)
REMARK    1  A    between atoms: O1_2  and  C2_3 
REMARK    2  A    between atoms: C2_3  and  C3_4 
REMARK    3  A    between atoms: C3_4  and  C4_5 
REMARK    4  A    between atoms: C4_5  and  O2_6 
REMARK    5  A    between atoms: O2_6  and  C5_7 
REMARK    6  A    between atoms: C8_10  and  C9_11 
REMARK    7  A    between atoms: C10_12  and  C11_13 
REMARK    8  A    between atoms: C16_20  and  C17_21 
REMARK    9  A    between atoms: C17_21  and  C18_22 
REMARK       I    between atoms: C18_22  and  N2_24 
REMARK   10  A    between atoms: N2_24  and  C19_26 
REMARK   11  A    between atoms: C19_26  and  C20_27 
REMARK   12  A    between atoms: C20_27  and  N3_28 
REMARK   13  A    between atoms: C27_40  and  O4_41 
ROOT
HETATM    1  C11 UNL     1     -15.214 -20.708 -17.888  1.00  0.00     0.064 A 
HETATM    2  C12 UNL     1     -14.993 -21.612 -18.902  1.00  0.00     0.056 A 
HETATM    3  C13 UNL     1     -13.916 -22.452 -18.882  1.00  0.00     0.061 A 
HETATM    4  N1  UNL     1     -13.691 -23.343 -19.869  1.00  0.00    -0.358 N 
ATOM      5  H1  UNL     1     -14.351 -23.380 -20.646  1.00  0.00     0.166 HD
HETATM    6  C14 UNL     1     -12.638 -24.190 -19.886  1.00  0.00     0.012 A 
HETATM    7  C15 UNL     1     -12.468 -25.141 -21.009  1.00  0.00     0.068 C 
HETATM    8  C16 UNL     1     -11.716 -24.185 -18.864  1.00  0.00    -0.025 A 
HETATM    9  C23 UNL     1     -11.938 -23.265 -17.833  1.00  0.00     0.041 A 
HETATM   10  C24 UNL     1     -13.018 -22.408 -17.832  1.00  0.00     0.061 A 
HETATM   11  N4  UNL     1     -13.252 -21.523 -16.862  1.00  0.00    -0.340 N 
ATOM     12  H4  UNL     1     -12.595 -21.482 -16.083  1.00  0.00     0.167 HD
HETATM   13  C25 UNL     1     -14.313 -20.672 -16.847  1.00  0.00     0.118 A 
HETATM   14  N5  UNL     1     -14.478 -19.840 -15.876  1.00  0.00    -0.384 N 
ATOM     15  H51 UNL     1     -13.811 -19.813 -15.105  1.00  0.00     0.157 HD
ATOM     16  H52 UNL     1     -15.273 -19.202 -15.865  1.00  0.00     0.157 HD
ENDROOT
BRANCH   1  17
HETATM   17  C10 UNL     1     -16.367 -19.816 -17.915  1.00  0.00    -0.058 C 
HETATM   18  C9  UNL     1     -17.332 -19.093 -17.925  1.00  0.00    -0.061 C 
BRANCH  18  19
HETATM   19  C8  UNL     1     -18.491 -18.255 -17.939  1.00  0.00     0.021 A 
HETATM   20  C7  UNL     1     -18.710 -17.285 -16.980  1.00  0.00     0.023 A 
HETATM   21  C6  UNL     1     -19.825 -16.476 -16.991  1.00  0.00     0.041 A 
HETATM   22  C5  UNL     1     -20.777 -16.608 -17.976  1.00  0.00     0.102 A 
HETATM   23  C27 UNL     1     -20.579 -17.569 -18.942  1.00  0.00     0.102 A 
HETATM   24  C26 UNL     1     -19.458 -18.369 -18.914  1.00  0.00     0.060 A 
BRANCH  22  25
HETATM   25  O2  UNL     1     -21.916 -15.801 -18.010  1.00  0.00    -0.348 OA
BRANCH  25  26
HETATM   26  C4  UNL     1     -23.041 -16.031 -17.228  1.00  0.00     0.178 C 
BRANCH  26  27
HETATM   27  C3  UNL     1     -22.792 -15.760 -15.760  1.00  0.00     0.053 C 
BRANCH  27  28
HETATM   28  C2  UNL     1     -22.645 -14.288 -15.524  1.00  0.00     0.169 C 
BRANCH  28  29
HETATM   29  O1  UNL     1     -21.385 -13.926 -15.105  1.00  0.00    -0.396 OA
HETATM   30  C1  UNL     1     -21.058 -14.602 -13.949  1.00  0.00     0.201 C 
ENDBRANCH  28  29
ENDBRANCH  27  28
ENDBRANCH  26  27
ENDBRANCH  25  26
ENDBRANCH  22  25
BRANCH  23  31
HETATM   31  O4  UNL     1     -21.536 -17.708 -19.938  1.00  0.00    -0.353 OA
HETATM   32  C28 UNL     1     -21.966 -18.942 -20.456  1.00  0.00     0.210 C 
ENDBRANCH  23  31
ENDBRANCH  18  19
ENDBRANCH   1  17
BRANCH   8  33
HETATM   33  C17 UNL     1     -10.533 -25.073 -18.808  1.00  0.00     0.143 C 
BRANCH  33  34
HETATM   34  C18 UNL     1     -10.565 -26.004 -17.647  1.00  0.00     0.222 C 
HETATM   35  O3  UNL     1     -11.249 -27.047 -17.634  1.00  0.00    -0.273 OA
HETATM   36  N2  UNL     1      -9.774 -25.673 -16.510  1.00  0.00    -0.356 N 
ATOM     37  H2  UNL     1      -9.207 -24.826 -16.498  1.00  0.00     0.162 HD
BRANCH  36  38
HETATM   38  C19 UNL     1      -9.792 -26.551 -15.393  1.00  0.00     0.166 C 
BRANCH  38  39
HETATM   39  C20 UNL     1     -10.691 -26.132 -14.293  1.00  0.00     0.076 C 
BRANCH  39  40
HETATM   40  N3  UNL     1     -11.005 -27.154 -13.381  1.00  0.00    -0.400 N 
HETATM   41  C21 UNL     1     -10.083 -28.128 -13.031  1.00  0.00     0.148 C 
HETATM   42  C22 UNL     1     -11.949 -26.723 -12.398  1.00  0.00     0.148 C 
ENDBRANCH  39  40
ENDBRANCH  38  39
ENDBRANCH  36  38
ENDBRANCH  33  34
ENDBRANCH   8  33
TORSDOF 13
ENDMDL
