MODEL 1
REMARK VINA RESULT: -8.680397725      0.000      0.000
REMARK  13 active torsions:
REMARK  status: ('A' for Active; 'I' for Inactive)
REMARK    1  A    between atoms: C2_2  and  N1_3 
REMARK    2  A    between atoms: N1_3  and  C3_4 
REMARK       I    between atoms: N1_3  and  C5_6 
REMARK    3  A    between atoms: C5_6  and  C6_8 
REMARK    4  A    between atoms: C7_13  and  N4_14 
REMARK    5  A    between atoms: N4_14  and  S1_15 
REMARK    6  A    between atoms: S1_15  and  C8_18 
REMARK    7  A    between atoms: C12_22  and  C13_23 
REMARK       I    between atoms: C13_23  and  N5_25 
REMARK    8  A    between atoms: N5_25  and  C14_27 
REMARK    9  A    between atoms: C14_27  and  C15_28 
REMARK   10  A    between atoms: C15_28  and  C16_29 
REMARK   11  A    between atoms: C16_29  and  C17_30 
REMARK   12  A    between atoms: C17_30  and  C18_31 
REMARK   13  A    between atoms: C18_31  and  C19_32 
ROOT
HETATM    1  C6  UNL     1       9.361  16.251  15.190  1.00  0.00     0.123 A 
HETATM    2  N2  UNL     1      10.091  16.592  14.113  1.00  0.00    -0.293 N 
ATOM      3  H2  UNL     1       9.914  16.092  13.242  1.00  0.00     0.187 HD
HETATM    4  N3  UNL     1      11.013  17.520  14.104  1.00  0.00    -0.272 N 
ATOM      5  H3  UNL     1      11.515  17.704  13.236  1.00  0.00     0.189 HD
HETATM    6  C7  UNL     1      11.324  18.243  15.204  1.00  0.00     0.224 A 
HETATM    7  C12 UNL     1      10.581  17.925  16.383  1.00  0.00     0.100 A 
HETATM    8  C22 UNL     1       9.632  16.954  16.376  1.00  0.00    -0.008 A 
HETATM    9  C23 UNL     1       9.002  16.527  17.656  1.00  0.00     0.052 C 
ENDROOT
BRANCH   7  10
HETATM   10  C13 UNL     1      10.928  18.715  17.577  1.00  0.00     0.257 C 
HETATM   11  O4  UNL     1      11.739  18.191  18.418  1.00  0.00    -0.267 OA
HETATM   12  N5  UNL     1      10.443  19.995  17.855  1.00  0.00    -0.357 N 
ATOM     13  H5  UNL     1       9.805  20.461  17.209  1.00  0.00     0.162 HD
BRANCH  12  14
HETATM   14  C14 UNL     1      10.864  20.649  19.080  1.00  0.00     0.123 C 
BRANCH  14  15
HETATM   15  C15 UNL     1      11.764  21.796  18.740  1.00  0.00     0.020 C 
BRANCH  15  16
HETATM   16  C16 UNL     1      13.037  21.733  19.531  1.00  0.00     0.002 C 
BRANCH  16  17
HETATM   17  C17 UNL     1      13.960  22.837  19.133  1.00  0.00     0.006 C 
BRANCH  17  18
HETATM   18  C18 UNL     1      14.412  23.696  20.305  1.00  0.00     0.058 C 
BRANCH  18  19
HETATM   19  C19 UNL     1      15.614  24.462  19.919  1.00  0.00     0.025 A 
HETATM   20  C20 UNL     1      16.821  24.530  20.575  1.00  0.00     0.113 A 
HETATM   21  N6  UNL     1      17.662  25.320  19.906  1.00  0.00    -0.360 N 
HETATM   22  C21 UNL     1      16.982  25.748  18.829  1.00  0.00     0.180 A 
ATOM     23  H6  UNL     1      18.622  25.552  20.159  1.00  0.00     0.166 HD
HETATM   24  N7  UNL     1      15.744  25.240  18.822  1.00  0.00    -0.355 N 
ATOM     25  H7  UNL     1      15.028  25.409  18.116  1.00  0.00     0.166 HD
ENDBRANCH  18  19
ENDBRANCH  17  18
ENDBRANCH  16  17
ENDBRANCH  15  16
ENDBRANCH  14  15
ENDBRANCH  12  14
ENDBRANCH   7  10
BRANCH   6  26
HETATM   26  N4  UNL     1      12.160  19.112  15.284  1.00  0.00    -0.301 NA
BRANCH  26  27
HETATM   27  S1  UNL     1      12.930  20.506  15.062  1.00  0.00     0.301 S 
HETATM   28  O2  UNL     1      12.241  21.736  15.711  1.00  0.00    -0.191 OA
HETATM   29  O3  UNL     1      13.078  20.918  13.572  1.00  0.00    -0.191 OA
BRANCH  27  30
HETATM   30  C8  UNL     1      14.576  20.566  15.787  1.00  0.00     0.084 C 
HETATM   31  C9  UNL     1      14.991  21.999  15.905  1.00  0.00     0.034 C 
HETATM   32  C10 UNL     1      14.544  19.810  17.075  1.00  0.00     0.034 C 
HETATM   33  C11 UNL     1      15.544  19.822  14.843  1.00  0.00     0.034 C 
ENDBRANCH  27  30
ENDBRANCH  26  27
ENDBRANCH   6  26
BRANCH   1  34
HETATM   34  C5  UNL     1       8.305  15.270  15.109  1.00  0.00     0.272 C 
HETATM   35  N1  UNL     1       6.920  15.545  15.194  1.00  0.00    -0.347 N 
HETATM   36  O1  UNL     1       8.611  14.038  14.948  1.00  0.00    -0.266 OA
BRANCH  35  37
HETATM   37  C2  UNL     1       6.359  16.857  15.349  1.00  0.00     0.121 C 
HETATM   38  C1  UNL     1       5.018  16.789  16.060  1.00  0.00     0.026 C 
ENDBRANCH  35  37
BRANCH  35  39
HETATM   39  C3  UNL     1       5.963  14.396  15.122  1.00  0.00     0.121 C 
HETATM   40  C4  UNL     1       6.019  13.826  13.738  1.00  0.00     0.026 C 
ENDBRANCH  35  39
ENDBRANCH   1  34
TORSDOF 13
ENDMDL
MODEL 2
REMARK VINA RESULT: -8.527985274      3.894      8.216
REMARK  13 active torsions:
REMARK  status: ('A' for Active; 'I' for Inactive)
REMARK    1  A    between atoms: C2_2  and  N1_3 
REMARK    2  A    between atoms: N1_3  and  C3_4 
REMARK       I    between atoms: N1_3  and  C5_6 
REMARK    3  A    between atoms: C5_6  and  C6_8 
REMARK    4  A    between atoms: C7_13  and  N4_14 
REMARK    5  A    between atoms: N4_14  and  S1_15 
REMARK    6  A    between atoms: S1_15  and  C8_18 
REMARK    7  A    between atoms: C12_22  and  C13_23 
REMARK       I    between atoms: C13_23  and  N5_25 
REMARK    8  A    between atoms: N5_25  and  C14_27 
REMARK    9  A    between atoms: C14_27  and  C15_28 
REMARK   10  A    between atoms: C15_28  and  C16_29 
REMARK   11  A    between atoms: C16_29  and  C17_30 
REMARK   12  A    between atoms: C17_30  and  C18_31 
REMARK   13  A    between atoms: C18_31  and  C19_32 
ROOT
HETATM    1  C6  UNL     1      16.334  22.597  13.784  1.00  0.00     0.123 A 
HETATM    2  N2  UNL     1      15.288  22.007  13.179  1.00  0.00    -0.293 N 
ATOM      3  H2  UNL     1      15.322  21.907  12.165  1.00  0.00     0.187 HD
HETATM    4  N3  UNL     1      14.230  21.553  13.799  1.00  0.00    -0.272 N 
ATOM      5  H3  UNL     1      13.486  21.123  13.249  1.00  0.00     0.189 HD
HETATM    6  C7  UNL     1      14.086  21.635  15.141  1.00  0.00     0.224 A 
HETATM    7  C12 UNL     1      15.166  22.254  15.842  1.00  0.00     0.100 A 
HETATM    8  C22 UNL     1      16.255  22.725  15.182  1.00  0.00    -0.008 A 
HETATM    9  C23 UNL     1      17.279  23.519  15.916  1.00  0.00     0.052 C 
ENDROOT
BRANCH   7  10
HETATM   10  C13 UNL     1      15.000  22.341  17.303  1.00  0.00     0.257 C 
HETATM   11  O4  UNL     1      15.356  21.328  18.001  1.00  0.00    -0.267 OA
HETATM   12  N5  UNL     1      14.489  23.450  17.982  1.00  0.00    -0.357 N 
ATOM     13  H5  UNL     1      14.205  24.287  17.472  1.00  0.00     0.162 HD
BRANCH  12  14
HETATM   14  C14 UNL     1      14.372  23.388  19.427  1.00  0.00     0.123 C 
BRANCH  14  15
HETATM   15  C15 UNL     1      15.007  24.605  20.025  1.00  0.00     0.020 C 
BRANCH  15  16
HETATM   16  C16 UNL     1      16.498  24.567  19.863  1.00  0.00     0.002 C 
BRANCH  16  17
HETATM   17  C17 UNL     1      16.973  25.746  19.079  1.00  0.00     0.006 C 
BRANCH  17  18
HETATM   18  C18 UNL     1      18.356  25.549  18.476  1.00  0.00     0.058 C 
BRANCH  18  19
HETATM   19  C19 UNL     1      18.712  26.733  17.666  1.00  0.00     0.025 A 
HETATM   20  C20 UNL     1      18.661  26.868  16.298  1.00  0.00     0.113 A 
HETATM   21  N6  UNL     1      19.053  28.094  15.945  1.00  0.00    -0.360 N 
HETATM   22  C21 UNL     1      19.350  28.727  17.092  1.00  0.00     0.180 A 
ATOM     23  H6  UNL     1      19.115  28.471  15.000  1.00  0.00     0.166 HD
HETATM   24  N7  UNL     1      19.150  27.919  18.140  1.00  0.00    -0.355 N 
ATOM     25  H7  UNL     1      19.301  28.156  19.121  1.00  0.00     0.166 HD
ENDBRANCH  18  19
ENDBRANCH  17  18
ENDBRANCH  16  17
ENDBRANCH  15  16
ENDBRANCH  14  15
ENDBRANCH  12  14
ENDBRANCH   7  10
BRANCH   6  26
HETATM   26  N4  UNL     1      13.143  21.245  15.791  1.00  0.00    -0.301 NA
BRANCH  26  27
HETATM   27  S1  UNL     1      11.639  21.056  16.324  1.00  0.00     0.301 S 
HETATM   28  O2  UNL     1      10.751  20.136  15.442  1.00  0.00    -0.191 OA
HETATM   29  O3  UNL     1      10.824  22.376  16.404  1.00  0.00    -0.191 OA
BRANCH  27  30
HETATM   30  C8  UNL     1      11.518  20.268  17.937  1.00  0.00     0.084 C 
HETATM   31  C9  UNL     1      12.600  19.240  18.045  1.00  0.00     0.034 C 
HETATM   32  C10 UNL     1      11.555  21.337  18.980  1.00  0.00     0.034 C 
HETATM   33  C11 UNL     1      10.139  19.582  18.034  1.00  0.00     0.034 C 
ENDBRANCH  27  30
ENDBRANCH  26  27
ENDBRANCH   6  26
BRANCH   1  34
HETATM   34  C5  UNL     1      17.506  23.004  13.046  1.00  0.00     0.272 C 
HETATM   35  N1  UNL     1      17.661  24.234  12.365  1.00  0.00    -0.347 N 
HETATM   36  O1  UNL     1      18.506  22.210  12.980  1.00  0.00    -0.266 OA
BRANCH  35  37
HETATM   37  C2  UNL     1      16.675  25.276  12.331  1.00  0.00     0.121 C 
HETATM   38  C1  UNL     1      17.295  26.617  12.686  1.00  0.00     0.026 C 
ENDBRANCH  35  37
BRANCH  35  39
HETATM   39  C3  UNL     1      18.937  24.476  11.620  1.00  0.00     0.121 C 
HETATM   40  C4  UNL     1      18.709  24.145  10.178  1.00  0.00     0.026 C 
ENDBRANCH  35  39
ENDBRANCH   1  34
TORSDOF 13
ENDMDL
MODEL 3
REMARK VINA RESULT: -8.492891323      2.390     10.262
REMARK  13 active torsions:
REMARK  status: ('A' for Active; 'I' for Inactive)
REMARK    1  A    between atoms: C2_2  and  N1_3 
REMARK    2  A    between atoms: N1_3  and  C3_4 
REMARK       I    between atoms: N1_3  and  C5_6 
REMARK    3  A    between atoms: C5_6  and  C6_8 
REMARK    4  A    between atoms: C7_13  and  N4_14 
REMARK    5  A    between atoms: N4_14  and  S1_15 
REMARK    6  A    between atoms: S1_15  and  C8_18 
REMARK    7  A    between atoms: C12_22  and  C13_23 
REMARK       I    between atoms: C13_23  and  N5_25 
REMARK    8  A    between atoms: N5_25  and  C14_27 
REMARK    9  A    between atoms: C14_27  and  C15_28 
REMARK   10  A    between atoms: C15_28  and  C16_29 
REMARK   11  A    between atoms: C16_29  and  C17_30 
REMARK   12  A    between atoms: C17_30  and  C18_31 
REMARK   13  A    between atoms: C18_31  and  C19_32 
ROOT
HETATM    1  C6  UNL     1      15.796  22.911  18.221  1.00  0.00     0.123 A 
HETATM    2  N2  UNL     1      15.181  22.857  19.415  1.00  0.00    -0.293 N 
ATOM      3  H2  UNL     1      15.644  23.303  20.207  1.00  0.00     0.187 HD
HETATM    4  N3  UNL     1      14.031  22.274  19.634  1.00  0.00    -0.272 N 
ATOM      5  H3  UNL     1      13.647  22.285  20.578  1.00  0.00     0.189 HD
HETATM    6  C7  UNL     1      13.335  21.656  18.652  1.00  0.00     0.224 A 
HETATM    7  C12 UNL     1      13.938  21.679  17.357  1.00  0.00     0.100 A 
HETATM    8  C22 UNL     1      15.136  22.284  17.150  1.00  0.00    -0.008 A 
HETATM    9  C23 UNL     1      15.820  22.139  15.835  1.00  0.00     0.052 C 
ENDROOT
BRANCH   7  10
HETATM   10  C13 UNL     1      13.175  21.002  16.296  1.00  0.00     0.257 C 
HETATM   11  O4  UNL     1      12.516  21.736  15.479  1.00  0.00    -0.267 OA
HETATM   12  N5  UNL     1      13.122  19.618  16.110  1.00  0.00    -0.357 N 
ATOM     13  H5  UNL     1      13.641  18.990  16.726  1.00  0.00     0.162 HD
BRANCH  12  14
HETATM   14  C14 UNL     1      12.316  19.091  15.025  1.00  0.00     0.123 C 
BRANCH  14  15
HETATM   15  C15 UNL     1      11.322  18.118  15.580  1.00  0.00     0.020 C 
BRANCH  15  16
HETATM   16  C16 UNL     1       9.952  18.377  15.028  1.00  0.00     0.002 C 
BRANCH  16  17
HETATM   17  C17 UNL     1       9.747  17.630  13.752  1.00  0.00     0.006 C 
BRANCH  17  18
HETATM   18  C18 UNL     1      10.114  16.157  13.851  1.00  0.00     0.058 C 
BRANCH  18  19
HETATM   19  C19 UNL     1       8.894  15.362  14.101  1.00  0.00     0.025 A 
HETATM   20  C20 UNL     1       8.211  15.210  15.285  1.00  0.00     0.113 A 
HETATM   21  N6  UNL     1       7.150  14.421  15.103  1.00  0.00    -0.360 N 
HETATM   22  C21 UNL     1       7.169  14.078  13.805  1.00  0.00     0.180 A 
ATOM     23  H6  UNL     1       6.467  14.137  15.805  1.00  0.00     0.166 HD
HETATM   24  N7  UNL     1       8.215  14.638  13.185  1.00  0.00    -0.355 N 
ATOM     25  H7  UNL     1       8.456  14.535  12.199  1.00  0.00     0.166 HD
ENDBRANCH  18  19
ENDBRANCH  17  18
ENDBRANCH  16  17
ENDBRANCH  15  16
ENDBRANCH  14  15
ENDBRANCH  12  14
ENDBRANCH   7  10
BRANCH   6  26
HETATM   26  N4  UNL     1      12.271  21.092  18.767  1.00  0.00    -0.301 NA
BRANCH  26  27
HETATM   27  S1  UNL     1      10.687  20.841  18.871  1.00  0.00     0.301 S 
HETATM   28  O2  UNL     1       9.932  20.908  17.515  1.00  0.00    -0.191 OA
HETATM   29  O3  UNL     1       9.938  21.875  19.755  1.00  0.00    -0.191 OA
BRANCH  27  30
HETATM   30  C8  UNL     1      10.234  19.208  19.478  1.00  0.00     0.084 C 
HETATM   31  C9  UNL     1      11.375  18.274  19.225  1.00  0.00     0.034 C 
HETATM   32  C10 UNL     1       9.831  19.341  20.910  1.00  0.00     0.034 C 
HETATM   33  C11 UNL     1       8.992  18.733  18.695  1.00  0.00     0.034 C 
ENDBRANCH  27  30
ENDBRANCH  26  27
ENDBRANCH   6  26
BRANCH   1  34
HETATM   34  C5  UNL     1      17.028  23.641  18.035  1.00  0.00     0.272 C 
HETATM   35  N1  UNL     1      17.265  24.971  18.451  1.00  0.00    -0.347 N 
HETATM   36  O1  UNL     1      18.009  23.067  17.446  1.00  0.00    -0.266 OA
BRANCH  35  37
HETATM   37  C2  UNL     1      16.313  25.788  19.150  1.00  0.00     0.121 C 
HETATM   38  C1  UNL     1      16.553  25.734  20.649  1.00  0.00     0.026 C 
ENDBRANCH  35  37
BRANCH  35  39
HETATM   39  C3  UNL     1      18.597  25.583  18.146  1.00  0.00     0.121 C 
HETATM   40  C4  UNL     1      18.364  26.908  17.487  1.00  0.00     0.026 C 
ENDBRANCH  35  39
ENDBRANCH   1  34
TORSDOF 13
ENDMDL
MODEL 4
REMARK VINA RESULT: -8.398324187      2.364     10.168
REMARK  13 active torsions:
REMARK  status: ('A' for Active; 'I' for Inactive)
REMARK    1  A    between atoms: C2_2  and  N1_3 
REMARK    2  A    between atoms: N1_3  and  C3_4 
REMARK       I    between atoms: N1_3  and  C5_6 
REMARK    3  A    between atoms: C5_6  and  C6_8 
REMARK    4  A    between atoms: C7_13  and  N4_14 
REMARK    5  A    between atoms: N4_14  and  S1_15 
REMARK    6  A    between atoms: S1_15  and  C8_18 
REMARK    7  A    between atoms: C12_22  and  C13_23 
REMARK       I    between atoms: C13_23  and  N5_25 
REMARK    8  A    between atoms: N5_25  and  C14_27 
REMARK    9  A    between atoms: C14_27  and  C15_28 
REMARK   10  A    between atoms: C15_28  and  C16_29 
REMARK   11  A    between atoms: C16_29  and  C17_30 
REMARK   12  A    between atoms: C17_30  and  C18_31 
REMARK   13  A    between atoms: C18_31  and  C19_32 
ROOT
HETATM    1  C6  UNL     1      15.845  22.918  18.158  1.00  0.00     0.123 A 
HETATM    2  N2  UNL     1      15.199  22.837  19.335  1.00  0.00    -0.293 N 
ATOM      3  H2  UNL     1      15.635  23.276  20.146  1.00  0.00     0.187 HD
HETATM    4  N3  UNL     1      14.052  22.235  19.513  1.00  0.00    -0.272 N 
ATOM      5  H3  UNL     1      13.643  22.225  20.447  1.00  0.00     0.189 HD
HETATM    6  C7  UNL     1      13.390  21.624  18.504  1.00  0.00     0.224 A 
HETATM    7  C12 UNL     1      14.028  21.676  17.226  1.00  0.00     0.100 A 
HETATM    8  C22 UNL     1      15.222  22.300  17.060  1.00  0.00    -0.008 A 
HETATM    9  C23 UNL     1      15.942  22.186  15.762  1.00  0.00     0.052 C 
ENDROOT
BRANCH   7  10
HETATM   10  C13 UNL     1      13.302  21.006  16.134  1.00  0.00     0.257 C 
HETATM   11  O4  UNL     1      12.704  21.748  15.278  1.00  0.00    -0.267 OA
HETATM   12  N5  UNL     1      13.224  19.622  15.959  1.00  0.00    -0.357 N 
ATOM     13  H5  UNL     1      13.695  18.989  16.606  1.00  0.00     0.162 HD
BRANCH  12  14
HETATM   14  C14 UNL     1      12.460  19.103  14.840  1.00  0.00     0.123 C 
BRANCH  14  15
HETATM   15  C15 UNL     1      11.231  18.422  15.358  1.00  0.00     0.020 C 
BRANCH  15  16
HETATM   16  C16 UNL     1      10.863  17.252  14.495  1.00  0.00     0.002 C 
BRANCH  16  17
HETATM   17  C17 UNL     1       9.540  17.475  13.840  1.00  0.00     0.006 C 
BRANCH  17  18
HETATM   18  C18 UNL     1       8.481  18.013  14.791  1.00  0.00     0.058 C 
BRANCH  18  19
HETATM   19  C19 UNL     1       7.452  16.978  15.018  1.00  0.00     0.025 A 
HETATM   20  C20 UNL     1       7.443  15.679  14.563  1.00  0.00     0.113 A 
HETATM   21  N6  UNL     1       6.344  15.053  14.989  1.00  0.00    -0.360 N 
HETATM   22  C21 UNL     1       5.664  15.959  15.711  1.00  0.00     0.180 A 
ATOM     23  H6  UNL     1       6.077  14.087  14.804  1.00  0.00     0.166 HD
HETATM   24  N7  UNL     1       6.319  17.126  15.738  1.00  0.00    -0.355 N 
ATOM     25  H7  UNL     1       6.017  17.975  16.217  1.00  0.00     0.166 HD
ENDBRANCH  18  19
ENDBRANCH  17  18
ENDBRANCH  16  17
ENDBRANCH  15  16
ENDBRANCH  14  15
ENDBRANCH  12  14
ENDBRANCH   7  10
BRANCH   6  26
HETATM   26  N4  UNL     1      12.332  21.044  18.582  1.00  0.00    -0.301 NA
BRANCH  26  27
HETATM   27  S1  UNL     1      10.752  20.773  18.703  1.00  0.00     0.301 S 
HETATM   28  O2  UNL     1       9.970  20.903  17.368  1.00  0.00    -0.191 OA
HETATM   29  O3  UNL     1      10.012  21.754  19.653  1.00  0.00    -0.191 OA
BRANCH  27  30
HETATM   30  C8  UNL     1      10.325  19.108  19.233  1.00  0.00     0.084 C 
HETATM   31  C9  UNL     1      11.446  18.189  18.861  1.00  0.00     0.034 C 
HETATM   32  C10 UNL     1      10.002  19.153  20.691  1.00  0.00     0.034 C 
HETATM   33  C11 UNL     1       9.039  18.684  18.492  1.00  0.00     0.034 C 
ENDBRANCH  27  30
ENDBRANCH  26  27
ENDBRANCH   6  26
BRANCH   1  34
HETATM   34  C5  UNL     1      17.071  23.667  18.017  1.00  0.00     0.272 C 
HETATM   35  N1  UNL     1      17.285  24.988  18.475  1.00  0.00    -0.347 N 
HETATM   36  O1  UNL     1      18.070  23.121  17.432  1.00  0.00    -0.266 OA
BRANCH  35  37
HETATM   37  C2  UNL     1      16.309  25.774  19.177  1.00  0.00     0.121 C 
HETATM   38  C1  UNL     1      16.540  25.706  20.677  1.00  0.00     0.026 C 
ENDBRANCH  35  37
BRANCH  35  39
HETATM   39  C3  UNL     1      18.615  25.624  18.213  1.00  0.00     0.121 C 
HETATM   40  C4  UNL     1      18.381  26.933  17.525  1.00  0.00     0.026 C 
ENDBRANCH  35  39
ENDBRANCH   1  34
TORSDOF 13
ENDMDL
MODEL 5
REMARK VINA RESULT: -8.373338872      2.985      9.668
REMARK  13 active torsions:
REMARK  status: ('A' for Active; 'I' for Inactive)
REMARK    1  A    between atoms: C2_2  and  N1_3 
REMARK    2  A    between atoms: N1_3  and  C3_4 
REMARK       I    between atoms: N1_3  and  C5_6 
REMARK    3  A    between atoms: C5_6  and  C6_8 
REMARK    4  A    between atoms: C7_13  and  N4_14 
REMARK    5  A    between atoms: N4_14  and  S1_15 
REMARK    6  A    between atoms: S1_15  and  C8_18 
REMARK    7  A    between atoms: C12_22  and  C13_23 
REMARK       I    between atoms: C13_23  and  N5_25 
REMARK    8  A    between atoms: N5_25  and  C14_27 
REMARK    9  A    between atoms: C14_27  and  C15_28 
REMARK   10  A    between atoms: C15_28  and  C16_29 
REMARK   11  A    between atoms: C16_29  and  C17_30 
REMARK   12  A    between atoms: C17_30  and  C18_31 
REMARK   13  A    between atoms: C18_31  and  C19_32 
ROOT
HETATM    1  C6  UNL     1      14.572  19.840  16.107  1.00  0.00     0.123 A 
HETATM    2  N2  UNL     1      14.704  19.426  17.379  1.00  0.00    -0.293 N 
ATOM      3  H2  UNL     1      15.649  19.317  17.747  1.00  0.00     0.187 HD
HETATM    4  N3  UNL     1      13.706  19.152  18.179  1.00  0.00    -0.272 N 
ATOM      5  H3  UNL     1      13.909  18.841  19.129  1.00  0.00     0.189 HD
HETATM    6  C7  UNL     1      12.415  19.265  17.792  1.00  0.00     0.224 A 
HETATM    7  C12 UNL     1      12.209  19.702  16.447  1.00  0.00     0.100 A 
HETATM    8  C22 UNL     1      13.257  19.976  15.628  1.00  0.00    -0.008 A 
HETATM    9  C23 UNL     1      13.015  20.257  14.186  1.00  0.00     0.052 C 
ENDROOT
BRANCH   7  10
HETATM   10  C13 UNL     1      10.801  19.819  16.032  1.00  0.00     0.257 C 
HETATM   11  O4  UNL     1      10.202  20.924  16.277  1.00  0.00    -0.267 OA
HETATM   12  N5  UNL     1      10.074  18.816  15.386  1.00  0.00    -0.357 N 
ATOM     13  H5  UNL     1      10.510  17.923  15.156  1.00  0.00     0.162 HD
BRANCH  12  14
HETATM   14  C14 UNL     1       8.686  19.071  15.048  1.00  0.00     0.123 C 
BRANCH  14  15
HETATM   15  C15 UNL     1       8.095  17.839  14.434  1.00  0.00     0.020 C 
BRANCH  15  16
HETATM   16  C16 UNL     1       9.169  16.868  14.042  1.00  0.00     0.002 C 
BRANCH  16  17
HETATM   17  C17 UNL     1       8.888  15.514  14.606  1.00  0.00     0.006 C 
BRANCH  17  18
HETATM   18  C18 UNL     1       7.954  14.683  13.739  1.00  0.00     0.058 C 
BRANCH  18  19
HETATM   19  C19 UNL     1       6.743  14.338  14.510  1.00  0.00     0.025 A 
HETATM   20  C20 UNL     1       6.340  14.845  15.724  1.00  0.00     0.113 A 
HETATM   21  N6  UNL     1       5.183  14.290  16.090  1.00  0.00    -0.360 N 
HETATM   22  C21 UNL     1       4.861  13.434  15.106  1.00  0.00     0.180 A 
ATOM     23  H6  UNL     1       4.653  14.476  16.941  1.00  0.00     0.166 HD
HETATM   24  N7  UNL     1       5.792  13.451  14.145  1.00  0.00    -0.355 N 
ATOM     25  H7  UNL     1       5.785  12.894  13.290  1.00  0.00     0.166 HD
ENDBRANCH  18  19
ENDBRANCH  17  18
ENDBRANCH  16  17
ENDBRANCH  15  16
ENDBRANCH  14  15
ENDBRANCH  12  14
ENDBRANCH   7  10
BRANCH   6  26
HETATM   26  N4  UNL     1      11.437  19.030  18.463  1.00  0.00    -0.301 NA
BRANCH  26  27
HETATM   27  S1  UNL     1      10.299  19.164  19.590  1.00  0.00     0.301 S 
HETATM   28  O2  UNL     1       9.627  20.561  19.668  1.00  0.00    -0.191 OA
HETATM   29  O3  UNL     1      10.810  18.926  21.037  1.00  0.00    -0.191 OA
BRANCH  27  30
HETATM   30  C8  UNL     1       8.886  18.075  19.349  1.00  0.00     0.084 C 
HETATM   31  C9  UNL     1       9.120  17.260  18.116  1.00  0.00     0.034 C 
HETATM   32  C10 UNL     1       8.690  17.285  20.601  1.00  0.00     0.034 C 
HETATM   33  C11 UNL     1       7.631  18.953  19.160  1.00  0.00     0.034 C 
ENDBRANCH  27  30
ENDBRANCH  26  27
ENDBRANCH   6  26
BRANCH   1  34
HETATM   34  C5  UNL     1      15.717  20.201  15.304  1.00  0.00     0.272 C 
HETATM   35  N1  UNL     1      16.252  21.503  15.175  1.00  0.00    -0.347 N 
HETATM   36  O1  UNL     1      16.321  19.290  14.639  1.00  0.00    -0.266 OA
BRANCH  35  37
HETATM   37  C2  UNL     1      15.744  22.663  15.851  1.00  0.00     0.121 C 
HETATM   38  C1  UNL     1      16.372  22.803  17.228  1.00  0.00     0.026 C 
ENDBRANCH  35  37
BRANCH  35  39
HETATM   39  C3  UNL     1      17.429  21.700  14.271  1.00  0.00     0.121 C 
HETATM   40  C4  UNL     1      17.273  23.019  13.579  1.00  0.00     0.026 C 
ENDBRANCH  35  39
ENDBRANCH   1  34
TORSDOF 13
ENDMDL
