MODEL 1
REMARK VINA RESULT: -6.455580956      0.000      0.000
REMARK  9 active torsions:
REMARK  status: ('A' for Active; 'I' for Inactive)
REMARK    1  A    between atoms: C2_2  and  N1_3 
REMARK    2  A    between atoms: C2_2  and  C8_14 
REMARK       I    between atoms: N1_3  and  C3_5 
REMARK    3  A    between atoms: C3_5  and  C4_7 
REMARK    4  A    between atoms: C4_7  and  C5_8 
REMARK    5  A    between atoms: C5_8  and  S1_9 
REMARK    6  A    between atoms: S1_9  and  C6_10 
REMARK    7  A    between atoms: C8_14  and  O2_15 
REMARK    8  A    between atoms: C17_26  and  O4_27 
REMARK    9  A    between atoms: O4_27  and  O5_28 
ROOT
HETATM    1  C6  UNL     1     -17.230   0.445  12.717  1.00  0.00     0.338 C 
HETATM    2  F1  UNL     1     -17.717   1.020  11.555  1.00  0.00    -0.222 F 
HETATM    3  C7  UNL     1     -15.766   0.418  12.726  1.00  0.00     0.107 C 
HETATM    4  N2  UNL     1     -14.604   0.389  12.743  1.00  0.00    -0.193 NA
ENDROOT
BRANCH   1   5
HETATM    5  S1  UNL     1     -17.816   1.285  14.193  1.00  0.00    -0.118 SA
BRANCH   5   6
HETATM    6  C5  UNL     1     -19.204   2.372  13.808  1.00  0.00     0.087 C 
BRANCH   6   7
HETATM    7  C4  UNL     1     -18.809   3.830  13.885  1.00  0.00     0.113 C 
BRANCH   7   8
HETATM    8  C3  UNL     1     -18.479   4.374  12.554  1.00  0.00     0.222 C 
HETATM    9  N1  UNL     1     -17.617   5.493  12.464  1.00  0.00    -0.332 N 
ATOM     10  H1  UNL     1     -17.251   5.884  13.333  1.00  0.00     0.168 HD
HETATM   11  O1  UNL     1     -18.958   3.852  11.534  1.00  0.00    -0.273 OA
BRANCH   9  12
HETATM   12  C2  UNL     1     -17.223   6.113  11.234  1.00  0.00     0.023 C 
HETATM   13  C1  UNL     1     -17.417   7.613  11.324  1.00  0.00     0.066 C 
BRANCH  12  14
HETATM   14  C8  UNL     1     -15.993   5.679  10.576  1.00  0.00     0.126 C 
HETATM   15  C9  UNL     1     -15.445   6.873   9.770  1.00  0.00     0.050 C 
HETATM   16  C10 UNL     1     -13.956   6.605   9.673  1.00  0.00     0.044 C 
HETATM   17  C11 UNL     1     -13.814   5.268   8.966  1.00  0.00     0.087 C 
HETATM   18  C12 UNL     1     -13.142   5.589   7.623  1.00  0.00     0.049 C 
HETATM   19  O3  UNL     1     -15.016   4.710   8.652  1.00  0.00    -0.364 OA
HETATM   20  C17 UNL     1     -12.988   4.283   9.723  1.00  0.00     0.194 C 
HETATM   21  C13 UNL     1     -15.864   4.482   9.770  1.00  0.00     0.095 C 
HETATM   22  C14 UNL     1     -17.099   3.918   9.101  1.00  0.00     0.050 C 
HETATM   23  C15 UNL     1     -15.202   3.336  10.505  1.00  0.00     0.044 C 
HETATM   24  C16 UNL     1     -13.741   3.454  10.709  1.00  0.00     0.041 C 
BRANCH  14  25
HETATM   25  O2  UNL     1     -15.042   5.571  11.641  1.00  0.00    -0.381 OA
ATOM     26  H2  UNL     1     -14.892   4.637  11.727  1.00  0.00     0.211 HD
ENDBRANCH  14  25
BRANCH  20  27
HETATM   27  O4  UNL     1     -12.251   3.503   8.827  1.00  0.00    -0.235 OA
BRANCH  27  28
HETATM   28  O5  UNL     1     -12.829   2.364   8.541  1.00  0.00    -0.250 OA
ATOM     29  H5  UNL     1     -12.859   2.185   7.609  1.00  0.00     0.253 HD
ENDBRANCH  27  28
ENDBRANCH  20  27
ENDBRANCH  12  14
ENDBRANCH   9  12
ENDBRANCH   7   8
ENDBRANCH   6   7
ENDBRANCH   5   6
ENDBRANCH   1   5
TORSDOF 9
ENDMDL
MODEL 2
REMARK VINA RESULT: -6.239855451      1.030      1.067
REMARK  9 active torsions:
REMARK  status: ('A' for Active; 'I' for Inactive)
REMARK    1  A    between atoms: C2_2  and  N1_3 
REMARK    2  A    between atoms: C2_2  and  C8_14 
REMARK       I    between atoms: N1_3  and  C3_5 
REMARK    3  A    between atoms: C3_5  and  C4_7 
REMARK    4  A    between atoms: C4_7  and  C5_8 
REMARK    5  A    between atoms: C5_8  and  S1_9 
REMARK    6  A    between atoms: S1_9  and  C6_10 
REMARK    7  A    between atoms: C8_14  and  O2_15 
REMARK    8  A    between atoms: C17_26  and  O4_27 
REMARK    9  A    between atoms: O4_27  and  O5_28 
ROOT
HETATM    1  C6  UNL     1     -17.046   0.753  14.137  1.00  0.00     0.338 C 
HETATM    2  F1  UNL     1     -17.055  -0.547  14.614  1.00  0.00    -0.222 F 
HETATM    3  C7  UNL     1     -17.297   0.795  12.695  1.00  0.00     0.107 C 
HETATM    4  N2  UNL     1     -17.492   0.841  11.550  1.00  0.00    -0.193 NA
ENDROOT
BRANCH   1   5
HETATM    5  S1  UNL     1     -18.241   1.798  14.977  1.00  0.00    -0.118 SA
BRANCH   5   6
HETATM    6  C5  UNL     1     -19.201   2.762  13.790  1.00  0.00     0.087 C 
BRANCH   6   7
HETATM    7  C4  UNL     1     -18.756   4.208  13.758  1.00  0.00     0.113 C 
BRANCH   7   8
HETATM    8  C3  UNL     1     -18.391   4.633  12.394  1.00  0.00     0.222 C 
HETATM    9  N1  UNL     1     -17.510   5.730  12.230  1.00  0.00    -0.332 N 
ATOM     10  H1  UNL     1     -17.159   6.188  13.070  1.00  0.00     0.168 HD
HETATM   11  O1  UNL     1     -18.854   4.033  11.411  1.00  0.00    -0.273 OA
BRANCH   9  12
HETATM   12  C2  UNL     1     -17.082   6.238  10.960  1.00  0.00     0.023 C 
HETATM   13  C1  UNL     1     -17.274   7.740  10.911  1.00  0.00     0.066 C 
BRANCH  12  14
HETATM   14  C8  UNL     1     -15.835   5.747  10.378  1.00  0.00     0.126 C 
HETATM   15  C9  UNL     1     -15.255   6.871   9.496  1.00  0.00     0.050 C 
HETATM   16  C10 UNL     1     -13.764   6.590   9.467  1.00  0.00     0.044 C 
HETATM   17  C11 UNL     1     -13.610   5.199   8.876  1.00  0.00     0.087 C 
HETATM   18  C12 UNL     1     -12.895   5.409   7.533  1.00  0.00     0.049 C 
HETATM   19  O3  UNL     1     -14.805   4.623   8.570  1.00  0.00    -0.364 OA
HETATM   20  C17 UNL     1     -12.814   4.275   9.734  1.00  0.00     0.194 C 
HETATM   21  C13 UNL     1     -15.689   4.489   9.675  1.00  0.00     0.095 C 
HETATM   22  C14 UNL     1     -16.905   3.878   9.016  1.00  0.00     0.050 C 
HETATM   23  C15 UNL     1     -15.057   3.403  10.521  1.00  0.00     0.044 C 
HETATM   24  C16 UNL     1     -13.601   3.531  10.760  1.00  0.00     0.041 C 
BRANCH  14  25
HETATM   25  O2  UNL     1     -14.918   5.722  11.478  1.00  0.00    -0.381 OA
ATOM     26  H2  UNL     1     -14.367   6.483  11.341  1.00  0.00     0.211 HD
ENDBRANCH  14  25
BRANCH  20  27
HETATM   27  O4  UNL     1     -12.055   3.423   8.927  1.00  0.00    -0.235 OA
BRANCH  27  28
HETATM   28  O5  UNL     1     -12.686   2.322   8.607  1.00  0.00    -0.250 OA
ATOM     29  H5  UNL     1     -12.263   1.841   7.905  1.00  0.00     0.253 HD
ENDBRANCH  27  28
ENDBRANCH  20  27
ENDBRANCH  12  14
ENDBRANCH   9  12
ENDBRANCH   7   8
ENDBRANCH   6   7
ENDBRANCH   5   6
ENDBRANCH   1   5
TORSDOF 9
ENDMDL
MODEL 3
REMARK VINA RESULT: -5.821332071      3.394      5.177
REMARK  9 active torsions:
REMARK  status: ('A' for Active; 'I' for Inactive)
REMARK    1  A    between atoms: C2_2  and  N1_3 
REMARK    2  A    between atoms: C2_2  and  C8_14 
REMARK       I    between atoms: N1_3  and  C3_5 
REMARK    3  A    between atoms: C3_5  and  C4_7 
REMARK    4  A    between atoms: C4_7  and  C5_8 
REMARK    5  A    between atoms: C5_8  and  S1_9 
REMARK    6  A    between atoms: S1_9  and  C6_10 
REMARK    7  A    between atoms: C8_14  and  O2_15 
REMARK    8  A    between atoms: C17_26  and  O4_27 
REMARK    9  A    between atoms: O4_27  and  O5_28 
ROOT
HETATM    1  C6  UNL     1     -13.968   1.190  11.108  1.00  0.00     0.338 C 
HETATM    2  F1  UNL     1     -13.160   2.297  10.912  1.00  0.00    -0.222 F 
HETATM    3  C7  UNL     1     -13.570   0.444  12.303  1.00  0.00     0.107 C 
HETATM    4  N2  UNL     1     -13.262  -0.159  13.247  1.00  0.00    -0.193 NA
ENDROOT
BRANCH   1   5
HETATM    5  S1  UNL     1     -15.706   1.628  11.235  1.00  0.00    -0.118 SA
BRANCH   5   6
HETATM    6  C5  UNL     1     -16.305   2.341   9.689  1.00  0.00     0.087 C 
BRANCH   6   7
HETATM    7  C4  UNL     1     -16.515   3.834   9.808  1.00  0.00     0.113 C 
BRANCH   7   8
HETATM    8  C3  UNL     1     -15.233   4.556   9.913  1.00  0.00     0.222 C 
HETATM    9  N1  UNL     1     -14.408   4.659   8.767  1.00  0.00    -0.332 N 
ATOM     10  H1  UNL     1     -14.735   4.226   7.904  1.00  0.00     0.168 HD
HETATM   11  O1  UNL     1     -14.892   5.061  10.994  1.00  0.00    -0.273 OA
BRANCH   9  12
HETATM   12  C2  UNL     1     -13.143   5.332   8.742  1.00  0.00     0.023 C 
HETATM   13  C1  UNL     1     -12.050   4.366   8.329  1.00  0.00     0.066 C 
BRANCH  12  14
HETATM   14  C8  UNL     1     -13.054   6.665   8.152  1.00  0.00     0.126 C 
HETATM   15  C9  UNL     1     -11.629   6.836   7.589  1.00  0.00     0.050 C 
HETATM   16  C10 UNL     1     -11.783   7.869   6.490  1.00  0.00     0.044 C 
HETATM   17  C11 UNL     1     -12.335   9.116   7.160  1.00  0.00     0.087 C 
HETATM   18  C12 UNL     1     -11.221  10.167   7.040  1.00  0.00     0.049 C 
HETATM   19  O3  UNL     1     -12.539   8.948   8.496  1.00  0.00    -0.364 OA
HETATM   20  C17 UNL     1     -13.584   9.628   6.524  1.00  0.00     0.194 C 
HETATM   21  C13 UNL     1     -13.433   7.892   8.822  1.00  0.00     0.095 C 
HETATM   22  C14 UNL     1     -13.410   7.934  10.334  1.00  0.00     0.050 C 
HETATM   23  C15 UNL     1     -14.789   8.413   8.390  1.00  0.00     0.044 C 
HETATM   24  C16 UNL     1     -14.848   9.033   7.047  1.00  0.00     0.041 C 
BRANCH  14  25
HETATM   25  O2  UNL     1     -13.842   6.578   6.960  1.00  0.00    -0.381 OA
ATOM     26  H2  UNL     1     -14.656   7.013   7.184  1.00  0.00     0.211 HD
ENDBRANCH  14  25
BRANCH  20  27
HETATM   27  O4  UNL     1     -13.596  11.024   6.571  1.00  0.00    -0.235 OA
BRANCH  27  28
HETATM   28  O5  UNL     1     -14.289  11.499   7.575  1.00  0.00    -0.250 OA
ATOM     29  H5  UNL     1     -13.907  11.294   8.421  1.00  0.00     0.253 HD
ENDBRANCH  27  28
ENDBRANCH  20  27
ENDBRANCH  12  14
ENDBRANCH   9  12
ENDBRANCH   7   8
ENDBRANCH   6   7
ENDBRANCH   5   6
ENDBRANCH   1   5
TORSDOF 9
ENDMDL
MODEL 4
REMARK VINA RESULT: -5.810560140      3.258      5.147
REMARK  9 active torsions:
REMARK  status: ('A' for Active; 'I' for Inactive)
REMARK    1  A    between atoms: C2_2  and  N1_3 
REMARK    2  A    between atoms: C2_2  and  C8_14 
REMARK       I    between atoms: N1_3  and  C3_5 
REMARK    3  A    between atoms: C3_5  and  C4_7 
REMARK    4  A    between atoms: C4_7  and  C5_8 
REMARK    5  A    between atoms: C5_8  and  S1_9 
REMARK    6  A    between atoms: S1_9  and  C6_10 
REMARK    7  A    between atoms: C8_14  and  O2_15 
REMARK    8  A    between atoms: C17_26  and  O4_27 
REMARK    9  A    between atoms: O4_27  and  O5_28 
ROOT
HETATM    1  C6  UNL     1     -18.470   1.553  12.825  1.00  0.00     0.338 C 
HETATM    2  F1  UNL     1     -18.019   0.622  13.746  1.00  0.00    -0.222 F 
HETATM    3  C7  UNL     1     -18.873   2.799  13.478  1.00  0.00     0.107 C 
HETATM    4  N2  UNL     1     -19.199   3.793  13.985  1.00  0.00    -0.193 NA
ENDROOT
BRANCH   1   5
HETATM    5  S1  UNL     1     -17.244   1.915  11.563  1.00  0.00    -0.118 SA
BRANCH   5   6
HETATM    6  C5  UNL     1     -17.383   3.625  11.002  1.00  0.00     0.087 C 
BRANCH   6   7
HETATM    7  C4  UNL     1     -16.703   3.829   9.665  1.00  0.00     0.113 C 
BRANCH   7   8
HETATM    8  C3  UNL     1     -15.370   4.441   9.822  1.00  0.00     0.222 C 
HETATM    9  N1  UNL     1     -14.602   4.718   8.666  1.00  0.00    -0.332 N 
ATOM     10  H1  UNL     1     -15.004   4.482   7.758  1.00  0.00     0.168 HD
HETATM   11  O1  UNL     1     -14.937   4.704  10.955  1.00  0.00    -0.273 OA
BRANCH   9  12
HETATM   12  C2  UNL     1     -13.296   5.308   8.686  1.00  0.00     0.023 C 
HETATM   13  C1  UNL     1     -12.257   4.282   8.283  1.00  0.00     0.066 C 
BRANCH  12  14
HETATM   14  C8  UNL     1     -13.106   6.644   8.126  1.00  0.00     0.126 C 
HETATM   15  C9  UNL     1     -11.647   6.745   7.638  1.00  0.00     0.050 C 
HETATM   16  C10 UNL     1     -11.691   7.802   6.551  1.00  0.00     0.044 C 
HETATM   17  C11 UNL     1     -12.208   9.067   7.215  1.00  0.00     0.087 C 
HETATM   18  C12 UNL     1     -11.035  10.057   7.169  1.00  0.00     0.049 C 
HETATM   19  O3  UNL     1     -12.488   8.890   8.536  1.00  0.00    -0.364 OA
HETATM   20  C17 UNL     1     -13.394   9.655   6.527  1.00  0.00     0.194 C 
HETATM   21  C13 UNL     1     -13.453   7.879   8.798  1.00  0.00     0.095 C 
HETATM   22  C14 UNL     1     -13.503   7.896  10.310  1.00  0.00     0.050 C 
HETATM   23  C15 UNL     1     -14.755   8.480   8.309  1.00  0.00     0.044 C 
HETATM   24  C16 UNL     1     -14.713   9.122   6.976  1.00  0.00     0.041 C 
BRANCH  14  25
HETATM   25  O2  UNL     1     -13.837   6.618   6.895  1.00  0.00    -0.381 OA
ATOM     26  H2  UNL     1     -14.718   6.372   7.150  1.00  0.00     0.211 HD
ENDBRANCH  14  25
BRANCH  20  27
HETATM   27  O4  UNL     1     -13.333  11.050   6.599  1.00  0.00    -0.235 OA
BRANCH  27  28
HETATM   28  O5  UNL     1     -14.049  11.545   7.576  1.00  0.00    -0.250 OA
ATOM     29  H5  UNL     1     -14.792  12.054   7.274  1.00  0.00     0.253 HD
ENDBRANCH  27  28
ENDBRANCH  20  27
ENDBRANCH  12  14
ENDBRANCH   9  12
ENDBRANCH   7   8
ENDBRANCH   6   7
ENDBRANCH   5   6
ENDBRANCH   1   5
TORSDOF 9
ENDMDL
MODEL 5
REMARK VINA RESULT: -5.802900033      3.209      4.947
REMARK  9 active torsions:
REMARK  status: ('A' for Active; 'I' for Inactive)
REMARK    1  A    between atoms: C2_2  and  N1_3 
REMARK    2  A    between atoms: C2_2  and  C8_14 
REMARK       I    between atoms: N1_3  and  C3_5 
REMARK    3  A    between atoms: C3_5  and  C4_7 
REMARK    4  A    between atoms: C4_7  and  C5_8 
REMARK    5  A    between atoms: C5_8  and  S1_9 
REMARK    6  A    between atoms: S1_9  and  C6_10 
REMARK    7  A    between atoms: C8_14  and  O2_15 
REMARK    8  A    between atoms: C17_26  and  O4_27 
REMARK    9  A    between atoms: O4_27  and  O5_28 
ROOT
HETATM    1  C6  UNL     1     -18.192   1.077  12.567  1.00  0.00     0.338 C 
HETATM    2  F1  UNL     1     -18.928   0.014  12.070  1.00  0.00    -0.222 F 
HETATM    3  C7  UNL     1     -17.473   0.704  13.787  1.00  0.00     0.107 C 
HETATM    4  N2  UNL     1     -16.899   0.422  14.757  1.00  0.00    -0.193 NA
ENDROOT
BRANCH   1   5
HETATM    5  S1  UNL     1     -17.025   1.722  11.364  1.00  0.00    -0.118 SA
BRANCH   5   6
HETATM    6  C5  UNL     1     -17.375   3.453  10.991  1.00  0.00     0.087 C 
BRANCH   6   7
HETATM    7  C4  UNL     1     -16.780   3.867   9.662  1.00  0.00     0.113 C 
BRANCH   7   8
HETATM    8  C3  UNL     1     -15.464   4.510   9.833  1.00  0.00     0.222 C 
HETATM    9  N1  UNL     1     -14.612   4.639   8.710  1.00  0.00    -0.332 N 
ATOM     10  H1  UNL     1     -14.945   4.279   7.816  1.00  0.00     0.168 HD
HETATM   11  O1  UNL     1     -15.118   4.928  10.950  1.00  0.00    -0.273 OA
BRANCH   9  12
HETATM   12  C2  UNL     1     -13.313   5.243   8.748  1.00  0.00     0.023 C 
HETATM   13  C1  UNL     1     -12.254   4.215   8.403  1.00  0.00     0.066 C 
BRANCH  12  14
HETATM   14  C8  UNL     1     -13.120   6.563   8.153  1.00  0.00     0.126 C 
HETATM   15  C9  UNL     1     -11.663   6.647   7.657  1.00  0.00     0.050 C 
HETATM   16  C10 UNL     1     -11.706   7.676   6.544  1.00  0.00     0.044 C 
HETATM   17  C11 UNL     1     -12.216   8.959   7.178  1.00  0.00     0.087 C 
HETATM   18  C12 UNL     1     -11.040   9.943   7.102  1.00  0.00     0.049 C 
HETATM   19  O3  UNL     1     -12.492   8.816   8.503  1.00  0.00    -0.364 OA
HETATM   20  C17 UNL     1     -13.402   9.534   6.479  1.00  0.00     0.194 C 
HETATM   21  C13 UNL     1     -13.459   7.816   8.795  1.00  0.00     0.095 C 
HETATM   22  C14 UNL     1     -13.504   7.872  10.306  1.00  0.00     0.050 C 
HETATM   23  C15 UNL     1     -14.761   8.409   8.296  1.00  0.00     0.044 C 
HETATM   24  C16 UNL     1     -14.722   9.017   6.947  1.00  0.00     0.041 C 
BRANCH  14  25
HETATM   25  O2  UNL     1     -13.855   6.508   6.926  1.00  0.00    -0.381 OA
ATOM     26  H2  UNL     1     -13.681   7.345   6.511  1.00  0.00     0.211 HD
ENDBRANCH  14  25
BRANCH  20  27
HETATM   27  O4  UNL     1     -13.336  10.929   6.515  1.00  0.00    -0.235 OA
BRANCH  27  28
HETATM   28  O5  UNL     1     -13.944  11.446   7.553  1.00  0.00    -0.250 OA
ATOM     29  H5  UNL     1     -13.481  12.187   7.926  1.00  0.00     0.253 HD
ENDBRANCH  27  28
ENDBRANCH  20  27
ENDBRANCH  12  14
ENDBRANCH   9  12
ENDBRANCH   7   8
ENDBRANCH   6   7
ENDBRANCH   5   6
ENDBRANCH   1   5
TORSDOF 9
ENDMDL
