MODEL 1
REMARK VINA RESULT: -9.946324524      0.000      0.000
REMARK  14 active torsions:
REMARK  status: ('A' for Active; 'I' for Inactive)
REMARK    1  A    between atoms: C2_2  and  C3_4 
REMARK    2  A    between atoms: C3_4  and  C4_5 
REMARK    3  A    between atoms: C4_5  and  C5_6 
REMARK    4  A    between atoms: C5_6  and  N1_7 
REMARK    5  A    between atoms: C5_6  and  C18_30 
REMARK    6  A    between atoms: N1_7  and  S1_9 
REMARK    7  A    between atoms: S1_9  and  N2_12 
REMARK    8  A    between atoms: N2_12  and  C6_14 
REMARK    9  A    between atoms: C9_17  and  O4_18 
REMARK   10  A    between atoms: C18_30  and  O5_31 
REMARK   11  A    between atoms: C18_30  and  C19_33 
REMARK   12  A    between atoms: C19_33  and  C20_34 
REMARK   13  A    between atoms: C20_34  and  C21_35 
REMARK   14  A    between atoms: C21_35  and  N4_36 
ROOT
HETATM    1  S1  UNL     1       0.951 -16.333 -22.260  1.00  0.00     0.315 S 
HETATM    2  O2  UNL     1       0.877 -17.324 -21.139  1.00  0.00    -0.183 OA
HETATM    3  O3  UNL     1       0.762 -14.974 -21.593  1.00  0.00    -0.183 OA
ENDROOT
BRANCH   1   4
HETATM    4  N1  UNL     1      -0.268 -16.500 -23.438  1.00  0.00    -0.296 N 
ATOM      5  H1  UNL     1      -0.071 -16.391 -24.433  1.00  0.00     0.174 HD
BRANCH   4   6
HETATM    6  C5  UNL     1      -1.575 -16.801 -22.964  1.00  0.00     0.123 C 
BRANCH   6   7
HETATM    7  C4  UNL     1      -2.633 -15.861 -23.433  1.00  0.00     0.036 C 
BRANCH   7   8
HETATM    8  C3  UNL     1      -3.058 -14.849 -22.431  1.00  0.00     0.080 C 
BRANCH   8   9
HETATM    9  C2  UNL     1      -4.045 -15.322 -21.444  1.00  0.00     0.123 C 
HETATM   10  C1  UNL     1      -5.330 -15.896 -22.000  1.00  0.00     0.091 C 
HETATM   11  O1  UNL     1      -3.911 -15.288 -20.252  1.00  0.00    -0.298 OA
ENDBRANCH   8   9
ENDBRANCH   7   8
ENDBRANCH   6   7
BRANCH   6  12
HETATM   12  C18 UNL     1      -1.940 -18.235 -23.390  1.00  0.00     0.141 C 
BRANCH  12  13
HETATM   13  O5  UNL     1      -0.723 -18.984 -23.152  1.00  0.00    -0.393 OA
ATOM     14  H5  UNL     1      -0.885 -19.817 -23.577  1.00  0.00     0.210 HD
ENDBRANCH  12  13
BRANCH  12  15
HETATM   15  C19 UNL     1      -2.994 -18.885 -22.581  1.00  0.00     0.035 C 
BRANCH  15  16
HETATM   16  C20 UNL     1      -4.159 -19.375 -23.357  1.00  0.00     0.022 C 
BRANCH  16  17
HETATM   17  C21 UNL     1      -4.499 -20.781 -22.762  1.00  0.00     0.122 C 
BRANCH  17  18
HETATM   18  N4  UNL     1      -4.563 -20.567 -21.316  1.00  0.00    -0.367 N 
HETATM   19  C22 UNL     1      -5.039 -21.487 -20.551  1.00  0.00     0.196 C 
HETATM   20  N5  UNL     1      -5.518 -22.730 -21.047  1.00  0.00    -0.067 NA
HETATM   21  N6  UNL     1      -5.086 -21.252 -19.158  1.00  0.00    -0.067 NA
ATOM     22  H4  UNL     1      -4.230 -19.690 -20.914  1.00  0.00     0.161 HD
ENDBRANCH  17  18
ENDBRANCH  16  17
ENDBRANCH  15  16
ENDBRANCH  12  15
ENDBRANCH   6  12
ENDBRANCH   4   6
ENDBRANCH   1   4
BRANCH   1  23
HETATM   23  N2  UNL     1       2.545 -16.378 -22.989  1.00  0.00    -0.298 N 
ATOM     24  H2  UNL     1       2.750 -16.085 -23.944  1.00  0.00     0.174 HD
BRANCH  23  25
HETATM   25  C6  UNL     1       3.542 -16.887 -22.054  1.00  0.00     0.096 C 
HETATM   26  C7  UNL     1       3.890 -15.831 -21.056  1.00  0.00     0.029 C 
HETATM   27  C8  UNL     1       5.358 -15.748 -20.721  1.00  0.00     0.042 C 
HETATM   28  C9  UNL     1       5.931 -17.149 -20.710  1.00  0.00     0.082 C 
HETATM   29  C10 UNL     1       7.301 -17.211 -20.094  1.00  0.00     0.024 C 
HETATM   30  C16 UNL     1       5.965 -17.628 -22.120  1.00  0.00     0.113 C 
HETATM   31  C11 UNL     1       7.745 -18.617 -19.944  1.00  0.00     0.008 C 
HETATM   32  C15 UNL     1       8.264 -16.370 -20.901  1.00  0.00     0.032 C 
HETATM   33  C12 UNL     1       8.846 -19.065 -20.838  1.00  0.00     0.002 C 
HETATM   34  C13 UNL     1       9.053 -18.324 -22.088  1.00  0.00     0.024 C 
HETATM   35  C14 UNL     1       8.322 -17.045 -22.255  1.00  0.00     0.077 C 
HETATM   36  N3  UNL     1       7.061 -17.133 -22.895  1.00  0.00    -0.410 N 
ATOM     37  H3  UNL     1       6.940 -16.855 -23.869  1.00  0.00     0.154 HD
HETATM   38  C17 UNL     1       4.709 -17.317 -22.893  1.00  0.00     0.053 C 
BRANCH  28  39
HETATM   39  O4  UNL     1       5.122 -18.006 -19.936  1.00  0.00    -0.387 OA
ATOM     40  H4  UNL     1       4.509 -18.473 -20.491  1.00  0.00     0.210 HD
ENDBRANCH  28  39
ENDBRANCH  23  25
ENDBRANCH   1  23
TORSDOF 14
ENDMDL
MODEL 2
REMARK VINA RESULT: -9.906679640      1.382      1.850
REMARK  14 active torsions:
REMARK  status: ('A' for Active; 'I' for Inactive)
REMARK    1  A    between atoms: C2_2  and  C3_4 
REMARK    2  A    between atoms: C3_4  and  C4_5 
REMARK    3  A    between atoms: C4_5  and  C5_6 
REMARK    4  A    between atoms: C5_6  and  N1_7 
REMARK    5  A    between atoms: C5_6  and  C18_30 
REMARK    6  A    between atoms: N1_7  and  S1_9 
REMARK    7  A    between atoms: S1_9  and  N2_12 
REMARK    8  A    between atoms: N2_12  and  C6_14 
REMARK    9  A    between atoms: C9_17  and  O4_18 
REMARK   10  A    between atoms: C18_30  and  O5_31 
REMARK   11  A    between atoms: C18_30  and  C19_33 
REMARK   12  A    between atoms: C19_33  and  C20_34 
REMARK   13  A    between atoms: C20_34  and  C21_35 
REMARK   14  A    between atoms: C21_35  and  N4_36 
ROOT
HETATM    1  S1  UNL     1       0.478 -16.550 -22.484  1.00  0.00     0.315 S 
HETATM    2  O2  UNL     1       0.508 -17.523 -21.343  1.00  0.00    -0.183 OA
HETATM    3  O3  UNL     1       0.487 -15.175 -21.824  1.00  0.00    -0.183 OA
ENDROOT
BRANCH   1   4
HETATM    4  N1  UNL     1      -0.917 -16.643 -23.458  1.00  0.00    -0.296 N 
ATOM      5  H1  UNL     1      -0.878 -16.484 -24.465  1.00  0.00     0.174 HD
BRANCH   4   6
HETATM    6  C5  UNL     1      -2.137 -16.954 -22.797  1.00  0.00     0.123 C 
BRANCH   6   7
HETATM    7  C4  UNL     1      -3.335 -16.269 -23.360  1.00  0.00     0.036 C 
BRANCH   7   8
HETATM    8  C3  UNL     1      -3.948 -15.250 -22.468  1.00  0.00     0.080 C 
BRANCH   8   9
HETATM    9  C2  UNL     1      -4.441 -15.761 -21.178  1.00  0.00     0.123 C 
HETATM   10  C1  UNL     1      -5.632 -16.693 -21.235  1.00  0.00     0.091 C 
HETATM   11  O1  UNL     1      -3.979 -15.502 -20.101  1.00  0.00    -0.298 OA
ENDBRANCH   8   9
ENDBRANCH   7   8
ENDBRANCH   6   7
BRANCH   6  12
HETATM   12  C18 UNL     1      -2.351 -18.478 -22.842  1.00  0.00     0.141 C 
BRANCH  12  13
HETATM   13  O5  UNL     1      -2.331 -18.870 -21.448  1.00  0.00    -0.393 OA
ATOM     14  H5  UNL     1      -2.078 -19.785 -21.474  1.00  0.00     0.210 HD
ENDBRANCH  12  13
BRANCH  12  15
HETATM   15  C19 UNL     1      -3.657 -18.917 -23.379  1.00  0.00     0.035 C 
BRANCH  15  16
HETATM   16  C20 UNL     1      -3.947 -20.361 -23.207  1.00  0.00     0.022 C 
BRANCH  16  17
HETATM   17  C21 UNL     1      -5.355 -20.430 -22.529  1.00  0.00     0.122 C 
BRANCH  17  18
HETATM   18  N4  UNL     1      -5.077 -20.417 -21.093  1.00  0.00    -0.367 N 
HETATM   19  C22 UNL     1      -5.155 -21.509 -20.414  1.00  0.00     0.196 C 
HETATM   20  N5  UNL     1      -5.506 -22.757 -20.998  1.00  0.00    -0.067 NA
HETATM   21  N6  UNL     1      -4.879 -21.465 -19.028  1.00  0.00    -0.067 NA
ATOM     22  H4  UNL     1      -4.821 -19.545 -20.630  1.00  0.00     0.161 HD
ENDBRANCH  17  18
ENDBRANCH  16  17
ENDBRANCH  15  16
ENDBRANCH  12  15
ENDBRANCH   6  12
ENDBRANCH   4   6
ENDBRANCH   1   4
BRANCH   1  23
HETATM   23  N2  UNL     1       1.934 -16.716 -23.445  1.00  0.00    -0.298 N 
ATOM     24  H2  UNL     1       1.999 -17.267 -24.301  1.00  0.00     0.174 HD
BRANCH  23  25
HETATM   25  C6  UNL     1       3.041 -15.966 -22.865  1.00  0.00     0.096 C 
HETATM   26  C7  UNL     1       3.877 -15.370 -23.950  1.00  0.00     0.029 C 
HETATM   27  C8  UNL     1       5.364 -15.442 -23.705  1.00  0.00     0.042 C 
HETATM   28  C9  UNL     1       5.620 -15.239 -22.227  1.00  0.00     0.082 C 
HETATM   29  C10 UNL     1       7.070 -14.988 -21.918  1.00  0.00     0.024 C 
HETATM   30  C16 UNL     1       5.132 -16.455 -21.518  1.00  0.00     0.113 C 
HETATM   31  C11 UNL     1       7.246 -14.621 -20.493  1.00  0.00     0.008 C 
HETATM   32  C15 UNL     1       7.895 -16.187 -22.326  1.00  0.00     0.032 C 
HETATM   33  C12 UNL     1       7.915 -15.626 -19.626  1.00  0.00     0.002 C 
HETATM   34  C13 UNL     1       7.883 -17.029 -20.058  1.00  0.00     0.024 C 
HETATM   35  C14 UNL     1       7.408 -17.310 -21.435  1.00  0.00     0.077 C 
HETATM   36  N3  UNL     1       6.022 -17.575 -21.568  1.00  0.00    -0.410 N 
ATOM     37  H3  UNL     1       5.673 -18.524 -21.695  1.00  0.00     0.154 HD
HETATM   38  C17 UNL     1       3.792 -16.941 -22.006  1.00  0.00     0.053 C 
BRANCH  28  39
HETATM   39  O4  UNL     1       4.925 -14.105 -21.758  1.00  0.00    -0.387 OA
ATOM     40  H4  UNL     1       4.471 -14.306 -20.949  1.00  0.00     0.210 HD
ENDBRANCH  28  39
ENDBRANCH  23  25
ENDBRANCH   1  23
TORSDOF 14
ENDMDL
MODEL 3
REMARK VINA RESULT: -9.860494189      0.915      1.186
REMARK  14 active torsions:
REMARK  status: ('A' for Active; 'I' for Inactive)
REMARK    1  A    between atoms: C2_2  and  C3_4 
REMARK    2  A    between atoms: C3_4  and  C4_5 
REMARK    3  A    between atoms: C4_5  and  C5_6 
REMARK    4  A    between atoms: C5_6  and  N1_7 
REMARK    5  A    between atoms: C5_6  and  C18_30 
REMARK    6  A    between atoms: N1_7  and  S1_9 
REMARK    7  A    between atoms: S1_9  and  N2_12 
REMARK    8  A    between atoms: N2_12  and  C6_14 
REMARK    9  A    between atoms: C9_17  and  O4_18 
REMARK   10  A    between atoms: C18_30  and  O5_31 
REMARK   11  A    between atoms: C18_30  and  C19_33 
REMARK   12  A    between atoms: C19_33  and  C20_34 
REMARK   13  A    between atoms: C20_34  and  C21_35 
REMARK   14  A    between atoms: C21_35  and  N4_36 
ROOT
HETATM    1  S1  UNL     1       1.009 -16.337 -22.416  1.00  0.00     0.315 S 
HETATM    2  O2  UNL     1       1.005 -17.343 -21.304  1.00  0.00    -0.183 OA
HETATM    3  O3  UNL     1       0.938 -14.983 -21.716  1.00  0.00    -0.183 OA
ENDROOT
BRANCH   1   4
HETATM    4  N1  UNL     1      -0.325 -16.440 -23.471  1.00  0.00    -0.296 N 
ATOM      5  H1  UNL     1      -0.235 -16.249 -24.469  1.00  0.00     0.174 HD
BRANCH   4   6
HETATM    6  C5  UNL     1      -1.571 -16.804 -22.889  1.00  0.00     0.123 C 
BRANCH   6   7
HETATM    7  C4  UNL     1      -2.701 -15.895 -23.233  1.00  0.00     0.036 C 
BRANCH   7   8
HETATM    8  C3  UNL     1      -3.112 -14.970 -22.144  1.00  0.00     0.080 C 
BRANCH   8   9
HETATM    9  C2  UNL     1      -4.123 -15.505 -21.217  1.00  0.00     0.123 C 
HETATM   10  C1  UNL     1      -5.389 -16.051 -21.842  1.00  0.00     0.091 C 
HETATM   11  O1  UNL     1      -4.023 -15.543 -20.021  1.00  0.00    -0.298 OA
ENDBRANCH   8   9
ENDBRANCH   7   8
ENDBRANCH   6   7
BRANCH   6  12
HETATM   12  C18 UNL     1      -1.920 -18.240 -23.322  1.00  0.00     0.141 C 
BRANCH  12  13
HETATM   13  O5  UNL     1      -0.689 -18.972 -23.109  1.00  0.00    -0.393 OA
ATOM     14  H5  UNL     1      -0.180 -18.790 -23.890  1.00  0.00     0.210 HD
ENDBRANCH  12  13
BRANCH  12  15
HETATM   15  C19 UNL     1      -2.952 -18.913 -22.505  1.00  0.00     0.035 C 
BRANCH  15  16
HETATM   16  C20 UNL     1      -3.839 -19.832 -23.258  1.00  0.00     0.022 C 
BRANCH  16  17
HETATM   17  C21 UNL     1      -5.210 -19.804 -22.505  1.00  0.00     0.122 C 
BRANCH  17  18
HETATM   18  N4  UNL     1      -5.539 -21.212 -22.281  1.00  0.00    -0.367 N 
HETATM   19  C22 UNL     1      -5.560 -21.684 -21.082  1.00  0.00     0.196 C 
HETATM   20  N5  UNL     1      -5.274 -20.892 -19.937  1.00  0.00    -0.067 NA
HETATM   21  N6  UNL     1      -5.883 -23.047 -20.897  1.00  0.00    -0.067 NA
ATOM     22  H4  UNL     1      -5.753 -21.819 -23.072  1.00  0.00     0.161 HD
ENDBRANCH  17  18
ENDBRANCH  16  17
ENDBRANCH  15  16
ENDBRANCH  12  15
ENDBRANCH   6  12
ENDBRANCH   4   6
ENDBRANCH   1   4
BRANCH   1  23
HETATM   23  N2  UNL     1       2.521 -16.431 -23.297  1.00  0.00    -0.298 N 
ATOM     24  H2  UNL     1       2.592 -16.559 -24.306  1.00  0.00     0.174 HD
BRANCH  23  25
HETATM   25  C6  UNL     1       3.665 -16.301 -22.402  1.00  0.00     0.096 C 
HETATM   26  C7  UNL     1       4.513 -15.145 -22.824  1.00  0.00     0.029 C 
HETATM   27  C8  UNL     1       5.998 -15.400 -22.748  1.00  0.00     0.042 C 
HETATM   28  C9  UNL     1       6.279 -16.261 -21.535  1.00  0.00     0.082 C 
HETATM   29  C10 UNL     1       7.741 -16.322 -21.191  1.00  0.00     0.024 C 
HETATM   30  C16 UNL     1       5.748 -17.623 -21.822  1.00  0.00     0.113 C 
HETATM   31  C11 UNL     1       7.949 -17.025 -19.903  1.00  0.00     0.008 C 
HETATM   32  C15 UNL     1       8.511 -16.943 -22.334  1.00  0.00     0.032 C 
HETATM   33  C12 UNL     1       8.583 -18.367 -19.974  1.00  0.00     0.002 C 
HETATM   34  C13 UNL     1       8.488 -19.101 -21.242  1.00  0.00     0.024 C 
HETATM   35  C14 UNL     1       7.987 -18.360 -22.425  1.00  0.00     0.077 C 
HETATM   36  N3  UNL     1       6.590 -18.431 -22.652  1.00  0.00    -0.410 N 
ATOM     37  H3  UNL     1       6.200 -19.033 -23.377  1.00  0.00     0.154 HD
HETATM   38  C17 UNL     1       4.384 -17.616 -22.462  1.00  0.00     0.053 C 
BRANCH  28  39
HETATM   39  O4  UNL     1       5.637 -15.733 -20.396  1.00  0.00    -0.387 OA
ATOM     40  H4  UNL     1       6.034 -16.073 -19.604  1.00  0.00     0.210 HD
ENDBRANCH  28  39
ENDBRANCH  23  25
ENDBRANCH   1  23
TORSDOF 14
ENDMDL
MODEL 4
REMARK VINA RESULT: -9.633239705      2.278      3.037
REMARK  14 active torsions:
REMARK  status: ('A' for Active; 'I' for Inactive)
REMARK    1  A    between atoms: C2_2  and  C3_4 
REMARK    2  A    between atoms: C3_4  and  C4_5 
REMARK    3  A    between atoms: C4_5  and  C5_6 
REMARK    4  A    between atoms: C5_6  and  N1_7 
REMARK    5  A    between atoms: C5_6  and  C18_30 
REMARK    6  A    between atoms: N1_7  and  S1_9 
REMARK    7  A    between atoms: S1_9  and  N2_12 
REMARK    8  A    between atoms: N2_12  and  C6_14 
REMARK    9  A    between atoms: C9_17  and  O4_18 
REMARK   10  A    between atoms: C18_30  and  O5_31 
REMARK   11  A    between atoms: C18_30  and  C19_33 
REMARK   12  A    between atoms: C19_33  and  C20_34 
REMARK   13  A    between atoms: C20_34  and  C21_35 
REMARK   14  A    between atoms: C21_35  and  N4_36 
ROOT
HETATM    1  S1  UNL     1       0.686 -16.476 -22.479  1.00  0.00     0.315 S 
HETATM    2  O2  UNL     1       0.754 -17.430 -21.325  1.00  0.00    -0.183 OA
HETATM    3  O3  UNL     1       0.724 -15.090 -21.842  1.00  0.00    -0.183 OA
ENDROOT
BRANCH   1   4
HETATM    4  N1  UNL     1      -0.744 -16.578 -23.400  1.00  0.00    -0.296 N 
ATOM      5  H1  UNL     1      -0.744 -16.417 -24.408  1.00  0.00     0.174 HD
BRANCH   4   6
HETATM    6  C5  UNL     1      -1.936 -16.900 -22.694  1.00  0.00     0.123 C 
BRANCH   6   7
HETATM    7  C4  UNL     1      -3.150 -16.180 -23.174  1.00  0.00     0.036 C 
BRANCH   7   8
HETATM    8  C3  UNL     1      -3.684 -15.160 -22.234  1.00  0.00     0.080 C 
BRANCH   8   9
HETATM    9  C2  UNL     1      -4.291 -15.699 -21.005  1.00  0.00     0.123 C 
HETATM   10  C1  UNL     1      -5.446 -16.660 -21.190  1.00  0.00     0.091 C 
HETATM   11  O1  UNL     1      -3.947 -15.441 -19.884  1.00  0.00    -0.298 OA
ENDBRANCH   8   9
ENDBRANCH   7   8
ENDBRANCH   6   7
BRANCH   6  12
HETATM   12  C18 UNL     1      -2.172 -18.418 -22.784  1.00  0.00     0.141 C 
BRANCH  12  13
HETATM   13  O5  UNL     1      -2.132 -18.855 -21.404  1.00  0.00    -0.393 OA
ATOM     14  H5  UNL     1      -3.030 -18.759 -21.111  1.00  0.00     0.210 HD
ENDBRANCH  12  13
BRANCH  12  15
HETATM   15  C19 UNL     1      -3.494 -18.821 -23.310  1.00  0.00     0.035 C 
BRANCH  15  16
HETATM   16  C20 UNL     1      -3.781 -20.274 -23.224  1.00  0.00     0.022 C 
BRANCH  16  17
HETATM   17  C21 UNL     1      -5.207 -20.384 -22.591  1.00  0.00     0.122 C 
BRANCH  17  18
HETATM   18  N4  UNL     1      -4.973 -20.388 -21.147  1.00  0.00    -0.367 N 
HETATM   19  C22 UNL     1      -5.122 -21.476 -20.475  1.00  0.00     0.196 C 
HETATM   20  N5  UNL     1      -5.513 -22.705 -21.075  1.00  0.00    -0.067 NA
HETATM   21  N6  UNL     1      -4.887 -21.449 -19.082  1.00  0.00    -0.067 NA
ATOM     22  H4  UNL     1      -4.691 -19.530 -20.673  1.00  0.00     0.161 HD
ENDBRANCH  17  18
ENDBRANCH  16  17
ENDBRANCH  15  16
ENDBRANCH  12  15
ENDBRANCH   6  12
ENDBRANCH   4   6
ENDBRANCH   1   4
BRANCH   1  23
HETATM   23  N2  UNL     1       2.105 -16.664 -23.490  1.00  0.00    -0.298 N 
ATOM     24  H2  UNL     1       2.329 -17.508 -24.017  1.00  0.00     0.174 HD
BRANCH  23  25
HETATM   25  C6  UNL     1       2.926 -15.459 -23.482  1.00  0.00     0.096 C 
HETATM   26  C7  UNL     1       3.088 -14.943 -24.875  1.00  0.00     0.029 C 
HETATM   27  C8  UNL     1       4.475 -14.447 -25.199  1.00  0.00     0.042 C 
HETATM   28  C9  UNL     1       5.046 -13.769 -23.971  1.00  0.00     0.082 C 
HETATM   29  C10 UNL     1       6.287 -12.976 -24.269  1.00  0.00     0.024 C 
HETATM   30  C16 UNL     1       5.328 -14.832 -22.966  1.00  0.00     0.113 C 
HETATM   31  C11 UNL     1       6.707 -12.193 -23.083  1.00  0.00     0.008 C 
HETATM   32  C15 UNL     1       7.371 -13.896 -24.783  1.00  0.00     0.032 C 
HETATM   33  C12 UNL     1       7.948 -12.638 -22.398  1.00  0.00     0.002 C 
HETATM   34  C13 UNL     1       8.367 -14.033 -22.583  1.00  0.00     0.024 C 
HETATM   35  C14 UNL     1       7.669 -14.824 -23.625  1.00  0.00     0.077 C 
HETATM   36  N3  UNL     1       6.540 -15.560 -23.188  1.00  0.00    -0.410 N 
ATOM     37  H3  UNL     1       6.589 -16.568 -23.038  1.00  0.00     0.154 HD
HETATM   38  C17 UNL     1       4.224 -15.851 -22.840  1.00  0.00     0.053 C 
BRANCH  28  39
HETATM   39  O4  UNL     1       4.118 -12.849 -23.441  1.00  0.00    -0.387 OA
ATOM     40  H4  UNL     1       3.662 -12.398 -24.142  1.00  0.00     0.210 HD
ENDBRANCH  28  39
ENDBRANCH  23  25
ENDBRANCH   1  23
TORSDOF 14
ENDMDL
MODEL 5
REMARK VINA RESULT: -9.568133261      1.476      2.171
REMARK  14 active torsions:
REMARK  status: ('A' for Active; 'I' for Inactive)
REMARK    1  A    between atoms: C2_2  and  C3_4 
REMARK    2  A    between atoms: C3_4  and  C4_5 
REMARK    3  A    between atoms: C4_5  and  C5_6 
REMARK    4  A    between atoms: C5_6  and  N1_7 
REMARK    5  A    between atoms: C5_6  and  C18_30 
REMARK    6  A    between atoms: N1_7  and  S1_9 
REMARK    7  A    between atoms: S1_9  and  N2_12 
REMARK    8  A    between atoms: N2_12  and  C6_14 
REMARK    9  A    between atoms: C9_17  and  O4_18 
REMARK   10  A    between atoms: C18_30  and  O5_31 
REMARK   11  A    between atoms: C18_30  and  C19_33 
REMARK   12  A    between atoms: C19_33  and  C20_34 
REMARK   13  A    between atoms: C20_34  and  C21_35 
REMARK   14  A    between atoms: C21_35  and  N4_36 
ROOT
HETATM    1  S1  UNL     1       1.435 -15.824 -22.634  1.00  0.00     0.315 S 
HETATM    2  O2  UNL     1       0.946 -14.753 -21.706  1.00  0.00    -0.183 OA
HETATM    3  O3  UNL     1       2.157 -15.074 -23.749  1.00  0.00    -0.183 OA
ENDROOT
BRANCH   1   4
HETATM    4  N1  UNL     1       0.202 -16.754 -23.356  1.00  0.00    -0.296 N 
ATOM      5  H1  UNL     1       0.356 -17.263 -24.226  1.00  0.00     0.174 HD
BRANCH   4   6
HETATM    6  C5  UNL     1      -1.051 -16.783 -22.683  1.00  0.00     0.123 C 
BRANCH   6   7
HETATM    7  C4  UNL     1      -2.128 -16.000 -23.353  1.00  0.00     0.036 C 
BRANCH   7   8
HETATM    8  C3  UNL     1      -2.763 -14.959 -22.503  1.00  0.00     0.080 C 
BRANCH   8   9
HETATM    9  C2  UNL     1      -3.857 -15.437 -21.640  1.00  0.00     0.123 C 
HETATM   10  C1  UNL     1      -5.255 -15.343 -22.211  1.00  0.00     0.091 C 
HETATM   11  O1  UNL     1      -3.727 -15.890 -20.535  1.00  0.00    -0.298 OA
ENDBRANCH   8   9
ENDBRANCH   7   8
ENDBRANCH   6   7
BRANCH   6  12
HETATM   12  C18 UNL     1      -1.500 -18.248 -22.535  1.00  0.00     0.141 C 
BRANCH  12  13
HETATM   13  O5  UNL     1      -1.828 -18.367 -21.130  1.00  0.00    -0.393 OA
ATOM     14  H5  UNL     1      -2.764 -18.529 -21.130  1.00  0.00     0.210 HD
ENDBRANCH  12  13
BRANCH  12  15
HETATM   15  C19 UNL     1      -2.724 -18.612 -23.281  1.00  0.00     0.035 C 
BRANCH  15  16
HETATM   16  C20 UNL     1      -3.825 -19.149 -22.445  1.00  0.00     0.022 C 
BRANCH  16  17
HETATM   17  C21 UNL     1      -4.166 -20.551 -23.050  1.00  0.00     0.122 C 
BRANCH  17  18
HETATM   18  N4  UNL     1      -5.601 -20.716 -22.818  1.00  0.00    -0.367 N 
HETATM   19  C22 UNL     1      -6.018 -21.594 -21.973  1.00  0.00     0.196 C 
HETATM   20  N5  UNL     1      -5.138 -22.433 -21.235  1.00  0.00    -0.067 NA
HETATM   21  N6  UNL     1      -7.410 -21.729 -21.768  1.00  0.00    -0.067 NA
ATOM     22  H4  UNL     1      -6.270 -20.137 -23.324  1.00  0.00     0.161 HD
ENDBRANCH  17  18
ENDBRANCH  16  17
ENDBRANCH  15  16
ENDBRANCH  12  15
ENDBRANCH   6  12
ENDBRANCH   4   6
ENDBRANCH   1   4
BRANCH   1  23
HETATM   23  N2  UNL     1       2.594 -16.844 -21.806  1.00  0.00    -0.298 N 
ATOM     24  H2  UNL     1       2.345 -17.582 -21.147  1.00  0.00     0.174 HD
BRANCH  23  25
HETATM   25  C6  UNL     1       3.962 -16.504 -22.179  1.00  0.00     0.096 C 
HETATM   26  C7  UNL     1       4.576 -17.630 -22.946  1.00  0.00     0.029 C 
HETATM   27  C8  UNL     1       6.013 -17.919 -22.589  1.00  0.00     0.042 C 
HETATM   28  C9  UNL     1       6.712 -16.607 -22.301  1.00  0.00     0.082 C 
HETATM   29  C10 UNL     1       8.207 -16.748 -22.235  1.00  0.00     0.024 C 
HETATM   30  C16 UNL     1       6.174 -16.089 -21.013  1.00  0.00     0.113 C 
HETATM   31  C11 UNL     1       8.855 -15.420 -22.129  1.00  0.00     0.008 C 
HETATM   32  C15 UNL     1       8.584 -17.682 -21.107  1.00  0.00     0.032 C 
HETATM   33  C12 UNL     1       9.487 -15.091 -20.824  1.00  0.00     0.002 C 
HETATM   34  C13 UNL     1       9.011 -15.810 -19.636  1.00  0.00     0.024 C 
HETATM   35  C14 UNL     1       8.119 -16.975 -19.852  1.00  0.00     0.077 C 
HETATM   36  N3  UNL     1       6.729 -16.699 -19.843  1.00  0.00    -0.410 N 
ATOM     37  H3  UNL     1       6.149 -16.925 -19.036  1.00  0.00     0.154 HD
HETATM   38  C17 UNL     1       4.676 -16.204 -20.894  1.00  0.00     0.053 C 
BRANCH  28  39
HETATM   39  O4  UNL     1       6.457 -15.678 -23.330  1.00  0.00    -0.387 OA
ATOM     40  H4  UNL     1       6.300 -16.128 -24.152  1.00  0.00     0.210 HD
ENDBRANCH  28  39
ENDBRANCH  23  25
ENDBRANCH   1  23
TORSDOF 14
ENDMDL
