MODEL 1
REMARK VINA RESULT: -7.106558599      0.000      0.000
REMARK  7 active torsions:
REMARK  status: ('A' for Active; 'I' for Inactive)
REMARK    1  A    between atoms: C5_6  and  C6_7 
REMARK    2  A    between atoms: C6_7  and  S1_8 
REMARK    3  A    between atoms: S1_8  and  C7_9 
REMARK    4  A    between atoms: C11_16  and  C12_17 
REMARK    5  A    between atoms: C12_17  and  O2_18 
REMARK    6  A    between atoms: O2_18  and  C13_19 
REMARK    7  A    between atoms: C13_19  and  C14_23 
ROOT
HETATM    1  C1  UNL     1      -1.435  18.840  24.180  1.00  0.00     0.052 C 
HETATM    2  C2  UNL     1       0.000  18.678  23.865  1.00  0.00    -0.010 A 
HETATM    3  C3  UNL     1       0.890  19.744  23.935  1.00  0.00     0.151 A 
HETATM    4  O1  UNL     1       2.058  19.285  23.628  1.00  0.00    -0.319 OA
HETATM    5  C4  UNL     1       1.993  17.968  23.352  1.00  0.00     0.110 A 
HETATM    6  C5  UNL     1       2.959  17.065  22.986  1.00  0.00     0.001 A 
HETATM    7  C11 UNL     1       2.647  15.744  22.748  1.00  0.00     0.032 A 
HETATM    8  C18 UNL     1       1.337  15.386  22.899  1.00  0.00     0.198 A 
HETATM    9  F1  UNL     1       0.918  14.092  22.699  1.00  0.00    -0.185 F 
HETATM   10  N3  UNL     1       0.378  16.251  23.261  1.00  0.00    -0.330 N 
ATOM     11  H3  UNL     1      -0.585  15.931  23.362  1.00  0.00     0.168 HD
HETATM   12  C19 UNL     1       0.695  17.567  23.497  1.00  0.00     0.077 A 
ENDROOT
BRANCH   7  13
HETATM   13  C12 UNL     1       3.678  14.795  22.342  1.00  0.00     0.221 C 
BRANCH  13  14
HETATM   14  O2  UNL     1       4.539  14.400  23.419  1.00  0.00    -0.334 OA
BRANCH  14  15
HETATM   15  C13 UNL     1       5.803  13.840  22.981  1.00  0.00     0.119 C 
HETATM   16  N2  UNL     1       6.653  14.717  22.673  1.00  0.00    -0.383 N 
ATOM     17  H22 UNL     1       6.521  15.728  22.714  1.00  0.00     0.158 HD
ATOM     18  H21 UNL     1       7.542  14.324  22.366  1.00  0.00     0.158 HD
BRANCH  15  19
HETATM   19  C14 UNL     1       5.992  12.398  22.923  1.00  0.00     0.013 C 
HETATM   20  C15 UNL     1       5.658  11.809  21.589  1.00  0.00     0.023 C 
HETATM   21  C16 UNL     1       5.252  11.701  24.002  1.00  0.00     0.023 C 
HETATM   22  C17 UNL     1       7.521  12.192  23.087  1.00  0.00     0.023 C 
ENDBRANCH  15  19
ENDBRANCH  14  15
ENDBRANCH  13  14
ENDBRANCH   7  13
BRANCH   6  23
HETATM   23  C6  UNL     1       4.267  17.661  22.688  1.00  0.00     0.123 C 
BRANCH  23  24
HETATM   24  S1  UNL     1       5.253  17.909  24.156  1.00  0.00    -0.101 SA
BRANCH  24  25
HETATM   25  C7  UNL     1       4.834  19.484  24.895  1.00  0.00     0.104 C 
HETATM   26  N1  UNL     1       4.635  20.512  24.220  1.00  0.00    -0.374 N 
HETATM   27  C8  UNL     1       4.332  21.721  24.829  1.00  0.00     0.088 C 
ATOM     28  H1  UNL     1       4.695  20.464  23.203  1.00  0.00     0.161 HD
HETATM   29  C9  UNL     1       5.707  22.284  25.283  1.00  0.00     0.033 C 
HETATM   30  C10 UNL     1       3.570  21.455  26.157  1.00  0.00     0.106 C 
HETATM   31  S2  UNL     1       4.594  19.973  26.596  1.00  0.00    -0.103 SA
ENDBRANCH  24  25
ENDBRANCH  23  24
ENDBRANCH   6  23
TORSDOF 7
ENDMDL
MODEL 2
REMARK VINA RESULT: -7.033322303      2.499      4.068
REMARK  7 active torsions:
REMARK  status: ('A' for Active; 'I' for Inactive)
REMARK    1  A    between atoms: C5_6  and  C6_7 
REMARK    2  A    between atoms: C6_7  and  S1_8 
REMARK    3  A    between atoms: S1_8  and  C7_9 
REMARK    4  A    between atoms: C11_16  and  C12_17 
REMARK    5  A    between atoms: C12_17  and  O2_18 
REMARK    6  A    between atoms: O2_18  and  C13_19 
REMARK    7  A    between atoms: C13_19  and  C14_23 
ROOT
HETATM    1  C1  UNL     1       6.158  22.157  25.643  1.00  0.00     0.052 C 
HETATM    2  C2  UNL     1       4.995  21.246  25.575  1.00  0.00    -0.010 A 
HETATM    3  C3  UNL     1       3.789  21.553  26.195  1.00  0.00     0.151 A 
HETATM    4  O1  UNL     1       2.973  20.584  25.938  1.00  0.00    -0.319 OA
HETATM    5  C4  UNL     1       3.574  19.644  25.183  1.00  0.00     0.110 A 
HETATM    6  C5  UNL     1       3.116  18.458  24.669  1.00  0.00     0.001 A 
HETATM    7  C11 UNL     1       3.933  17.644  23.914  1.00  0.00     0.032 A 
HETATM    8  C18 UNL     1       5.210  18.083  23.704  1.00  0.00     0.198 A 
HETATM    9  F1  UNL     1       6.105  17.356  22.955  1.00  0.00    -0.185 F 
HETATM   10  N3  UNL     1       5.677  19.241  24.192  1.00  0.00    -0.330 N 
ATOM     11  H3  UNL     1       6.639  19.523  24.004  1.00  0.00     0.168 HD
HETATM   12  C19 UNL     1       4.857  20.048  24.945  1.00  0.00     0.077 A 
ENDROOT
BRANCH   7  13
HETATM   13  C12 UNL     1       3.442  16.376  23.386  1.00  0.00     0.221 C 
BRANCH  13  14
HETATM   14  O2  UNL     1       4.230  15.250  23.796  1.00  0.00    -0.334 OA
BRANCH  14  15
HETATM   15  C13 UNL     1       4.271  14.179  22.818  1.00  0.00     0.119 C 
HETATM   16  N2  UNL     1       3.380  14.282  21.934  1.00  0.00    -0.383 N 
ATOM     17  H22 UNL     1       2.682  15.021  21.862  1.00  0.00     0.158 HD
ATOM     18  H21 UNL     1       3.409  13.529  21.246  1.00  0.00     0.158 HD
BRANCH  15  19
HETATM   19  C14 UNL     1       5.267  13.122  22.921  1.00  0.00     0.013 C 
HETATM   20  C15 UNL     1       5.361  12.275  21.693  1.00  0.00     0.023 C 
HETATM   21  C16 UNL     1       5.053  12.279  24.122  1.00  0.00     0.023 C 
HETATM   22  C17 UNL     1       6.625  13.865  23.009  1.00  0.00     0.023 C 
ENDBRANCH  15  19
ENDBRANCH  14  15
ENDBRANCH  13  14
ENDBRANCH   7  13
BRANCH   6  23
HETATM   23  C6  UNL     1       1.788  18.058  25.152  1.00  0.00     0.123 C 
BRANCH  23  24
HETATM   24  S1  UNL     1       0.482  18.562  24.044  1.00  0.00    -0.101 SA
BRANCH  24  25
HETATM   25  C7  UNL     1       0.769  20.246  23.510  1.00  0.00     0.104 C 
HETATM   26  N1  UNL     1       1.286  20.525  22.412  1.00  0.00    -0.374 N 
HETATM   27  C8  UNL     1       1.513  21.842  22.041  1.00  0.00     0.088 C 
ATOM     28  H1  UNL     1       1.547  19.772  21.775  1.00  0.00     0.161 HD
HETATM   29  C9  UNL     1       2.834  22.229  22.762  1.00  0.00     0.033 C 
HETATM   30  C10 UNL     1       0.439  22.756  22.694  1.00  0.00     0.106 C 
HETATM   31  S2  UNL     1       0.426  21.815  24.292  1.00  0.00    -0.103 SA
ENDBRANCH  24  25
ENDBRANCH  23  24
ENDBRANCH   6  23
TORSDOF 7
ENDMDL
MODEL 3
REMARK VINA RESULT: -6.924967558      2.753      4.157
REMARK  7 active torsions:
REMARK  status: ('A' for Active; 'I' for Inactive)
REMARK    1  A    between atoms: C5_6  and  C6_7 
REMARK    2  A    between atoms: C6_7  and  S1_8 
REMARK    3  A    between atoms: S1_8  and  C7_9 
REMARK    4  A    between atoms: C11_16  and  C12_17 
REMARK    5  A    between atoms: C12_17  and  O2_18 
REMARK    6  A    between atoms: O2_18  and  C13_19 
REMARK    7  A    between atoms: C13_19  and  C14_23 
ROOT
HETATM    1  C1  UNL     1       6.063  22.183  25.001  1.00  0.00     0.052 C 
HETATM    2  C2  UNL     1       4.927  21.239  25.061  1.00  0.00    -0.010 A 
HETATM    3  C3  UNL     1       3.729  21.574  25.683  1.00  0.00     0.151 A 
HETATM    4  O1  UNL     1       2.936  20.562  25.550  1.00  0.00    -0.319 OA
HETATM    5  C4  UNL     1       3.545  19.567  24.877  1.00  0.00     0.110 A 
HETATM    6  C5  UNL     1       3.109  18.322  24.499  1.00  0.00     0.001 A 
HETATM    7  C11 UNL     1       3.929  17.459  23.806  1.00  0.00     0.032 A 
HETATM    8  C18 UNL     1       5.185  17.908  23.514  1.00  0.00     0.198 A 
HETATM    9  F1  UNL     1       6.081  17.133  22.815  1.00  0.00    -0.185 F 
HETATM   10  N3  UNL     1       5.631  19.123  23.867  1.00  0.00    -0.330 N 
ATOM     11  H3  UNL     1       6.578  19.410  23.623  1.00  0.00     0.168 HD
HETATM   12  C19 UNL     1       4.808  19.979  24.559  1.00  0.00     0.077 A 
ENDROOT
BRANCH   7  13
HETATM   13  C12 UNL     1       3.462  16.131  23.424  1.00  0.00     0.221 C 
BRANCH  13  14
HETATM   14  O2  UNL     1       4.381  15.086  23.773  1.00  0.00    -0.334 OA
BRANCH  14  15
HETATM   15  C13 UNL     1       4.400  13.985  22.829  1.00  0.00     0.119 C 
HETATM   16  N2  UNL     1       3.529  14.093  21.925  1.00  0.00    -0.383 N 
ATOM     17  H22 UNL     1       2.860  14.855  21.818  1.00  0.00     0.158 HD
ATOM     18  H21 UNL     1       3.542  13.319  21.261  1.00  0.00     0.158 HD
BRANCH  15  19
HETATM   19  C14 UNL     1       5.354  12.897  22.981  1.00  0.00     0.013 C 
HETATM   20  C15 UNL     1       5.448  12.017  21.776  1.00  0.00     0.023 C 
HETATM   21  C16 UNL     1       5.082  12.091  24.196  1.00  0.00     0.023 C 
HETATM   22  C17 UNL     1       6.736  13.593  23.085  1.00  0.00     0.023 C 
ENDBRANCH  15  19
ENDBRANCH  14  15
ENDBRANCH  13  14
ENDBRANCH   7  13
BRANCH   6  23
HETATM   23  C6  UNL     1       1.807  17.938  25.060  1.00  0.00     0.123 C 
BRANCH  23  24
HETATM   24  S1  UNL     1       1.878  17.679  26.825  1.00  0.00    -0.101 SA
BRANCH  24  25
HETATM   25  C7  UNL     1       1.020  19.010  27.658  1.00  0.00     0.104 C 
HETATM   26  N1  UNL     1       0.325  19.846  27.050  1.00  0.00    -0.374 N 
HETATM   27  C8  UNL     1      -0.310  20.877  27.726  1.00  0.00     0.088 C 
ATOM     28  H1  UNL     1       0.220  19.771  26.038  1.00  0.00     0.161 HD
HETATM   29  C9  UNL     1       0.797  21.947  27.935  1.00  0.00     0.033 C 
HETATM   30  C10 UNL     1      -0.666  20.410  29.165  1.00  0.00     0.106 C 
HETATM   31  S2  UNL     1       0.910  19.458  29.384  1.00  0.00    -0.103 SA
ENDBRANCH  24  25
ENDBRANCH  23  24
ENDBRANCH   6  23
TORSDOF 7
ENDMDL
MODEL 4
REMARK VINA RESULT: -6.810532724      2.568      4.018
REMARK  7 active torsions:
REMARK  status: ('A' for Active; 'I' for Inactive)
REMARK    1  A    between atoms: C5_6  and  C6_7 
REMARK    2  A    between atoms: C6_7  and  S1_8 
REMARK    3  A    between atoms: S1_8  and  C7_9 
REMARK    4  A    between atoms: C11_16  and  C12_17 
REMARK    5  A    between atoms: C12_17  and  O2_18 
REMARK    6  A    between atoms: O2_18  and  C13_19 
REMARK    7  A    between atoms: C13_19  and  C14_23 
ROOT
HETATM    1  C1  UNL     1       5.496  22.421  25.030  1.00  0.00     0.052 C 
HETATM    2  C2  UNL     1       4.377  21.599  24.521  1.00  0.00    -0.010 A 
HETATM    3  C3  UNL     1       3.132  22.150  24.240  1.00  0.00     0.151 A 
HETATM    4  O1  UNL     1       2.385  21.195  23.796  1.00  0.00    -0.319 OA
HETATM    5  C4  UNL     1       3.065  20.032  23.771  1.00  0.00     0.110 A 
HETATM    6  C5  UNL     1       2.697  18.769  23.383  1.00  0.00     0.001 A 
HETATM    7  C11 UNL     1       3.581  17.715  23.453  1.00  0.00     0.032 A 
HETATM    8  C18 UNL     1       4.834  17.995  23.920  1.00  0.00     0.198 A 
HETATM    9  F1  UNL     1       5.799  17.020  24.019  1.00  0.00    -0.185 F 
HETATM   10  N3  UNL     1       5.217  19.223  24.300  1.00  0.00    -0.330 N 
ATOM     11  H3  UNL     1       6.166  19.379  24.640  1.00  0.00     0.168 HD
HETATM   12  C19 UNL     1       4.330  20.270  24.229  1.00  0.00     0.077 A 
ENDROOT
BRANCH   7  13
HETATM   13  C12 UNL     1       3.175  16.372  23.054  1.00  0.00     0.221 C 
BRANCH  13  14
HETATM   14  O2  UNL     1       4.040  15.345  23.559  1.00  0.00    -0.334 OA
BRANCH  14  15
HETATM   15  C13 UNL     1       4.100  14.165  22.718  1.00  0.00     0.119 C 
HETATM   16  N2  UNL     1       3.155  14.100  21.888  1.00  0.00    -0.383 N 
ATOM     17  H22 UNL     1       2.404  14.780  21.772  1.00  0.00     0.158 HD
ATOM     18  H21 UNL     1       3.198  13.270  21.296  1.00  0.00     0.158 HD
BRANCH  15  19
HETATM   19  C14 UNL     1       5.172  13.194  22.883  1.00  0.00     0.013 C 
HETATM   20  C15 UNL     1       5.372  12.322  21.684  1.00  0.00     0.023 C 
HETATM   21  C16 UNL     1       4.989  12.372  24.102  1.00  0.00     0.023 C 
HETATM   22  C17 UNL     1       6.465  14.045  22.986  1.00  0.00     0.023 C 
ENDBRANCH  15  19
ENDBRANCH  14  15
ENDBRANCH  13  14
ENDBRANCH   7  13
BRANCH   6  23
HETATM   23  C6  UNL     1       1.266  18.615  23.090  1.00  0.00     0.123 C 
BRANCH  23  24
HETATM   24  S1  UNL     1       0.249  18.821  24.544  1.00  0.00    -0.101 SA
BRANCH  24  25
HETATM   25  C7  UNL     1       1.240  18.543  26.008  1.00  0.00     0.104 C 
HETATM   26  N1  UNL     1       1.544  17.403  26.408  1.00  0.00    -0.374 N 
HETATM   27  C8  UNL     1       2.297  17.225  27.559  1.00  0.00     0.088 C 
ATOM     28  H1  UNL     1       1.235  16.587  25.880  1.00  0.00     0.161 HD
HETATM   29  C9  UNL     1       1.274  17.362  28.720  1.00  0.00     0.033 C 
HETATM   30  C10 UNL     1       3.252  18.438  27.746  1.00  0.00     0.106 C 
HETATM   31  S2  UNL     1       1.999  19.675  27.163  1.00  0.00    -0.103 SA
ENDBRANCH  24  25
ENDBRANCH  23  24
ENDBRANCH   6  23
TORSDOF 7
ENDMDL
MODEL 5
REMARK VINA RESULT: -6.692583928      2.283      4.543
REMARK  7 active torsions:
REMARK  status: ('A' for Active; 'I' for Inactive)
REMARK    1  A    between atoms: C5_6  and  C6_7 
REMARK    2  A    between atoms: C6_7  and  S1_8 
REMARK    3  A    between atoms: S1_8  and  C7_9 
REMARK    4  A    between atoms: C11_16  and  C12_17 
REMARK    5  A    between atoms: C12_17  and  O2_18 
REMARK    6  A    between atoms: O2_18  and  C13_19 
REMARK    7  A    between atoms: C13_19  and  C14_23 
ROOT
HETATM    1  C1  UNL     1       5.992  22.689  24.995  1.00  0.00     0.052 C 
HETATM    2  C2  UNL     1       5.269  21.525  25.550  1.00  0.00    -0.010 A 
HETATM    3  C3  UNL     1       4.589  21.595  26.761  1.00  0.00     0.151 A 
HETATM    4  O1  UNL     1       4.047  20.438  26.960  1.00  0.00    -0.319 OA
HETATM    5  C4  UNL     1       4.335  19.598  25.947  1.00  0.00     0.110 A 
HETATM    6  C5  UNL     1       3.986  18.291  25.719  1.00  0.00     0.001 A 
HETATM    7  C11 UNL     1       4.412  17.625  24.591  1.00  0.00     0.032 A 
HETATM    8  C18 UNL     1       5.188  18.333  23.717  1.00  0.00     0.198 A 
HETATM    9  F1  UNL     1       5.656  17.769  22.553  1.00  0.00    -0.185 F 
HETATM   10  N3  UNL     1       5.536  19.612  23.916  1.00  0.00    -0.330 N 
ATOM     11  H3  UNL     1       6.116  20.096  23.231  1.00  0.00     0.168 HD
HETATM   12  C19 UNL     1       5.109  20.271  25.044  1.00  0.00     0.077 A 
ENDROOT
BRANCH   7  13
HETATM   13  C12 UNL     1       4.051  16.230  24.367  1.00  0.00     0.221 C 
BRANCH  13  14
HETATM   14  O2  UNL     1       5.127  15.445  23.835  1.00  0.00    -0.334 OA
BRANCH  14  15
HETATM   15  C13 UNL     1       4.689  14.340  23.003  1.00  0.00     0.119 C 
HETATM   16  N2  UNL     1       3.651  14.601  22.339  1.00  0.00    -0.383 N 
ATOM     17  H22 UNL     1       3.136  15.481  22.344  1.00  0.00     0.158 HD
ATOM     18  H21 UNL     1       3.343  13.825  21.754  1.00  0.00     0.158 HD
BRANCH  15  19
HETATM   19  C14 UNL     1       5.424  13.084  22.997  1.00  0.00     0.013 C 
HETATM   20  C15 UNL     1       5.321  12.343  21.701  1.00  0.00     0.023 C 
HETATM   21  C16 UNL     1       5.033  12.211  24.129  1.00  0.00     0.023 C 
HETATM   22  C17 UNL     1       6.914  13.496  23.113  1.00  0.00     0.023 C 
ENDBRANCH  15  19
ENDBRANCH  14  15
ENDBRANCH  13  14
ENDBRANCH   7  13
BRANCH   6  23
HETATM   23  C6  UNL     1       3.314  17.636  26.849  1.00  0.00     0.123 C 
BRANCH  23  24
HETATM   24  S1  UNL     1       1.601  18.120  26.992  1.00  0.00    -0.101 SA
BRANCH  24  25
HETATM   25  C7  UNL     1       0.891  18.290  25.359  1.00  0.00     0.104 C 
HETATM   26  N1  UNL     1       0.769  17.330  24.575  1.00  0.00    -0.374 N 
HETATM   27  C8  UNL     1       0.232  17.503  23.307  1.00  0.00     0.088 C 
ATOM     28  H1  UNL     1       1.068  16.401  24.869  1.00  0.00     0.161 HD
HETATM   29  C9  UNL     1       1.411  18.051  22.456  1.00  0.00     0.033 C 
HETATM   30  C10 UNL     1      -0.794  18.671  23.335  1.00  0.00     0.106 C 
HETATM   31  S2  UNL     1       0.221  19.703  24.495  1.00  0.00    -0.103 SA
ENDBRANCH  24  25
ENDBRANCH  23  24
ENDBRANCH   6  23
TORSDOF 7
ENDMDL
