MODEL 1
REMARK VINA RESULT: -8.011388995      0.000      0.000
REMARK  8 active torsions:
REMARK  status: ('A' for Active; 'I' for Inactive)
REMARK    1  A    between atoms: O1_2  and  C2_3 
REMARK    2  A    between atoms: C4_5  and  C5_6 
REMARK    3  A    between atoms: C11_13  and  O3_14 
REMARK    4  A    between atoms: C15_20  and  O5_21 
REMARK    5  A    between atoms: C17_23  and  O6_24 
REMARK    6  A    between atoms: O6_24  and  S1_25 
REMARK    7  A    between atoms: S1_25  and  O9_28 
REMARK    8  A    between atoms: O9_28  and  C18_29 
ROOT
HETATM    1  C2  UNL     1      52.184  43.183  61.369  1.00  0.00     0.106 A 
HETATM    2  C3  UNL     1      53.145  43.513  62.313  1.00  0.00     0.051 A 
HETATM    3  C4  UNL     1      53.038  44.577  63.173  1.00  0.00    -0.028 A 
HETATM    4  C14 UNL     1      51.868  45.334  63.039  1.00  0.00     0.051 A 
HETATM    5  C15 UNL     1      50.897  45.052  62.131  1.00  0.00     0.106 A 
HETATM    6  C17 UNL     1      51.049  43.962  61.280  1.00  0.00     0.158 A 
ENDROOT
BRANCH   3   7
HETATM    7  C5  UNL     1      53.994  44.950  64.189  1.00  0.00     0.053 C 
HETATM    8  C6  UNL     1      55.230  45.332  64.017  1.00  0.00     0.128 A 
HETATM    9  O2  UNL     1      56.080  45.682  65.076  1.00  0.00    -0.306 OA
HETATM   10  C13 UNL     1      56.027  45.494  62.817  1.00  0.00     0.221 A 
HETATM   11  C7  UNL     1      57.315  46.038  64.601  1.00  0.00     0.093 A 
HETATM   12  C8  UNL     1      58.426  46.446  65.338  1.00  0.00     0.038 A 
HETATM   13  C12 UNL     1      57.356  45.947  63.231  1.00  0.00     0.084 A 
HETATM   14  C9  UNL     1      59.566  46.755  64.639  1.00  0.00     0.006 A 
HETATM   15  C10 UNL     1      59.658  46.681  63.271  1.00  0.00     0.038 A 
HETATM   16  C11 UNL     1      58.528  46.269  62.552  1.00  0.00     0.082 A 
HETATM   17  O4  UNL     1      55.700  45.298  61.630  1.00  0.00    -0.284 OA
BRANCH  16  18
HETATM   18  O3  UNL     1      58.590  46.184  61.174  1.00  0.00    -0.360 OA
ATOM     19  H3  UNL     1      57.984  45.617  60.711  1.00  0.00     0.217 HD
ENDBRANCH  16  18
ENDBRANCH   3   7
BRANCH   1  20
HETATM   20  O1  UNL     1      52.350  42.084  60.520  1.00  0.00    -0.353 OA
HETATM   21  C1  UNL     1      53.317  42.180  59.491  1.00  0.00     0.210 C 
ENDBRANCH   1  20
BRANCH   5  22
HETATM   22  O5  UNL     1      49.755  45.793  62.002  1.00  0.00    -0.353 OA
HETATM   23  C16 UNL     1      48.676  45.729  62.923  1.00  0.00     0.210 C 
ENDBRANCH   5  22
BRANCH   6  24
HETATM   24  O6  UNL     1      50.083  43.629  60.330  1.00  0.00    -0.205 OA
BRANCH  24  25
HETATM   25  S1  UNL     1      49.987  44.393  58.830  1.00  0.00     0.414 S 
HETATM   26  O7  UNL     1      49.952  43.418  57.687  1.00  0.00    -0.168 OA
HETATM   27  O8  UNL     1      51.215  45.246  58.666  1.00  0.00    -0.168 OA
BRANCH  25  28
HETATM   28  O9  UNL     1      48.586  45.351  58.803  1.00  0.00    -0.175 OA
BRANCH  28  29
HETATM   29  C18 UNL     1      47.368  44.819  59.158  1.00  0.00     0.272 C 
HETATM   30  C19 UNL     1      46.422  45.661  59.922  1.00  0.00     0.127 C 
HETATM   31  O10 UNL     1      47.033  43.659  58.860  1.00  0.00    -0.265 OA
ENDBRANCH  28  29
ENDBRANCH  25  28
ENDBRANCH  24  25
ENDBRANCH   6  24
TORSDOF 8
ENDMDL
MODEL 2
REMARK VINA RESULT: -7.905309990      3.387      7.956
REMARK  8 active torsions:
REMARK  status: ('A' for Active; 'I' for Inactive)
REMARK    1  A    between atoms: O1_2  and  C2_3 
REMARK    2  A    between atoms: C4_5  and  C5_6 
REMARK    3  A    between atoms: C11_13  and  O3_14 
REMARK    4  A    between atoms: C15_20  and  O5_21 
REMARK    5  A    between atoms: C17_23  and  O6_24 
REMARK    6  A    between atoms: O6_24  and  S1_25 
REMARK    7  A    between atoms: S1_25  and  O9_28 
REMARK    8  A    between atoms: O9_28  and  C18_29 
ROOT
HETATM    1  C2  UNL     1      50.319  45.503  61.155  1.00  0.00     0.106 A 
HETATM    2  C3  UNL     1      50.098  46.361  62.221  1.00  0.00     0.051 A 
HETATM    3  C4  UNL     1      50.231  45.997  63.537  1.00  0.00    -0.028 A 
HETATM    4  C14 UNL     1      50.613  44.667  63.749  1.00  0.00     0.051 A 
HETATM    5  C15 UNL     1      50.842  43.787  62.740  1.00  0.00     0.106 A 
HETATM    6  C17 UNL     1      50.696  44.202  61.420  1.00  0.00     0.158 A 
ENDROOT
BRANCH   3   7
HETATM    7  C5  UNL     1      50.038  46.855  64.682  1.00  0.00     0.053 C 
HETATM    8  C6  UNL     1      48.917  47.133  65.289  1.00  0.00     0.128 A 
HETATM    9  O2  UNL     1      48.835  47.978  66.404  1.00  0.00    -0.306 OA
HETATM   10  C13 UNL     1      47.554  46.710  65.029  1.00  0.00     0.221 A 
HETATM   11  C7  UNL     1      47.537  48.090  66.827  1.00  0.00     0.093 A 
HETATM   12  C8  UNL     1      47.051  48.836  67.900  1.00  0.00     0.038 A 
HETATM   13  C12 UNL     1      46.699  47.343  66.035  1.00  0.00     0.084 A 
HETATM   14  C9  UNL     1      45.700  48.795  68.135  1.00  0.00     0.006 A 
HETATM   15  C10 UNL     1      44.821  48.064  67.374  1.00  0.00     0.038 A 
HETATM   16  C11 UNL     1      45.333  47.322  66.301  1.00  0.00     0.082 A 
HETATM   17  O4  UNL     1      47.128  45.954  64.134  1.00  0.00    -0.284 OA
BRANCH  16  18
HETATM   18  O3  UNL     1      44.473  46.576  65.516  1.00  0.00    -0.360 OA
ATOM     19  H3  UNL     1      43.641  46.290  65.874  1.00  0.00     0.217 HD
ENDBRANCH  16  18
ENDBRANCH   3   7
BRANCH   1  20
HETATM   20  O1  UNL     1      50.168  45.934  59.833  1.00  0.00    -0.353 OA
HETATM   21  C1  UNL     1      48.855  46.043  59.316  1.00  0.00     0.210 C 
ENDBRANCH   1  20
BRANCH   5  22
HETATM   22  O5  UNL     1      51.216  42.487  62.949  1.00  0.00    -0.353 OA
HETATM   23  C16 UNL     1      51.912  42.054  64.109  1.00  0.00     0.210 C 
ENDBRANCH   5  22
BRANCH   6  24
HETATM   24  O6  UNL     1      50.918  43.339  60.347  1.00  0.00    -0.205 OA
BRANCH  24  25
HETATM   25  S1  UNL     1      52.436  43.146  59.638  1.00  0.00     0.414 S 
HETATM   26  O7  UNL     1      52.736  44.207  58.619  1.00  0.00    -0.168 OA
HETATM   27  O8  UNL     1      52.452  41.816  58.934  1.00  0.00    -0.168 OA
BRANCH  25  28
HETATM   28  O9  UNL     1      53.610  43.186  60.864  1.00  0.00    -0.175 OA
BRANCH  28  29
HETATM   29  C18 UNL     1      54.453  44.265  60.989  1.00  0.00     0.272 C 
HETATM   30  C19 UNL     1      53.981  45.450  61.738  1.00  0.00     0.127 C 
HETATM   31  O10 UNL     1      55.595  44.282  60.497  1.00  0.00    -0.265 OA
ENDBRANCH  28  29
ENDBRANCH  25  28
ENDBRANCH  24  25
ENDBRANCH   6  24
TORSDOF 8
ENDMDL
MODEL 3
REMARK VINA RESULT: -7.794943147      3.011      6.739
REMARK  8 active torsions:
REMARK  status: ('A' for Active; 'I' for Inactive)
REMARK    1  A    between atoms: O1_2  and  C2_3 
REMARK    2  A    between atoms: C4_5  and  C5_6 
REMARK    3  A    between atoms: C11_13  and  O3_14 
REMARK    4  A    between atoms: C15_20  and  O5_21 
REMARK    5  A    between atoms: C17_23  and  O6_24 
REMARK    6  A    between atoms: O6_24  and  S1_25 
REMARK    7  A    between atoms: S1_25  and  O9_28 
REMARK    8  A    between atoms: O9_28  and  C18_29 
ROOT
HETATM    1  C2  UNL     1      53.417  45.133  61.994  1.00  0.00     0.106 A 
HETATM    2  C3  UNL     1      52.917  45.877  63.052  1.00  0.00     0.051 A 
HETATM    3  C4  UNL     1      52.255  45.333  64.123  1.00  0.00    -0.028 A 
HETATM    4  C14 UNL     1      52.105  43.942  64.085  1.00  0.00     0.051 A 
HETATM    5  C15 UNL     1      52.576  43.168  63.072  1.00  0.00     0.106 A 
HETATM    6  C17 UNL     1      53.243  43.765  62.006  1.00  0.00     0.158 A 
ENDROOT
BRANCH   3   7
HETATM    7  C5  UNL     1      51.738  46.056  65.261  1.00  0.00     0.053 C 
HETATM    8  C6  UNL     1      50.508  46.437  65.470  1.00  0.00     0.128 A 
HETATM    9  O2  UNL     1      50.103  47.133  66.618  1.00  0.00    -0.306 OA
HETATM   10  C13 UNL     1      49.306  46.286  64.672  1.00  0.00     0.221 A 
HETATM   11  C7  UNL     1      48.762  47.405  66.566  1.00  0.00     0.093 A 
HETATM   12  C8  UNL     1      47.991  48.077  67.514  1.00  0.00     0.038 A 
HETATM   13  C12 UNL     1      48.209  46.917  65.407  1.00  0.00     0.084 A 
HETATM   14  C9  UNL     1      46.655  48.233  67.243  1.00  0.00     0.006 A 
HETATM   15  C10 UNL     1      46.055  47.765  66.100  1.00  0.00     0.038 A 
HETATM   16  C11 UNL     1      46.850  47.092  65.163  1.00  0.00     0.082 A 
HETATM   17  O4  UNL     1      49.170  45.734  63.562  1.00  0.00    -0.284 OA
BRANCH  16  18
HETATM   18  O3  UNL     1      46.275  46.609  64.002  1.00  0.00    -0.360 OA
ATOM     19  H3  UNL     1      46.756  46.658  63.184  1.00  0.00     0.217 HD
ENDBRANCH  16  18
ENDBRANCH   3   7
BRANCH   1  20
HETATM   20  O1  UNL     1      54.086  45.746  60.929  1.00  0.00    -0.353 OA
HETATM   21  C1  UNL     1      55.487  45.912  61.032  1.00  0.00     0.210 C 
ENDBRANCH   1  20
BRANCH   5  22
HETATM   22  O5  UNL     1      52.428  41.809  63.036  1.00  0.00    -0.353 OA
HETATM   23  C16 UNL     1      51.644  41.085  63.974  1.00  0.00     0.210 C 
ENDBRANCH   5  22
BRANCH   6  24
HETATM   24  O6  UNL     1      53.745  43.017  60.941  1.00  0.00    -0.205 OA
BRANCH  24  25
HETATM   25  S1  UNL     1      52.797  42.575  59.618  1.00  0.00     0.414 S 
HETATM   26  O7  UNL     1      51.581  41.789  60.016  1.00  0.00    -0.168 OA
HETATM   27  O8  UNL     1      53.633  41.702  58.722  1.00  0.00    -0.168 OA
BRANCH  25  28
HETATM   28  O9  UNL     1      52.322  43.985  58.802  1.00  0.00    -0.175 OA
BRANCH  28  29
HETATM   29  C18 UNL     1      51.002  44.373  58.787  1.00  0.00     0.272 C 
HETATM   30  C19 UNL     1      50.593  45.528  59.615  1.00  0.00     0.127 C 
HETATM   31  O10 UNL     1      50.142  43.790  58.104  1.00  0.00    -0.265 OA
ENDBRANCH  28  29
ENDBRANCH  25  28
ENDBRANCH  24  25
ENDBRANCH   6  24
TORSDOF 8
ENDMDL
MODEL 4
REMARK VINA RESULT: -7.726044425      0.224      2.309
REMARK  8 active torsions:
REMARK  status: ('A' for Active; 'I' for Inactive)
REMARK    1  A    between atoms: O1_2  and  C2_3 
REMARK    2  A    between atoms: C4_5  and  C5_6 
REMARK    3  A    between atoms: C11_13  and  O3_14 
REMARK    4  A    between atoms: C15_20  and  O5_21 
REMARK    5  A    between atoms: C17_23  and  O6_24 
REMARK    6  A    between atoms: O6_24  and  S1_25 
REMARK    7  A    between atoms: S1_25  and  O9_28 
REMARK    8  A    between atoms: O9_28  and  C18_29 
ROOT
HETATM    1  C2  UNL     1      50.811  45.067  62.289  1.00  0.00     0.106 A 
HETATM    2  C3  UNL     1      51.732  45.410  63.267  1.00  0.00     0.051 A 
HETATM    3  C4  UNL     1      52.909  44.738  63.478  1.00  0.00    -0.028 A 
HETATM    4  C14 UNL     1      53.133  43.650  62.625  1.00  0.00     0.051 A 
HETATM    5  C15 UNL     1      52.262  43.274  61.652  1.00  0.00     0.106 A 
HETATM    6  C17 UNL     1      51.081  43.987  61.475  1.00  0.00     0.158 A 
ENDROOT
BRANCH   3   7
HETATM    7  C5  UNL     1      53.913  45.066  64.462  1.00  0.00     0.053 C 
HETATM    8  C6  UNL     1      55.151  45.418  64.249  1.00  0.00     0.128 A 
HETATM    9  O2  UNL     1      56.051  45.725  65.279  1.00  0.00    -0.306 OA
HETATM   10  C13 UNL     1      55.905  45.581  63.021  1.00  0.00     0.221 A 
HETATM   11  C7  UNL     1      57.276  46.057  64.762  1.00  0.00     0.093 A 
HETATM   12  C8  UNL     1      58.426  46.422  65.461  1.00  0.00     0.038 A 
HETATM   13  C12 UNL     1      57.261  45.991  63.390  1.00  0.00     0.084 A 
HETATM   14  C9  UNL     1      59.546  46.712  64.723  1.00  0.00     0.006 A 
HETATM   15  C10 UNL     1      59.583  46.661  63.352  1.00  0.00     0.038 A 
HETATM   16  C11 UNL     1      58.415  46.293  62.671  1.00  0.00     0.082 A 
HETATM   17  O4  UNL     1      55.527  45.416  61.844  1.00  0.00    -0.284 OA
BRANCH  16  18
HETATM   18  O3  UNL     1      58.420  46.233  61.290  1.00  0.00    -0.360 OA
ATOM     19  H3  UNL     1      58.291  47.027  60.785  1.00  0.00     0.217 HD
ENDBRANCH  16  18
ENDBRANCH   3   7
BRANCH   1  20
HETATM   20  O1  UNL     1      49.627  45.794  62.122  1.00  0.00    -0.353 OA
HETATM   21  C1  UNL     1      48.595  45.611  63.073  1.00  0.00     0.210 C 
ENDBRANCH   1  20
BRANCH   5  22
HETATM   22  O5  UNL     1      52.483  42.211  60.820  1.00  0.00    -0.353 OA
HETATM   23  C16 UNL     1      53.313  42.281  59.669  1.00  0.00     0.210 C 
ENDBRANCH   5  22
BRANCH   6  24
HETATM   24  O6  UNL     1      50.153  43.643  60.492  1.00  0.00    -0.205 OA
BRANCH  24  25
HETATM   25  S1  UNL     1      50.104  44.400  58.986  1.00  0.00     0.414 S 
HETATM   26  O7  UNL     1      50.127  43.422  57.846  1.00  0.00    -0.168 OA
HETATM   27  O8  UNL     1      51.326  45.271  58.867  1.00  0.00    -0.168 OA
BRANCH  25  28
HETATM   28  O9  UNL     1      48.692  45.339  58.902  1.00  0.00    -0.175 OA
BRANCH  28  29
HETATM   29  C18 UNL     1      47.468  44.789  59.203  1.00  0.00     0.272 C 
HETATM   30  C19 UNL     1      46.472  45.620  59.913  1.00  0.00     0.127 C 
HETATM   31  O10 UNL     1      47.168  43.620  58.900  1.00  0.00    -0.265 OA
ENDBRANCH  28  29
ENDBRANCH  25  28
ENDBRANCH  24  25
ENDBRANCH   6  24
TORSDOF 8
ENDMDL
MODEL 5
REMARK VINA RESULT: -7.698536776      2.778      9.026
REMARK  8 active torsions:
REMARK  status: ('A' for Active; 'I' for Inactive)
REMARK    1  A    between atoms: O1_2  and  C2_3 
REMARK    2  A    between atoms: C4_5  and  C5_6 
REMARK    3  A    between atoms: C11_13  and  O3_14 
REMARK    4  A    between atoms: C15_20  and  O5_21 
REMARK    5  A    between atoms: C17_23  and  O6_24 
REMARK    6  A    between atoms: O6_24  and  S1_25 
REMARK    7  A    between atoms: S1_25  and  O9_28 
REMARK    8  A    between atoms: O9_28  and  C18_29 
ROOT
HETATM    1  C2  UNL     1      50.225  44.425  60.812  1.00  0.00     0.106 A 
HETATM    2  C3  UNL     1      49.129  44.746  61.599  1.00  0.00     0.051 A 
HETATM    3  C4  UNL     1      49.206  45.485  62.752  1.00  0.00    -0.028 A 
HETATM    4  C14 UNL     1      50.494  45.908  63.102  1.00  0.00     0.051 A 
HETATM    5  C15 UNL     1      51.599  45.619  62.366  1.00  0.00     0.106 A 
HETATM    6  C17 UNL     1      51.472  44.867  61.202  1.00  0.00     0.158 A 
ENDROOT
BRANCH   3   7
HETATM    7  C5  UNL     1      48.097  45.870  63.593  1.00  0.00     0.053 C 
HETATM    8  C6  UNL     1      46.860  46.080  63.233  1.00  0.00     0.128 A 
HETATM    9  O2  UNL     1      45.850  46.447  64.132  1.00  0.00    -0.306 OA
HETATM   10  C13 UNL     1      46.213  46.015  61.937  1.00  0.00     0.221 A 
HETATM   11  C7  UNL     1      44.657  46.603  63.476  1.00  0.00     0.093 A 
HETATM   12  C8  UNL     1      43.425  46.961  64.021  1.00  0.00     0.038 A 
HETATM   13  C12 UNL     1      44.803  46.356  62.133  1.00  0.00     0.084 A 
HETATM   14  C9  UNL     1      42.360  47.057  63.161  1.00  0.00     0.006 A 
HETATM   15  C10 UNL     1      42.453  46.820  61.812  1.00  0.00     0.038 A 
HETATM   16  C11 UNL     1      43.702  46.461  61.288  1.00  0.00     0.082 A 
HETATM   17  O4  UNL     1      46.710  45.731  60.829  1.00  0.00    -0.284 OA
BRANCH  16  18
HETATM   18  O3  UNL     1      43.828  46.216  59.933  1.00  0.00    -0.360 OA
ATOM     19  H3  UNL     1      43.047  46.109  59.401  1.00  0.00     0.217 HD
ENDBRANCH  16  18
ENDBRANCH   3   7
BRANCH   1  20
HETATM   20  O1  UNL     1      50.082  43.667  59.644  1.00  0.00    -0.353 OA
HETATM   21  C1  UNL     1      49.551  44.306  58.499  1.00  0.00     0.210 C 
ENDBRANCH   1  20
BRANCH   5  22
HETATM   22  O5  UNL     1      52.857  46.033  62.710  1.00  0.00    -0.353 OA
HETATM   23  C16 UNL     1      53.260  46.270  64.051  1.00  0.00     0.210 C 
ENDBRANCH   5  22
BRANCH   6  24
HETATM   24  O6  UNL     1      52.574  44.542  60.411  1.00  0.00    -0.205 OA
BRANCH  24  25
HETATM   25  S1  UNL     1      53.381  43.067  60.542  1.00  0.00     0.414 S 
HETATM   26  O7  UNL     1      53.161  42.181  59.350  1.00  0.00    -0.168 OA
HETATM   27  O8  UNL     1      52.841  42.351  61.751  1.00  0.00    -0.168 OA
BRANCH  25  28
HETATM   28  O9  UNL     1      55.040  43.376  60.724  1.00  0.00    -0.175 OA
BRANCH  28  29
HETATM   29  C18 UNL     1      55.494  44.183  61.741  1.00  0.00     0.272 C 
HETATM   30  C19 UNL     1      55.892  45.572  61.421  1.00  0.00     0.127 C 
HETATM   31  O10 UNL     1      55.582  43.790  62.917  1.00  0.00    -0.265 OA
ENDBRANCH  28  29
ENDBRANCH  25  28
ENDBRANCH  24  25
ENDBRANCH   6  24
TORSDOF 8
ENDMDL
