MODEL 1
REMARK VINA RESULT: -7.525095153      0.000      0.000
REMARK  5 active torsions:
REMARK  status: ('A' for Active; 'I' for Inactive)
REMARK    1  A    between atoms: O1_2  and  C2_3 
REMARK    2  A    between atoms: C4_5  and  N1_6 
REMARK    3  A    between atoms: N1_6  and  C5_8 
REMARK    4  A    between atoms: C12_19  and  C13_20 
REMARK    5  A    between atoms: C15_26  and  N6_27 
ROOT
HETATM    1  C2  UNL     1      56.516 -19.196  89.090  1.00  0.00     0.081 A 
HETATM    2  C3  UNL     1      57.635 -19.843  88.588  1.00  0.00     0.068 A 
HETATM    3  C4  UNL     1      57.555 -21.167  88.221  1.00  0.00     0.058 A 
HETATM    4  C9  UNL     1      56.358 -21.829  88.361  1.00  0.00    -0.034 A 
HETATM    5  C10 UNL     1      56.239 -23.267  87.971  1.00  0.00     0.050 C 
HETATM    6  C11 UNL     1      55.265 -21.175  88.858  1.00  0.00     0.024 A 
HETATM    7  C12 UNL     1      55.296 -19.829  89.244  1.00  0.00     0.010 A 
ENDROOT
BRANCH   7   8
HETATM    8  C13 UNL     1      54.112 -19.178  89.766  1.00  0.00    -0.003 A 
HETATM    9  C14 UNL     1      53.999 -19.008  91.128  1.00  0.00     0.119 A 
HETATM   10  N4  UNL     1      52.904 -18.400  91.667  1.00  0.00    -0.309 N 
HETATM   11  N5  UNL     1      51.906 -17.946  90.944  1.00  0.00    -0.286 N 
ATOM     12  H4  UNL     1      52.859 -18.292  92.680  1.00  0.00     0.186 HD
HETATM   13  C15 UNL     1      51.964 -18.084  89.613  1.00  0.00     0.114 A 
ATOM     14  H5  UNL     1      51.103 -17.497  91.386  1.00  0.00     0.188 HD
HETATM   15  C16 UNL     1      53.064 -18.701  89.006  1.00  0.00     0.063 A 
BRANCH  13  16
HETATM   16  N6  UNL     1      50.998 -17.647  88.891  1.00  0.00    -0.384 N 
ATOM     17  H62 UNL     1      50.247 -17.106  89.320  1.00  0.00     0.157 HD
ATOM     18  H61 UNL     1      50.991 -17.844  87.890  1.00  0.00     0.157 HD
ENDBRANCH  13  16
ENDBRANCH   7   8
BRANCH   1  19
HETATM   19  O1  UNL     1      56.620 -17.881  89.448  1.00  0.00    -0.355 OA
HETATM   20  C1  UNL     1      57.794 -17.182  89.716  1.00  0.00     0.210 C 
ENDBRANCH   1  19
BRANCH   3  21
HETATM   21  N1  UNL     1      58.652 -21.876  87.707  1.00  0.00    -0.191 N 
ATOM     22  H1  UNL     1      59.039 -22.613  88.297  1.00  0.00     0.184 HD
BRANCH  21  23
HETATM   23  C5  UNL     1      59.210 -21.693  86.586  1.00  0.00     0.682 A 
HETATM   24  N2  UNL     1      60.509 -21.382  86.521  1.00  0.00    -0.202 N 
HETATM   25  C6  UNL     1      61.091 -21.189  85.310  1.00  0.00     0.107 A 
ATOM     26  H2  UNL     1      61.059 -21.289  87.376  1.00  0.00     0.183 HD
HETATM   27  C7  UNL     1      60.345 -21.315  84.143  1.00  0.00     0.035 A 
HETATM   28  C8  UNL     1      59.003 -21.638  84.228  1.00  0.00     0.107 A 
HETATM   29  N3  UNL     1      58.489 -21.815  85.467  1.00  0.00    -0.202 N 
ATOM     30  H3  UNL     1      57.501 -22.055  85.553  1.00  0.00     0.183 HD
ENDBRANCH  21  23
ENDBRANCH   3  21
TORSDOF 5
ENDMDL
MODEL 2
REMARK VINA RESULT: -7.377969790      2.666      7.669
REMARK  5 active torsions:
REMARK  status: ('A' for Active; 'I' for Inactive)
REMARK    1  A    between atoms: O1_2  and  C2_3 
REMARK    2  A    between atoms: C4_5  and  N1_6 
REMARK    3  A    between atoms: N1_6  and  C5_8 
REMARK    4  A    between atoms: C12_19  and  C13_20 
REMARK    5  A    between atoms: C15_26  and  N6_27 
ROOT
HETATM    1  C2  UNL     1      57.094 -21.384  87.053  1.00  0.00     0.081 A 
HETATM    2  C3  UNL     1      56.270 -20.488  87.716  1.00  0.00     0.068 A 
HETATM    3  C4  UNL     1      55.128 -20.023  87.104  1.00  0.00     0.058 A 
HETATM    4  C9  UNL     1      54.824 -20.459  85.836  1.00  0.00    -0.034 A 
HETATM    5  C10 UNL     1      53.592 -19.972  85.144  1.00  0.00     0.050 C 
HETATM    6  C11 UNL     1      55.649 -21.343  85.197  1.00  0.00     0.024 A 
HETATM    7  C12 UNL     1      56.819 -21.844  85.778  1.00  0.00     0.010 A 
ENDROOT
BRANCH   7   8
HETATM    8  C13 UNL     1      57.663 -22.780  85.061  1.00  0.00    -0.003 A 
HETATM    9  C14 UNL     1      57.341 -24.118  85.096  1.00  0.00     0.119 A 
HETATM   10  N4  UNL     1      58.104 -25.037  84.437  1.00  0.00    -0.309 N 
HETATM   11  N5  UNL     1      59.172 -24.718  83.742  1.00  0.00    -0.286 N 
ATOM     12  H4  UNL     1      57.831 -26.019  84.487  1.00  0.00     0.186 HD
HETATM   13  C15 UNL     1      59.530 -23.430  83.674  1.00  0.00     0.114 A 
ATOM     14  H5  UNL     1      59.716 -25.436  83.264  1.00  0.00     0.188 HD
HETATM   15  C16 UNL     1      58.784 -22.444  84.332  1.00  0.00     0.063 A 
BRANCH  13  16
HETATM   16  N6  UNL     1      60.571 -23.100  83.000  1.00  0.00    -0.384 N 
ATOM     17  H62 UNL     1      61.418 -23.663  83.065  1.00  0.00     0.157 HD
ATOM     18  H61 UNL     1      60.539 -22.274  82.402  1.00  0.00     0.157 HD
ENDBRANCH  13  16
ENDBRANCH   7   8
BRANCH   1  19
HETATM   19  O1  UNL     1      58.222 -21.831  87.681  1.00  0.00    -0.355 OA
HETATM   20  C1  UNL     1      59.064 -21.091  88.507  1.00  0.00     0.210 C 
ENDBRANCH   1  19
BRANCH   3  21
HETATM   21  N1  UNL     1      54.255 -19.114  87.723  1.00  0.00    -0.191 N 
ATOM     22  H1  UNL     1      53.922 -18.338  87.153  1.00  0.00     0.184 HD
BRANCH  21  23
HETATM   23  C5  UNL     1      53.840 -19.162  88.918  1.00  0.00     0.682 A 
HETATM   24  N2  UNL     1      52.937 -20.078  89.283  1.00  0.00    -0.202 N 
HETATM   25  C6  UNL     1      52.503 -20.114  90.569  1.00  0.00     0.107 A 
ATOM     26  H2  UNL     1      52.576 -20.745  88.600  1.00  0.00     0.183 HD
HETATM   27  C7  UNL     1      52.993 -19.208  91.503  1.00  0.00     0.035 A 
HETATM   28  C8  UNL     1      53.928 -18.268  91.108  1.00  0.00     0.107 A 
HETATM   29  N3  UNL     1      54.315 -18.289  89.812  1.00  0.00    -0.202 N 
ATOM     30  H3  UNL     1      55.003 -17.604  89.500  1.00  0.00     0.183 HD
ENDBRANCH  21  23
ENDBRANCH   3  21
TORSDOF 5
ENDMDL
MODEL 3
REMARK VINA RESULT: -7.341535334      1.268      2.487
REMARK  5 active torsions:
REMARK  status: ('A' for Active; 'I' for Inactive)
REMARK    1  A    between atoms: O1_2  and  C2_3 
REMARK    2  A    between atoms: C4_5  and  N1_6 
REMARK    3  A    between atoms: N1_6  and  C5_8 
REMARK    4  A    between atoms: C12_19  and  C13_20 
REMARK    5  A    between atoms: C15_26  and  N6_27 
ROOT
HETATM    1  C2  UNL     1      55.261 -21.042  88.134  1.00  0.00     0.081 A 
HETATM    2  C3  UNL     1      56.355 -21.675  87.561  1.00  0.00     0.068 A 
HETATM    3  C4  UNL     1      57.630 -21.274  87.891  1.00  0.00     0.058 A 
HETATM    4  C9  UNL     1      57.796 -20.246  88.790  1.00  0.00    -0.034 A 
HETATM    5  C10 UNL     1      59.168 -19.788  89.169  1.00  0.00     0.050 C 
HETATM    6  C11 UNL     1      56.706 -19.635  89.345  1.00  0.00     0.024 A 
HETATM    7  C12 UNL     1      55.391 -20.007  89.042  1.00  0.00     0.010 A 
ENDROOT
BRANCH   7   8
HETATM    8  C13 UNL     1      54.266 -19.329  89.655  1.00  0.00    -0.003 A 
HETATM    9  C14 UNL     1      54.199 -19.276  91.029  1.00  0.00     0.119 A 
HETATM   10  N4  UNL     1      53.160 -18.649  91.653  1.00  0.00    -0.309 N 
HETATM   11  N5  UNL     1      52.178 -18.068  91.003  1.00  0.00    -0.286 N 
ATOM     12  H4  UNL     1      53.147 -18.630  92.672  1.00  0.00     0.186 HD
HETATM   13  C15 UNL     1      52.194 -18.090  89.664  1.00  0.00     0.114 A 
ATOM     14  H5  UNL     1      51.418 -17.610  91.507  1.00  0.00     0.188 HD
HETATM   15  C16 UNL     1      53.235 -18.720  88.972  1.00  0.00     0.063 A 
BRANCH  13  16
HETATM   16  N6  UNL     1      51.242 -17.527  89.012  1.00  0.00    -0.384 N 
ATOM     17  H62 UNL     1      50.615 -16.878  89.488  1.00  0.00     0.157 HD
ATOM     18  H61 UNL     1      51.122 -17.736  88.021  1.00  0.00     0.157 HD
ENDBRANCH  13  16
ENDBRANCH   7   8
BRANCH   1  19
HETATM   19  O1  UNL     1      54.006 -21.458  87.791  1.00  0.00    -0.355 OA
HETATM   20  C1  UNL     1      53.672 -22.339  86.766  1.00  0.00     0.210 C 
ENDBRANCH   1  19
BRANCH   3  21
HETATM   21  N1  UNL     1      58.776 -21.873  87.345  1.00  0.00    -0.191 N 
ATOM     22  H1  UNL     1      59.258 -22.556  87.928  1.00  0.00     0.184 HD
BRANCH  21  23
HETATM   23  C5  UNL     1      59.270 -21.650  86.202  1.00  0.00     0.682 A 
HETATM   24  N2  UNL     1      58.490 -21.651  85.116  1.00  0.00    -0.202 N 
HETATM   25  C6  UNL     1      59.038 -21.410  83.898  1.00  0.00     0.107 A 
ATOM     26  H2  UNL     1      57.489 -21.831  85.203  1.00  0.00     0.183 HD
HETATM   27  C7  UNL     1      60.401 -21.162  83.775  1.00  0.00     0.035 A 
HETATM   28  C8  UNL     1      61.194 -21.165  84.909  1.00  0.00     0.107 A 
HETATM   29  N3  UNL     1      60.581 -21.413  86.090  1.00  0.00    -0.202 N 
ATOM     30  H3  UNL     1      61.148 -21.419  86.938  1.00  0.00     0.183 HD
ENDBRANCH  21  23
ENDBRANCH   3  21
TORSDOF 5
ENDMDL
MODEL 4
REMARK VINA RESULT: -7.285474053      2.441      7.726
REMARK  5 active torsions:
REMARK  status: ('A' for Active; 'I' for Inactive)
REMARK    1  A    between atoms: O1_2  and  C2_3 
REMARK    2  A    between atoms: C4_5  and  N1_6 
REMARK    3  A    between atoms: N1_6  and  C5_8 
REMARK    4  A    between atoms: C12_19  and  C13_20 
REMARK    5  A    between atoms: C15_26  and  N6_27 
ROOT
HETATM    1  C2  UNL     1      54.329 -19.389  87.711  1.00  0.00     0.081 A 
HETATM    2  C3  UNL     1      53.079 -18.798  87.812  1.00  0.00     0.068 A 
HETATM    3  C4  UNL     1      52.603 -18.404  89.042  1.00  0.00     0.058 A 
HETATM    4  C9  UNL     1      53.383 -18.607  90.157  1.00  0.00    -0.034 A 
HETATM    5  C10 UNL     1      52.895 -18.191  91.507  1.00  0.00     0.050 C 
HETATM    6  C11 UNL     1      54.614 -19.191  90.038  1.00  0.00     0.024 A 
HETATM    7  C12 UNL     1      55.140 -19.607  88.809  1.00  0.00     0.010 A 
ENDROOT
BRANCH   7   8
HETATM    8  C13 UNL     1      56.450 -20.223  88.732  1.00  0.00    -0.003 A 
HETATM    9  C14 UNL     1      56.541 -21.526  88.296  1.00  0.00     0.119 A 
HETATM   10  N4  UNL     1      57.751 -22.149  88.205  1.00  0.00    -0.309 N 
HETATM   11  N5  UNL     1      58.885 -21.564  88.519  1.00  0.00    -0.286 N 
ATOM     12  H4  UNL     1      57.777 -23.114  87.878  1.00  0.00     0.186 HD
HETATM   13  C15 UNL     1      58.855 -20.296  88.948  1.00  0.00     0.114 A 
ATOM     14  H5  UNL     1      59.770 -22.065  88.438  1.00  0.00     0.188 HD
HETATM   15  C16 UNL     1      57.640 -19.608  89.061  1.00  0.00     0.063 A 
BRANCH  13  16
HETATM   16  N6  UNL     1      59.952 -19.709  89.259  1.00  0.00    -0.384 N 
ATOM     17  H62 UNL     1      59.995 -19.120  90.091  1.00  0.00     0.157 HD
ATOM     18  H61 UNL     1      60.774 -19.837  88.669  1.00  0.00     0.157 HD
ENDBRANCH  13  16
ENDBRANCH   7   8
BRANCH   1  19
HETATM   19  O1  UNL     1      54.779 -19.772  86.478  1.00  0.00    -0.355 OA
HETATM   20  C1  UNL     1      54.089 -19.674  85.273  1.00  0.00     0.210 C 
ENDBRANCH   1  19
BRANCH   3  21
HETATM   21  N1  UNL     1      51.347 -17.802  89.210  1.00  0.00    -0.191 N 
ATOM     22  H1  UNL     1      51.303 -16.998  89.836  1.00  0.00     0.184 HD
BRANCH  21  23
HETATM   23  C5  UNL     1      50.262 -18.156  88.662  1.00  0.00     0.682 A 
HETATM   24  N2  UNL     1      49.548 -19.167  89.168  1.00  0.00    -0.202 N 
HETATM   25  C6  UNL     1      48.388 -19.532  88.567  1.00  0.00     0.107 A 
ATOM     26  H2  UNL     1      49.874 -19.660  90.000  1.00  0.00     0.183 HD
HETATM   27  C7  UNL     1      47.940 -18.862  87.433  1.00  0.00     0.035 A 
HETATM   28  C8  UNL     1      48.690 -17.818  86.923  1.00  0.00     0.107 A 
HETATM   29  N3  UNL     1      49.837 -17.508  87.572  1.00  0.00    -0.202 N 
ATOM     30  H3  UNL     1      50.405 -16.741  87.213  1.00  0.00     0.183 HD
ENDBRANCH  21  23
ENDBRANCH   3  21
TORSDOF 5
ENDMDL
MODEL 5
REMARK VINA RESULT: -7.236694704      2.754      7.714
REMARK  5 active torsions:
REMARK  status: ('A' for Active; 'I' for Inactive)
REMARK    1  A    between atoms: O1_2  and  C2_3 
REMARK    2  A    between atoms: C4_5  and  N1_6 
REMARK    3  A    between atoms: N1_6  and  C5_8 
REMARK    4  A    between atoms: C12_19  and  C13_20 
REMARK    5  A    between atoms: C15_26  and  N6_27 
ROOT
HETATM    1  C2  UNL     1      57.059 -21.335  86.814  1.00  0.00     0.081 A 
HETATM    2  C3  UNL     1      56.167 -20.525  87.501  1.00  0.00     0.068 A 
HETATM    3  C4  UNL     1      55.017 -20.092  86.882  1.00  0.00     0.058 A 
HETATM    4  C9  UNL     1      54.772 -20.473  85.583  1.00  0.00    -0.034 A 
HETATM    5  C10 UNL     1      53.531 -20.019  84.884  1.00  0.00     0.050 C 
HETATM    6  C11 UNL     1      55.662 -21.273  84.921  1.00  0.00     0.024 A 
HETATM    7  C12 UNL     1      56.844 -21.739  85.508  1.00  0.00     0.010 A 
ENDROOT
BRANCH   7   8
HETATM    8  C13 UNL     1      57.759 -22.584  84.767  1.00  0.00    -0.003 A 
HETATM    9  C14 UNL     1      58.757 -21.988  84.030  1.00  0.00     0.119 A 
HETATM   10  N4  UNL     1      59.643 -22.741  83.317  1.00  0.00    -0.309 N 
HETATM   11  N5  UNL     1      59.606 -24.054  83.284  1.00  0.00    -0.286 N 
ATOM     12  H4  UNL     1      60.368 -22.262  82.784  1.00  0.00     0.186 HD
HETATM   13  C15 UNL     1      58.656 -24.686  83.984  1.00  0.00     0.114 A 
ATOM     14  H5  UNL     1      60.287 -24.581  82.737  1.00  0.00     0.188 HD
HETATM   15  C16 UNL     1      57.720 -23.963  84.734  1.00  0.00     0.063 A 
BRANCH  13  16
HETATM   16  N6  UNL     1      58.604 -25.968  83.964  1.00  0.00    -0.384 N 
ATOM     17  H62 UNL     1      58.286 -26.476  84.789  1.00  0.00     0.157 HD
ATOM     18  H61 UNL     1      58.882 -26.468  83.120  1.00  0.00     0.157 HD
ENDBRANCH  13  16
ENDBRANCH   7   8
BRANCH   1  19
HETATM   19  O1  UNL     1      58.195 -21.753  87.449  1.00  0.00    -0.355 OA
HETATM   20  C1  UNL     1      58.834 -21.120  88.512  1.00  0.00     0.210 C 
ENDBRANCH   1  19
BRANCH   3  21
HETATM   21  N1  UNL     1      54.077 -19.270  87.523  1.00  0.00    -0.191 N 
ATOM     22  H1  UNL     1      53.607 -18.574  86.946  1.00  0.00     0.184 HD
BRANCH  21  23
HETATM   23  C5  UNL     1      53.754 -19.307  88.746  1.00  0.00     0.682 A 
HETATM   24  N2  UNL     1      52.894 -20.229  89.191  1.00  0.00    -0.202 N 
HETATM   25  C6  UNL     1      52.560 -20.253  90.506  1.00  0.00     0.107 A 
ATOM     26  H2  UNL     1      52.493 -20.910  88.546  1.00  0.00     0.183 HD
HETATM   27  C7  UNL     1      53.105 -19.327  91.388  1.00  0.00     0.035 A 
HETATM   28  C8  UNL     1      53.994 -18.380  90.912  1.00  0.00     0.107 A 
HETATM   29  N3  UNL     1      54.282 -18.414  89.590  1.00  0.00    -0.202 N 
ATOM     30  H3  UNL     1      54.935 -17.724  89.218  1.00  0.00     0.183 HD
ENDBRANCH  21  23
ENDBRANCH   3  21
TORSDOF 5
ENDMDL
