MODEL 1
REMARK VINA RESULT: -1.953089655      0.000      0.000
REMARK  2 active torsions:
REMARK  status: ('A' for Active; 'I' for Inactive)
REMARK       I    between atoms: N1_2  and  C2_4 
REMARK    1  A    between atoms: N3_6  and  O1_8 
REMARK    2  A    between atoms: O1_8  and  C3_9 
ROOT
HETATM    1  C1  UNL     1     -70.210  23.098 -15.037  1.00  0.00     0.148 C 
HETATM    2  N1  UNL     1     -68.979  22.342 -14.862  1.00  0.00    -0.367 N 
ATOM      3  H1  UNL     1     -68.124  22.838 -14.612  1.00  0.00     0.161 HD
HETATM    4  C2  UNL     1     -68.937  20.923 -15.032  1.00  0.00     0.207 C 
HETATM    5  N2  UNL     1     -70.152  20.191 -14.941  1.00  0.00    -0.062 NA
HETATM    6  N3  UNL     1     -67.805  20.393 -15.257  1.00  0.00    -0.238 N 
ATOM      7  H3  UNL     1     -66.994  21.009 -15.304  1.00  0.00     0.197 HD
ENDROOT
BRANCH   6   8
HETATM    8  O1  UNL     1     -67.599  19.048 -15.441  1.00  0.00    -0.268 OA
BRANCH   8   9
HETATM    9  C3  UNL     1     -67.146  18.545 -16.686  1.00  0.00     0.078 C 
HETATM   10  C4  UNL     1     -67.063  17.043 -16.629  1.00  0.00     0.048 C 
HETATM   11  C5  UNL     1     -68.098  19.023 -17.759  1.00  0.00     0.048 C 
HETATM   12  C6  UNL     1     -65.780  19.142 -16.991  1.00  0.00     0.048 C 
ENDBRANCH   8   9
ENDBRANCH   6   8
TORSDOF 2
ENDMDL
MODEL 2
REMARK VINA RESULT: -1.926467956      0.064      1.365
REMARK  2 active torsions:
REMARK  status: ('A' for Active; 'I' for Inactive)
REMARK       I    between atoms: N1_2  and  C2_4 
REMARK    1  A    between atoms: N3_6  and  O1_8 
REMARK    2  A    between atoms: O1_8  and  C3_9 
ROOT
HETATM    1  C1  UNL     1     -70.228  23.051 -14.994  1.00  0.00     0.148 C 
HETATM    2  N1  UNL     1     -68.992  22.302 -14.827  1.00  0.00    -0.367 N 
ATOM      3  H1  UNL     1     -68.144  22.798 -14.552  1.00  0.00     0.161 HD
HETATM    4  C2  UNL     1     -68.933  20.888 -15.037  1.00  0.00     0.207 C 
HETATM    5  N2  UNL     1     -70.142  20.143 -14.982  1.00  0.00    -0.062 NA
HETATM    6  N3  UNL     1     -67.794  20.376 -15.263  1.00  0.00    -0.238 N 
ATOM      7  H3  UNL     1     -66.988  21.001 -15.282  1.00  0.00     0.197 HD
ENDROOT
BRANCH   6   8
HETATM    8  O1  UNL     1     -67.572  19.040 -15.484  1.00  0.00    -0.268 OA
BRANCH   8   9
HETATM    9  C3  UNL     1     -67.081  18.579 -16.730  1.00  0.00     0.078 C 
HETATM   10  C4  UNL     1     -65.734  19.189 -17.007  1.00  0.00     0.048 C 
HETATM   11  C5  UNL     1     -67.025  17.069 -16.683  1.00  0.00     0.048 C 
HETATM   12  C6  UNL     1     -68.073  18.962 -17.820  1.00  0.00     0.048 C 
ENDBRANCH   8   9
ENDBRANCH   6   8
TORSDOF 2
ENDMDL
MODEL 3
REMARK VINA RESULT: -1.845936611      0.040      1.358
REMARK  2 active torsions:
REMARK  status: ('A' for Active; 'I' for Inactive)
REMARK       I    between atoms: N1_2  and  C2_4 
REMARK    1  A    between atoms: N3_6  and  O1_8 
REMARK    2  A    between atoms: O1_8  and  C3_9 
ROOT
HETATM    1  C1  UNL     1     -70.228  23.084 -15.011  1.00  0.00     0.148 C 
HETATM    2  N1  UNL     1     -68.991  22.336 -14.848  1.00  0.00    -0.367 N 
ATOM      3  H1  UNL     1     -68.140  22.834 -14.589  1.00  0.00     0.161 HD
HETATM    4  C2  UNL     1     -68.937  20.919 -15.040  1.00  0.00     0.207 C 
HETATM    5  N2  UNL     1     -70.147  20.176 -14.962  1.00  0.00    -0.062 NA
HETATM    6  N3  UNL     1     -67.801  20.402 -15.273  1.00  0.00    -0.238 N 
ATOM      7  H3  UNL     1     -66.995  21.025 -15.309  1.00  0.00     0.197 HD
ENDROOT
BRANCH   6   8
HETATM    8  O1  UNL     1     -67.584  19.062 -15.479  1.00  0.00    -0.268 OA
BRANCH   8   9
HETATM    9  C3  UNL     1     -67.141  18.581 -16.735  1.00  0.00     0.078 C 
HETATM   10  C4  UNL     1     -68.108  18.996 -17.811  1.00  0.00     0.048 C 
HETATM   11  C5  UNL     1     -65.750  19.118 -16.980  1.00  0.00     0.048 C 
HETATM   12  C6  UNL     1     -67.037  17.064 -16.671  1.00  0.00     0.048 C 
ENDBRANCH   8   9
ENDBRANCH   6   8
TORSDOF 2
ENDMDL
MODEL 4
REMARK VINA RESULT: -1.187661751      3.698      4.934
REMARK  2 active torsions:
REMARK  status: ('A' for Active; 'I' for Inactive)
REMARK       I    between atoms: N1_2  and  C2_4 
REMARK    1  A    between atoms: N3_6  and  O1_8 
REMARK    2  A    between atoms: O1_8  and  C3_9 
ROOT
HETATM    1  C1  UNL     1     -68.954  14.206 -11.908  1.00  0.00     0.148 C 
HETATM    2  N1  UNL     1     -68.552  15.495 -12.450  1.00  0.00    -0.367 N 
ATOM      3  H1  UNL     1     -68.534  16.308 -11.835  1.00  0.00     0.161 HD
HETATM    4  C2  UNL     1     -68.182  15.652 -13.822  1.00  0.00     0.207 C 
HETATM    5  N2  UNL     1     -67.783  14.501 -14.555  1.00  0.00    -0.062 NA
HETATM    6  N3  UNL     1     -68.231  16.822 -14.312  1.00  0.00    -0.238 N 
ATOM      7  H3  UNL     1     -68.532  17.581 -13.700  1.00  0.00     0.197 HD
ENDROOT
BRANCH   6   8
HETATM    8  O1  UNL     1     -67.908  17.137 -15.608  1.00  0.00    -0.268 OA
BRANCH   8   9
HETATM    9  C3  UNL     1     -68.001  18.470 -16.079  1.00  0.00     0.078 C 
HETATM   10  C4  UNL     1     -67.773  18.504 -17.567  1.00  0.00     0.048 C 
HETATM   11  C5  UNL     1     -69.361  19.009 -15.698  1.00  0.00     0.048 C 
HETATM   12  C6  UNL     1     -66.959  19.318 -15.363  1.00  0.00     0.048 C 
ENDBRANCH   8   9
ENDBRANCH   6   8
TORSDOF 2
ENDMDL
MODEL 5
REMARK VINA RESULT: -1.176647277      3.573      4.958
REMARK  2 active torsions:
REMARK  status: ('A' for Active; 'I' for Inactive)
REMARK       I    between atoms: N1_2  and  C2_4 
REMARK    1  A    between atoms: N3_6  and  O1_8 
REMARK    2  A    between atoms: O1_8  and  C3_9 
ROOT
HETATM    1  C1  UNL     1     -68.913  14.201 -12.186  1.00  0.00     0.148 C 
HETATM    2  N1  UNL     1     -68.519  15.507 -12.690  1.00  0.00    -0.367 N 
ATOM      3  H1  UNL     1     -68.538  16.309 -12.060  1.00  0.00     0.161 HD
HETATM    4  C2  UNL     1     -68.107  15.699 -14.046  1.00  0.00     0.207 C 
HETATM    5  N2  UNL     1     -67.661  14.570 -14.786  1.00  0.00    -0.062 NA
HETATM    6  N3  UNL     1     -68.163  16.877 -14.515  1.00  0.00    -0.238 N 
ATOM      7  H3  UNL     1     -68.500  17.617 -13.900  1.00  0.00     0.197 HD
ENDROOT
BRANCH   6   8
HETATM    8  O1  UNL     1     -67.804  17.223 -15.794  1.00  0.00    -0.268 OA
BRANCH   8   9
HETATM    9  C3  UNL     1     -67.910  18.562 -16.243  1.00  0.00     0.078 C 
HETATM   10  C4  UNL     1     -69.213  19.156 -15.778  1.00  0.00     0.048 C 
HETATM   11  C5  UNL     1     -66.715  19.328 -15.722  1.00  0.00     0.048 C 
HETATM   12  C6  UNL     1     -67.831  18.578 -17.763  1.00  0.00     0.048 C 
ENDBRANCH   8   9
ENDBRANCH   6   8
TORSDOF 2
ENDMDL
