MODEL 1
REMARK VINA RESULT: -6.565471579      0.000      0.000
REMARK  4 active torsions:
REMARK  status: ('A' for Active; 'I' for Inactive)
REMARK    1  A    between atoms: S1_2  and  C2_3 
REMARK    2  A    between atoms: C3_6  and  C4_7 
REMARK       I    between atoms: C4_7  and  N2_9 
REMARK    3  A    between atoms: N2_9  and  C5_11 
REMARK    4  A    between atoms: N3_21  and  C15_22 
ROOT
HETATM    1  C4  UNL     1     -21.331  -5.557  12.325  1.00  0.00     0.287 C 
HETATM    2  O1  UNL     1     -21.292  -5.779  13.559  1.00  0.00    -0.264 OA
HETATM    3  N2  UNL     1     -20.800  -4.333  11.860  1.00  0.00    -0.349 N 
ATOM      4  H2  UNL     1     -20.814  -4.115  10.863  1.00  0.00     0.163 HD
ENDROOT
BRANCH   1   5
HETATM    5  C3  UNL     1     -21.912  -6.541  11.398  1.00  0.00     0.194 A 
HETATM    6  N1  UNL     1     -21.253  -7.484  10.693  1.00  0.00    -0.316 N 
HETATM    7  C2  UNL     1     -22.128  -8.188   9.963  1.00  0.00     0.160 A 
ATOM      8  H1  UNL     1     -20.245  -7.636  10.713  1.00  0.00     0.169 HD
HETATM    9  N4  UNL     1     -23.321  -7.658  10.237  1.00  0.00    -0.276 N 
HETATM   10  N3  UNL     1     -23.201  -6.655  11.109  1.00  0.00    -0.266 N 
ATOM     11  H4  UNL     1     -24.203  -7.975   9.835  1.00  0.00     0.189 HD
BRANCH   7  12
HETATM   12  S1  UNL     1     -21.861  -9.542   8.850  1.00  0.00    -0.097 SA
HETATM   13  C1  UNL     1     -21.935 -11.137   9.708  1.00  0.00     0.099 C 
ENDBRANCH   7  12
BRANCH  10  14
HETATM   14  C15 UNL     1     -24.341  -5.899  11.584  1.00  0.00     0.102 C 
HETATM   15  C16 UNL     1     -25.571  -6.759  11.451  1.00  0.00     0.034 C 
HETATM   16  C17 UNL     1     -24.466  -4.650  10.733  1.00  0.00     0.034 C 
ENDBRANCH  10  14
ENDBRANCH   1   5
BRANCH   3  17
HETATM   17  C5  UNL     1     -20.241  -3.396  12.797  1.00  0.00     0.093 C 
HETATM   18  C6  UNL     1     -20.730  -2.005  12.466  1.00  0.00     0.009 C 
HETATM   19  C7  UNL     1     -20.132  -0.971  13.361  1.00  0.00     0.011 C 
HETATM   20  C11 UNL     1     -20.404  -1.692  11.043  1.00  0.00     0.011 C 
HETATM   21  C8  UNL     1     -18.617  -1.019  13.192  1.00  0.00    -0.013 C 
HETATM   22  C9  UNL     1     -18.311  -0.680  11.763  1.00  0.00     0.009 C 
HETATM   23  C14 UNL     1     -18.157  -2.391  13.583  1.00  0.00     0.011 C 
HETATM   24  C10 UNL     1     -18.903  -1.745  10.840  1.00  0.00    -0.013 C 
HETATM   25  C12 UNL     1     -18.323  -3.064  11.237  1.00  0.00     0.011 C 
HETATM   26  C13 UNL     1     -18.741  -3.423  12.650  1.00  0.00     0.009 C 
ENDBRANCH   3  17
TORSDOF 4
ENDMDL
MODEL 2
REMARK VINA RESULT: -6.548878386      1.561      2.293
REMARK  4 active torsions:
REMARK  status: ('A' for Active; 'I' for Inactive)
REMARK    1  A    between atoms: S1_2  and  C2_3 
REMARK    2  A    between atoms: C3_6  and  C4_7 
REMARK       I    between atoms: C4_7  and  N2_9 
REMARK    3  A    between atoms: N2_9  and  C5_11 
REMARK    4  A    between atoms: N3_21  and  C15_22 
ROOT
HETATM    1  C4  UNL     1     -22.764  -5.095  10.617  1.00  0.00     0.287 C 
HETATM    2  O1  UNL     1     -23.538  -4.184  10.236  1.00  0.00    -0.264 OA
HETATM    3  N2  UNL     1     -21.436  -4.737  10.940  1.00  0.00    -0.349 N 
ATOM      4  H2  UNL     1     -20.775  -5.448  11.253  1.00  0.00     0.163 HD
ENDROOT
BRANCH   1   5
HETATM    5  C3  UNL     1     -23.228  -6.487  10.721  1.00  0.00     0.194 A 
HETATM    6  N1  UNL     1     -22.683  -7.573  10.134  1.00  0.00    -0.316 N 
HETATM    7  C2  UNL     1     -23.388  -8.663  10.469  1.00  0.00     0.160 A 
ATOM      8  H1  UNL     1     -21.862  -7.565   9.530  1.00  0.00     0.169 HD
HETATM    9  N4  UNL     1     -24.363  -8.219  11.264  1.00  0.00    -0.276 N 
HETATM   10  N3  UNL     1     -24.275  -6.897  11.424  1.00  0.00    -0.266 N 
ATOM     11  H4  UNL     1     -25.077  -8.809  11.690  1.00  0.00     0.189 HD
BRANCH   7  12
HETATM   12  S1  UNL     1     -23.156 -10.359  10.011  1.00  0.00    -0.097 SA
HETATM   13  C1  UNL     1     -21.462 -10.676   9.451  1.00  0.00     0.099 C 
ENDBRANCH   7  12
BRANCH  10  14
HETATM   14  C15 UNL     1     -25.209  -6.150  12.240  1.00  0.00     0.102 C 
HETATM   15  C16 UNL     1     -25.000  -6.541  13.680  1.00  0.00     0.034 C 
HETATM   16  C17 UNL     1     -26.614  -6.499  11.789  1.00  0.00     0.034 C 
ENDBRANCH  10  14
ENDBRANCH   1   5
BRANCH   3  17
HETATM   17  C5  UNL     1     -21.019  -3.365  10.825  1.00  0.00     0.093 C 
HETATM   18  C6  UNL     1     -19.677  -3.306  10.133  1.00  0.00     0.009 C 
HETATM   19  C7  UNL     1     -19.153  -1.911  10.043  1.00  0.00     0.011 C 
HETATM   20  C11 UNL     1     -18.703  -4.165  10.870  1.00  0.00     0.011 C 
HETATM   21  C8  UNL     1     -19.006  -1.367  11.460  1.00  0.00    -0.013 C 
HETATM   22  C9  UNL     1     -18.008  -2.231  12.173  1.00  0.00     0.009 C 
HETATM   23  C14 UNL     1     -20.362  -1.385  12.098  1.00  0.00     0.011 C 
HETATM   24  C10 UNL     1     -18.546  -3.657  12.289  1.00  0.00    -0.013 C 
HETATM   25  C12 UNL     1     -19.850  -3.594  13.016  1.00  0.00     0.011 C 
HETATM   26  C13 UNL     1     -20.866  -2.803  12.215  1.00  0.00     0.009 C 
ENDBRANCH   3  17
TORSDOF 4
ENDMDL
MODEL 3
REMARK VINA RESULT: -6.530226871      3.207      4.882
REMARK  4 active torsions:
REMARK  status: ('A' for Active; 'I' for Inactive)
REMARK    1  A    between atoms: S1_2  and  C2_3 
REMARK    2  A    between atoms: C3_6  and  C4_7 
REMARK       I    between atoms: C4_7  and  N2_9 
REMARK    3  A    between atoms: N2_9  and  C5_11 
REMARK    4  A    between atoms: N3_21  and  C15_22 
ROOT
HETATM    1  C4  UNL     1     -22.372  -5.776  10.830  1.00  0.00     0.287 C 
HETATM    2  O1  UNL     1     -22.522  -6.670   9.963  1.00  0.00    -0.264 OA
HETATM    3  N2  UNL     1     -21.916  -4.510  10.399  1.00  0.00    -0.349 N 
ATOM      4  H2  UNL     1     -21.781  -3.757  11.073  1.00  0.00     0.163 HD
ENDROOT
BRANCH   1   5
HETATM    5  C3  UNL     1     -22.662  -6.042  12.248  1.00  0.00     0.194 A 
HETATM    6  N1  UNL     1     -23.873  -6.232  12.810  1.00  0.00    -0.316 N 
HETATM    7  C2  UNL     1     -23.727  -6.449  14.124  1.00  0.00     0.160 A 
ATOM      8  H1  UNL     1     -24.763  -6.213  12.311  1.00  0.00     0.169 HD
HETATM    9  N4  UNL     1     -22.413  -6.388  14.346  1.00  0.00    -0.276 N 
HETATM   10  N3  UNL     1     -21.755  -6.141  13.211  1.00  0.00    -0.266 N 
ATOM     11  H4  UNL     1     -21.972  -6.512  15.257  1.00  0.00     0.189 HD
BRANCH   7  12
HETATM   12  S1  UNL     1     -24.944  -6.760  15.375  1.00  0.00    -0.097 SA
HETATM   13  C1  UNL     1     -26.626  -6.513  14.747  1.00  0.00     0.099 C 
ENDBRANCH   7  12
BRANCH  10  14
HETATM   14  C15 UNL     1     -20.313  -6.022  13.159  1.00  0.00     0.102 C 
HETATM   15  C16 UNL     1     -19.730  -6.816  14.299  1.00  0.00     0.034 C 
HETATM   16  C17 UNL     1     -19.955  -4.554  13.292  1.00  0.00     0.034 C 
ENDBRANCH  10  14
ENDBRANCH   1   5
BRANCH   3  17
HETATM   17  C5  UNL     1     -21.643  -4.288   9.004  1.00  0.00     0.093 C 
HETATM   18  C6  UNL     1     -20.237  -4.745   8.690  1.00  0.00     0.009 C 
HETATM   19  C7  UNL     1     -19.864  -4.479   7.269  1.00  0.00     0.011 C 
HETATM   20  C11 UNL     1     -19.279  -4.055   9.603  1.00  0.00     0.011 C 
HETATM   21  C8  UNL     1     -19.965  -2.976   7.027  1.00  0.00    -0.013 C 
HETATM   22  C9  UNL     1     -18.977  -2.306   7.937  1.00  0.00     0.009 C 
HETATM   23  C14 UNL     1     -21.381  -2.566   7.290  1.00  0.00     0.011 C 
HETATM   24  C10 UNL     1     -19.364  -2.556   9.395  1.00  0.00    -0.013 C 
HETATM   25  C12 UNL     1     -20.751  -2.035   9.594  1.00  0.00     0.011 C 
HETATM   26  C13 UNL     1     -21.736  -2.807   8.737  1.00  0.00     0.009 C 
ENDBRANCH   3  17
TORSDOF 4
ENDMDL
MODEL 4
REMARK VINA RESULT: -6.181198426      2.035      3.360
REMARK  4 active torsions:
REMARK  status: ('A' for Active; 'I' for Inactive)
REMARK    1  A    between atoms: S1_2  and  C2_3 
REMARK    2  A    between atoms: C3_6  and  C4_7 
REMARK       I    between atoms: C4_7  and  N2_9 
REMARK    3  A    between atoms: N2_9  and  C5_11 
REMARK    4  A    between atoms: N3_21  and  C15_22 
ROOT
HETATM    1  C4  UNL     1     -21.615  -6.134  11.901  1.00  0.00     0.287 C 
HETATM    2  O1  UNL     1     -20.695  -6.984  11.838  1.00  0.00    -0.264 OA
HETATM    3  N2  UNL     1     -21.249  -4.773  11.998  1.00  0.00    -0.349 N 
ATOM      4  H2  UNL     1     -21.968  -4.051  12.052  1.00  0.00     0.163 HD
ENDROOT
BRANCH   1   5
HETATM    5  C3  UNL     1     -23.027  -6.546  11.875  1.00  0.00     0.194 A 
HETATM    6  N1  UNL     1     -24.052  -5.983  12.548  1.00  0.00    -0.316 N 
HETATM    7  C2  UNL     1     -25.186  -6.639  12.265  1.00  0.00     0.160 A 
ATOM      8  H1  UNL     1     -23.975  -5.183  13.175  1.00  0.00     0.169 HD
HETATM    9  N4  UNL     1     -24.832  -7.602  11.413  1.00  0.00    -0.276 N 
HETATM   10  N3  UNL     1     -23.520  -7.555  11.169  1.00  0.00    -0.266 N 
ATOM     11  H4  UNL     1     -25.473  -8.282  11.005  1.00  0.00     0.189 HD
BRANCH   7  12
HETATM   12  S1  UNL     1     -26.840  -6.364  12.840  1.00  0.00    -0.097 SA
HETATM   13  C1  UNL     1     -26.939  -6.429  14.648  1.00  0.00     0.099 C 
ENDBRANCH   7  12
BRANCH  10  14
HETATM   14  C15 UNL     1     -22.862  -8.488  10.278  1.00  0.00     0.102 C 
HETATM   15  C16 UNL     1     -22.952  -7.947   8.875  1.00  0.00     0.034 C 
HETATM   16  C17 UNL     1     -23.573  -9.824  10.384  1.00  0.00     0.034 C 
ENDBRANCH  10  14
ENDBRANCH   1   5
BRANCH   3  17
HETATM   17  C5  UNL     1     -19.857  -4.410  12.021  1.00  0.00     0.093 C 
HETATM   18  C6  UNL     1     -19.644  -3.308  13.034  1.00  0.00     0.009 C 
HETATM   19  C7  UNL     1     -18.229  -2.835  13.059  1.00  0.00     0.011 C 
HETATM   20  C11 UNL     1     -20.554  -2.167  12.720  1.00  0.00     0.011 C 
HETATM   21  C8  UNL     1     -17.881  -2.308  11.671  1.00  0.00    -0.013 C 
HETATM   22  C9  UNL     1     -18.790  -1.149  11.388  1.00  0.00     0.009 C 
HETATM   23  C14 UNL     1     -18.046  -3.438  10.700  1.00  0.00     0.011 C 
HETATM   24  C10 UNL     1     -20.241  -1.629  11.338  1.00  0.00    -0.013 C 
HETATM   25  C12 UNL     1     -20.336  -2.684  10.285  1.00  0.00     0.011 C 
HETATM   26  C13 UNL     1     -19.487  -3.884  10.658  1.00  0.00     0.009 C 
ENDBRANCH   3  17
TORSDOF 4
ENDMDL
MODEL 5
REMARK VINA RESULT: -6.180983216      3.674      5.329
REMARK  4 active torsions:
REMARK  status: ('A' for Active; 'I' for Inactive)
REMARK    1  A    between atoms: S1_2  and  C2_3 
REMARK    2  A    between atoms: C3_6  and  C4_7 
REMARK       I    between atoms: C4_7  and  N2_9 
REMARK    3  A    between atoms: N2_9  and  C5_11 
REMARK    4  A    between atoms: N3_21  and  C15_22 
ROOT
HETATM    1  C4  UNL     1     -21.257  -4.757   8.879  1.00  0.00     0.287 C 
HETATM    2  O1  UNL     1     -20.549  -5.582   8.253  1.00  0.00    -0.264 OA
HETATM    3  N2  UNL     1     -21.409  -3.466   8.326  1.00  0.00    -0.349 N 
ATOM      4  H2  UNL     1     -21.977  -2.766   8.806  1.00  0.00     0.163 HD
ENDROOT
BRANCH   1   5
HETATM    5  C3  UNL     1     -21.904  -5.126  10.148  1.00  0.00     0.194 A 
HETATM    6  N1  UNL     1     -23.032  -5.848  10.308  1.00  0.00    -0.316 N 
HETATM    7  C2  UNL     1     -23.301  -5.975  11.614  1.00  0.00     0.160 A 
ATOM      8  H1  UNL     1     -23.594  -6.237   9.550  1.00  0.00     0.169 HD
HETATM    9  N4  UNL     1     -22.321  -5.321  12.239  1.00  0.00    -0.276 N 
HETATM   10  N3  UNL     1     -21.465  -4.801  11.357  1.00  0.00    -0.266 N 
ATOM     11  H4  UNL     1     -22.237  -5.230  13.251  1.00  0.00     0.189 HD
BRANCH   7  12
HETATM   12  S1  UNL     1     -24.636  -6.807  12.432  1.00  0.00    -0.097 SA
HETATM   13  C1  UNL     1     -26.248  -6.238  11.830  1.00  0.00     0.099 C 
ENDBRANCH   7  12
BRANCH  10  14
HETATM   14  C15 UNL     1     -20.302  -4.037  11.760  1.00  0.00     0.102 C 
HETATM   15  C16 UNL     1     -19.913  -4.464  13.151  1.00  0.00     0.034 C 
HETATM   16  C17 UNL     1     -20.672  -2.566  11.735  1.00  0.00     0.034 C 
ENDBRANCH  10  14
ENDBRANCH   1   5
BRANCH   3  17
HETATM   17  C5  UNL     1     -20.761  -3.142   7.084  1.00  0.00     0.093 C 
HETATM   18  C6  UNL     1     -19.494  -2.368   7.367  1.00  0.00     0.009 C 
HETATM   19  C7  UNL     1     -18.806  -1.940   6.114  1.00  0.00     0.011 C 
HETATM   20  C11 UNL     1     -19.821  -1.172   8.198  1.00  0.00     0.011 C 
HETATM   21  C8  UNL     1     -19.765  -1.053   5.326  1.00  0.00    -0.013 C 
HETATM   22  C9  UNL     1     -20.060   0.152   6.171  1.00  0.00     0.009 C 
HETATM   23  C14 UNL     1     -20.984  -1.865   5.012  1.00  0.00     0.011 C 
HETATM   24  C10 UNL     1     -20.785  -0.276   7.447  1.00  0.00    -0.013 C 
HETATM   25  C12 UNL     1     -22.031  -0.995   7.044  1.00  0.00     0.011 C 
HETATM   26  C13 UNL     1     -21.690  -2.263   6.285  1.00  0.00     0.009 C 
ENDBRANCH   3  17
TORSDOF 4
ENDMDL
