MODEL 1
REMARK VINA RESULT: -8.200443981      0.000      0.000
REMARK  21 active torsions:
REMARK  status: ('A' for Active; 'I' for Inactive)
REMARK    1  A    between atoms: O1_2  and  C2_3 
REMARK    2  A    between atoms: C2_3  and  C3_5 
REMARK    3  A    between atoms: C3_5  and  C4_6 
REMARK    4  A    between atoms: C4_6  and  C5_7 
REMARK    5  A    between atoms: C5_7  and  C6_8 
REMARK    6  A    between atoms: C6_8  and  C7_9 
REMARK    7  A    between atoms: C7_9  and  C8_10 
REMARK    8  A    between atoms: C8_10  and  C9_11 
REMARK    9  A    between atoms: C9_11  and  O4_13 
REMARK   10  A    between atoms: C13_17  and  C14_18 
REMARK   11  A    between atoms: C14_18  and  O5_19 
REMARK   12  A    between atoms: C14_18  and  N1_21 
REMARK   13  A    between atoms: N1_21  and  C15_23 
REMARK   14  A    between atoms: C15_23  and  C16_24 
REMARK   15  A    between atoms: C16_24  and  O6_25 
REMARK   16  A    between atoms: N2_27  and  C17_28 
REMARK   17  A    between atoms: C17_28  and  O7_29 
REMARK   18  A    between atoms: C18_31  and  N3_32 
REMARK   19  A    between atoms: C18_31  and  C24_41 
REMARK       I    between atoms: N3_32  and  C19_34 
REMARK   20  A    between atoms: C19_34  and  O9_36 
REMARK   21  A    between atoms: O9_36  and  C20_37 
ROOT
HETATM    1  C8  UNL     1      18.818  31.011  13.993  1.00  0.00     0.064 C 
HETATM    2  C11 UNL     1      19.217  29.807  14.738  1.00  0.00     0.024 C 
HETATM    3  C12 UNL     1      19.474  30.015  16.174  1.00  0.00     0.035 C 
HETATM    4  C13 UNL     1      19.953  31.386  16.562  1.00  0.00     0.160 C 
HETATM    5  N2  UNL     1      19.093  32.428  16.025  1.00  0.00    -0.347 N 
HETATM    6  C28 UNL     1      18.466  32.246  14.754  1.00  0.00     0.145 C 
ENDROOT
BRANCH   5   7
HETATM    7  C17 UNL     1      18.949  33.603  16.747  1.00  0.00     0.163 C 
HETATM    8  C18 UNL     1      18.065  34.692  16.950  1.00  0.00     0.072 C 
BRANCH   7   9
HETATM    9  O7  UNL     1      20.024  33.772  17.538  1.00  0.00    -0.345 OA
ATOM     10  H7  UNL     1      20.801  33.854  16.998  1.00  0.00     0.219 HD
ENDBRANCH   7   9
BRANCH   8  11
HETATM   11  N3  UNL     1      18.795  35.960  16.912  1.00  0.00    -0.301 N 
HETATM   12  C19 UNL     1      19.378  36.615  18.012  1.00  0.00     0.365 C 
HETATM   13  O8  UNL     1      19.358  36.180  19.206  1.00  0.00    -0.238 OA
ATOM     14  H3  UNL     1      18.890  36.412  16.003  1.00  0.00     0.171 HD
BRANCH  12  15
HETATM   15  O9  UNL     1      20.043  37.818  17.899  1.00  0.00    -0.294 OA
BRANCH  15  16
HETATM   16  C20 UNL     1      21.314  38.143  17.564  1.00  0.00     0.061 C 
HETATM   17  C21 UNL     1      21.923  39.155  18.498  1.00  0.00     0.046 C 
HETATM   18  C22 UNL     1      22.279  36.991  17.421  1.00  0.00     0.046 C 
HETATM   19  C23 UNL     1      21.254  38.835  16.190  1.00  0.00     0.046 C 
ENDBRANCH  15  16
ENDBRANCH  12  15
ENDBRANCH   8  11
BRANCH   8  20
HETATM   20  C24 UNL     1      16.706  34.887  16.504  1.00  0.00    -0.004 C 
HETATM   21  C25 UNL     1      16.476  34.900  15.015  1.00  0.00     0.021 C 
HETATM   22  C26 UNL     1      15.875  35.968  17.126  1.00  0.00     0.021 C 
HETATM   23  C27 UNL     1      15.947  33.587  16.946  1.00  0.00     0.021 C 
ENDBRANCH   8  20
ENDBRANCH   5   7
BRANCH   4  24
HETATM   24  C14 UNL     1      21.400  31.580  16.435  1.00  0.00     0.135 C 
BRANCH  24  25
HETATM   25  O5  UNL     1      22.021  31.623  17.588  1.00  0.00    -0.348 OA
ATOM     26  H5  UNL     1      22.678  32.307  17.636  1.00  0.00     0.219 HD
ENDBRANCH  24  25
BRANCH  24  27
HETATM   27  N1  UNL     1      22.202  31.723  15.318  1.00  0.00    -0.371 N 
ATOM     28  H1  UNL     1      22.451  30.873  14.811  1.00  0.00     0.161 HD
BRANCH  27  29
HETATM   29  C15 UNL     1      22.714  32.962  14.812  1.00  0.00     0.147 C 
BRANCH  29  30
HETATM   30  C16 UNL     1      23.528  33.792  15.727  1.00  0.00     0.183 C 
BRANCH  30  31
HETATM   31  O6  UNL     1      24.862  33.938  15.468  1.00  0.00    -0.399 OA
ATOM     32  H6  UNL     1      25.390  34.452  16.069  1.00  0.00     0.209 HD
ENDBRANCH  30  31
ENDBRANCH  29  30
ENDBRANCH  27  29
ENDBRANCH  24  27
ENDBRANCH   4  24
BRANCH   1  33
HETATM   33  C7  UNL     1      17.657  30.569  13.046  1.00  0.00     0.021 C 
BRANCH  33  34
HETATM   34  C6  UNL     1      17.746  29.143  12.701  1.00  0.00     0.001 C 
BRANCH  34  35
HETATM   35  C5  UNL     1      17.612  28.791  11.278  1.00  0.00     0.001 C 
BRANCH  35  36
HETATM   36  C4  UNL     1      18.399  27.715  10.646  1.00  0.00     0.010 C 
BRANCH  36  37
HETATM   37  C3  UNL     1      19.159  26.798  11.540  1.00  0.00     0.111 C 
BRANCH  37  38
HETATM   38  C2  UNL     1      19.147  25.415  10.957  1.00  0.00     0.258 C 
HETATM   39  O2  UNL     1      18.154  25.044  10.299  1.00  0.00    -0.265 OA
BRANCH  38  40
HETATM   40  O1  UNL     1      20.210  24.562  11.140  1.00  0.00    -0.326 OA
HETATM   41  C1  UNL     1      21.561  24.964  11.171  1.00  0.00     0.213 C 
ENDBRANCH  38  40
ENDBRANCH  37  38
ENDBRANCH  36  37
ENDBRANCH  35  36
ENDBRANCH  34  35
ENDBRANCH  33  34
ENDBRANCH   1  33
BRANCH   1  42
HETATM   42  C9  UNL     1      19.928  31.336  13.061  1.00  0.00     0.269 C 
HETATM   43  O3  UNL     1      19.995  32.279  12.274  1.00  0.00    -0.264 OA
BRANCH  42  44
HETATM   44  O4  UNL     1      21.009  30.437  13.116  1.00  0.00    -0.326 OA
HETATM   45  C10 UNL     1      21.550  29.928  11.930  1.00  0.00     0.213 C 
ENDBRANCH  42  44
ENDBRANCH   1  42
TORSDOF 21
ENDMDL
MODEL 2
REMARK VINA RESULT: -8.114766594      2.746     10.107
REMARK  21 active torsions:
REMARK  status: ('A' for Active; 'I' for Inactive)
REMARK    1  A    between atoms: O1_2  and  C2_3 
REMARK    2  A    between atoms: C2_3  and  C3_5 
REMARK    3  A    between atoms: C3_5  and  C4_6 
REMARK    4  A    between atoms: C4_6  and  C5_7 
REMARK    5  A    between atoms: C5_7  and  C6_8 
REMARK    6  A    between atoms: C6_8  and  C7_9 
REMARK    7  A    between atoms: C7_9  and  C8_10 
REMARK    8  A    between atoms: C8_10  and  C9_11 
REMARK    9  A    between atoms: C9_11  and  O4_13 
REMARK   10  A    between atoms: C13_17  and  C14_18 
REMARK   11  A    between atoms: C14_18  and  O5_19 
REMARK   12  A    between atoms: C14_18  and  N1_21 
REMARK   13  A    between atoms: N1_21  and  C15_23 
REMARK   14  A    between atoms: C15_23  and  C16_24 
REMARK   15  A    between atoms: C16_24  and  O6_25 
REMARK   16  A    between atoms: N2_27  and  C17_28 
REMARK   17  A    between atoms: C17_28  and  O7_29 
REMARK   18  A    between atoms: C18_31  and  N3_32 
REMARK   19  A    between atoms: C18_31  and  C24_41 
REMARK       I    between atoms: N3_32  and  C19_34 
REMARK   20  A    between atoms: C19_34  and  O9_36 
REMARK   21  A    between atoms: O9_36  and  C20_37 
ROOT
HETATM    1  C8  UNL     1      21.170  31.030  13.709  1.00  0.00     0.064 C 
HETATM    2  C11 UNL     1      20.792  30.721  15.097  1.00  0.00     0.024 C 
HETATM    3  C12 UNL     1      20.574  29.292  15.383  1.00  0.00     0.035 C 
HETATM    4  C13 UNL     1      20.105  28.456  14.226  1.00  0.00     0.160 C 
HETATM    5  N2  UNL     1      20.950  28.634  13.056  1.00  0.00    -0.347 N 
HETATM    6  C28 UNL     1      21.542  29.909  12.797  1.00  0.00     0.145 C 
ENDROOT
BRANCH   5   7
HETATM    7  C17 UNL     1      21.112  27.565  12.189  1.00  0.00     0.163 C 
HETATM    8  C18 UNL     1      22.014  27.017  11.242  1.00  0.00     0.072 C 
BRANCH   7   9
HETATM    9  O7  UNL     1      20.039  26.757  12.274  1.00  0.00    -0.345 OA
ATOM     10  H7  UNL     1      20.147  26.171  13.014  1.00  0.00     0.219 HD
ENDBRANCH   7   9
BRANCH   8  11
HETATM   11  N3  UNL     1      21.305  26.629  10.022  1.00  0.00    -0.301 N 
HETATM   12  C19 UNL     1      20.720  25.376   9.765  1.00  0.00     0.365 C 
HETATM   13  O8  UNL     1      20.720  24.398  10.578  1.00  0.00    -0.238 OA
ATOM     14  H3  UNL     1      21.227  27.334   9.289  1.00  0.00     0.171 HD
BRANCH  12  15
HETATM   15  O9  UNL     1      20.076  25.081   8.582  1.00  0.00    -0.294 OA
BRANCH  15  16
HETATM   16  C20 UNL     1      18.857  25.404   8.088  1.00  0.00     0.061 C 
HETATM   17  C21 UNL     1      17.771  25.342   9.129  1.00  0.00     0.046 C 
HETATM   18  C22 UNL     1      18.758  26.734   7.380  1.00  0.00     0.046 C 
HETATM   19  C23 UNL     1      18.493  24.328   7.049  1.00  0.00     0.046 C 
ENDBRANCH  15  16
ENDBRANCH  12  15
ENDBRANCH   8  11
BRANCH   8  20
HETATM   20  C24 UNL     1      23.376  27.380  10.932  1.00  0.00    -0.004 C 
HETATM   21  C25 UNL     1      24.330  27.491  12.092  1.00  0.00     0.021 C 
HETATM   22  C26 UNL     1      23.638  28.514   9.987  1.00  0.00     0.021 C 
HETATM   23  C27 UNL     1      23.951  26.151  10.144  1.00  0.00     0.021 C 
ENDBRANCH   8  20
ENDBRANCH   5   7
BRANCH   4  24
HETATM   24  C14 UNL     1      18.655  28.474  14.015  1.00  0.00     0.135 C 
BRANCH  24  25
HETATM   25  O5  UNL     1      18.069  27.348  14.341  1.00  0.00    -0.348 OA
ATOM     26  H5  UNL     1      17.191  27.466  14.684  1.00  0.00     0.219 HD
ENDBRANCH  24  25
BRANCH  24  27
HETATM   27  N1  UNL     1      17.820  29.466  13.536  1.00  0.00    -0.371 N 
ATOM     28  H1  UNL     1      17.503  30.171  14.202  1.00  0.00     0.161 HD
BRANCH  27  29
HETATM   29  C15 UNL     1      17.360  29.589  12.185  1.00  0.00     0.147 C 
BRANCH  29  30
HETATM   30  C16 UNL     1      17.526  28.420  11.294  1.00  0.00     0.183 C 
BRANCH  30  31
HETATM   31  O6  UNL     1      18.539  28.432  10.376  1.00  0.00    -0.399 OA
ATOM     32  H6  UNL     1      19.414  28.191  10.658  1.00  0.00     0.209 HD
ENDBRANCH  30  31
ENDBRANCH  29  30
ENDBRANCH  27  29
ENDBRANCH  24  27
ENDBRANCH   4  24
BRANCH   1  33
HETATM   33  C7  UNL     1      22.306  32.099  13.798  1.00  0.00     0.021 C 
BRANCH  33  34
HETATM   34  C6  UNL     1      22.934  32.118  15.127  1.00  0.00     0.001 C 
BRANCH  34  35
HETATM   35  C5  UNL     1      23.601  33.367  15.532  1.00  0.00     0.001 C 
BRANCH  35  36
HETATM   36  C4  UNL     1      22.906  34.437  16.274  1.00  0.00     0.010 C 
BRANCH  36  37
HETATM   37  C3  UNL     1      22.360  34.102  17.619  1.00  0.00     0.111 C 
BRANCH  37  38
HETATM   38  C2  UNL     1      20.913  34.497  17.676  1.00  0.00     0.258 C 
HETATM   39  O2  UNL     1      20.141  34.103  16.778  1.00  0.00    -0.265 OA
BRANCH  38  40
HETATM   40  O1  UNL     1      20.435  35.282  18.700  1.00  0.00    -0.326 OA
HETATM   41  C1  UNL     1      19.076  35.603  18.893  1.00  0.00     0.213 C 
ENDBRANCH  38  40
ENDBRANCH  37  38
ENDBRANCH  36  37
ENDBRANCH  35  36
ENDBRANCH  34  35
ENDBRANCH  33  34
ENDBRANCH   1  33
BRANCH   1  42
HETATM   42  C9  UNL     1      20.035  31.771  13.102  1.00  0.00     0.269 C 
HETATM   43  O3  UNL     1      19.933  32.167  11.942  1.00  0.00    -0.264 OA
BRANCH  42  44
HETATM   44  O4  UNL     1      18.975  32.030  13.990  1.00  0.00    -0.326 OA
HETATM   45  C10 UNL     1      18.368  33.291  13.999  1.00  0.00     0.213 C 
ENDBRANCH  42  44
ENDBRANCH   1  42
TORSDOF 21
ENDMDL
MODEL 3
REMARK VINA RESULT: -8.038098140      1.080      1.539
REMARK  21 active torsions:
REMARK  status: ('A' for Active; 'I' for Inactive)
REMARK    1  A    between atoms: O1_2  and  C2_3 
REMARK    2  A    between atoms: C2_3  and  C3_5 
REMARK    3  A    between atoms: C3_5  and  C4_6 
REMARK    4  A    between atoms: C4_6  and  C5_7 
REMARK    5  A    between atoms: C5_7  and  C6_8 
REMARK    6  A    between atoms: C6_8  and  C7_9 
REMARK    7  A    between atoms: C7_9  and  C8_10 
REMARK    8  A    between atoms: C8_10  and  C9_11 
REMARK    9  A    between atoms: C9_11  and  O4_13 
REMARK   10  A    between atoms: C13_17  and  C14_18 
REMARK   11  A    between atoms: C14_18  and  O5_19 
REMARK   12  A    between atoms: C14_18  and  N1_21 
REMARK   13  A    between atoms: N1_21  and  C15_23 
REMARK   14  A    between atoms: C15_23  and  C16_24 
REMARK   15  A    between atoms: C16_24  and  O6_25 
REMARK   16  A    between atoms: N2_27  and  C17_28 
REMARK   17  A    between atoms: C17_28  and  O7_29 
REMARK   18  A    between atoms: C18_31  and  N3_32 
REMARK   19  A    between atoms: C18_31  and  C24_41 
REMARK       I    between atoms: N3_32  and  C19_34 
REMARK   20  A    between atoms: C19_34  and  O9_36 
REMARK   21  A    between atoms: O9_36  and  C20_37 
ROOT
HETATM    1  C8  UNL     1      18.838  30.838  13.883  1.00  0.00     0.064 C 
HETATM    2  C11 UNL     1      19.232  29.634  14.633  1.00  0.00     0.024 C 
HETATM    3  C12 UNL     1      19.449  29.839  16.076  1.00  0.00     0.035 C 
HETATM    4  C13 UNL     1      19.902  31.214  16.482  1.00  0.00     0.160 C 
HETATM    5  N2  UNL     1      19.044  32.249  15.928  1.00  0.00    -0.347 N 
HETATM    6  C28 UNL     1      18.452  32.065  14.640  1.00  0.00     0.145 C 
ENDROOT
BRANCH   5   7
HETATM    7  C17 UNL     1      18.868  33.418  16.651  1.00  0.00     0.163 C 
HETATM    8  C18 UNL     1      17.911  34.423  16.942  1.00  0.00     0.072 C 
BRANCH   7   9
HETATM    9  O7  UNL     1      20.003  33.704  17.316  1.00  0.00    -0.345 OA
ATOM     10  H7  UNL     1      19.785  34.015  18.187  1.00  0.00     0.219 HD
ENDBRANCH   7   9
BRANCH   8  11
HETATM   11  N3  UNL     1      18.508  35.753  16.811  1.00  0.00    -0.301 N 
HETATM   12  C19 UNL     1      19.087  36.508  17.848  1.00  0.00     0.365 C 
HETATM   13  O8  UNL     1      19.179  36.124  19.057  1.00  0.00    -0.238 OA
ATOM     14  H3  UNL     1      18.505  36.172  15.882  1.00  0.00     0.171 HD
BRANCH  12  15
HETATM   15  O9  UNL     1      19.620  37.764  17.650  1.00  0.00    -0.294 OA
BRANCH  15  16
HETATM   16  C20 UNL     1      19.064  38.977  17.415  1.00  0.00     0.061 C 
HETATM   17  C21 UNL     1      19.713  39.702  16.267  1.00  0.00     0.046 C 
HETATM   18  C22 UNL     1      17.570  38.993  17.202  1.00  0.00     0.046 C 
HETATM   19  C23 UNL     1      19.337  39.845  18.657  1.00  0.00     0.046 C 
ENDBRANCH  15  16
ENDBRANCH  12  15
ENDBRANCH   8  11
BRANCH   8  20
HETATM   20  C24 UNL     1      16.499  34.481  16.647  1.00  0.00    -0.004 C 
HETATM   21  C25 UNL     1      15.696  35.526  17.376  1.00  0.00     0.021 C 
HETATM   22  C26 UNL     1      15.705  33.211  16.603  1.00  0.00     0.021 C 
HETATM   23  C27 UNL     1      16.419  34.976  15.160  1.00  0.00     0.021 C 
ENDBRANCH   8  20
ENDBRANCH   5   7
BRANCH   4  24
HETATM   24  C14 UNL     1      21.350  31.425  16.392  1.00  0.00     0.135 C 
BRANCH  24  25
HETATM   25  O5  UNL     1      21.897  31.761  17.536  1.00  0.00    -0.348 OA
ATOM     26  H5  UNL     1      22.204  32.659  17.555  1.00  0.00     0.219 HD
ENDBRANCH  24  25
BRANCH  24  27
HETATM   27  N1  UNL     1      22.216  31.329  15.320  1.00  0.00    -0.371 N 
ATOM     28  H1  UNL     1      22.263  30.432  14.836  1.00  0.00     0.161 HD
BRANCH  27  29
HETATM   29  C15 UNL     1      23.055  32.382  14.830  1.00  0.00     0.147 C 
BRANCH  29  30
HETATM   30  C16 UNL     1      22.508  33.757  14.840  1.00  0.00     0.183 C 
BRANCH  30  31
HETATM   31  O6  UNL     1      22.533  34.465  16.009  1.00  0.00    -0.399 OA
ATOM     32  H6  UNL     1      23.369  34.777  16.336  1.00  0.00     0.209 HD
ENDBRANCH  30  31
ENDBRANCH  29  30
ENDBRANCH  27  29
ENDBRANCH  24  27
ENDBRANCH   4  24
BRANCH   1  33
HETATM   33  C7  UNL     1      17.706  30.387  12.906  1.00  0.00     0.021 C 
BRANCH  33  34
HETATM   34  C6  UNL     1      17.884  28.995  12.469  1.00  0.00     0.001 C 
BRANCH  34  35
HETATM   35  C5  UNL     1      17.257  28.609  11.194  1.00  0.00     0.001 C 
BRANCH  35  36
HETATM   36  C4  UNL     1      17.995  27.920  10.118  1.00  0.00     0.010 C 
BRANCH  36  37
HETATM   37  C3  UNL     1      17.531  26.561   9.723  1.00  0.00     0.111 C 
BRANCH  37  38
HETATM   38  C2  UNL     1      18.278  25.532  10.519  1.00  0.00     0.258 C 
HETATM   39  O2  UNL     1      17.731  25.027  11.521  1.00  0.00    -0.265 OA
BRANCH  38  40
HETATM   40  O1  UNL     1      19.548  25.145  10.158  1.00  0.00    -0.326 OA
HETATM   41  C1  UNL     1      20.640  25.062  11.046  1.00  0.00     0.213 C 
ENDBRANCH  38  40
ENDBRANCH  37  38
ENDBRANCH  36  37
ENDBRANCH  35  36
ENDBRANCH  34  35
ENDBRANCH  33  34
ENDBRANCH   1  33
BRANCH   1  42
HETATM   42  C9  UNL     1      19.967  31.179  12.981  1.00  0.00     0.269 C 
HETATM   43  O3  UNL     1      20.061  32.151  12.233  1.00  0.00    -0.264 OA
BRANCH  42  44
HETATM   44  O4  UNL     1      21.032  30.261  13.017  1.00  0.00    -0.326 OA
HETATM   45  C10 UNL     1      21.564  29.767  11.821  1.00  0.00     0.213 C 
ENDBRANCH  42  44
ENDBRANCH   1  42
TORSDOF 21
ENDMDL
MODEL 4
REMARK VINA RESULT: -8.004233058      2.881     10.472
REMARK  21 active torsions:
REMARK  status: ('A' for Active; 'I' for Inactive)
REMARK    1  A    between atoms: O1_2  and  C2_3 
REMARK    2  A    between atoms: C2_3  and  C3_5 
REMARK    3  A    between atoms: C3_5  and  C4_6 
REMARK    4  A    between atoms: C4_6  and  C5_7 
REMARK    5  A    between atoms: C5_7  and  C6_8 
REMARK    6  A    between atoms: C6_8  and  C7_9 
REMARK    7  A    between atoms: C7_9  and  C8_10 
REMARK    8  A    between atoms: C8_10  and  C9_11 
REMARK    9  A    between atoms: C9_11  and  O4_13 
REMARK   10  A    between atoms: C13_17  and  C14_18 
REMARK   11  A    between atoms: C14_18  and  O5_19 
REMARK   12  A    between atoms: C14_18  and  N1_21 
REMARK   13  A    between atoms: N1_21  and  C15_23 
REMARK   14  A    between atoms: C15_23  and  C16_24 
REMARK   15  A    between atoms: C16_24  and  O6_25 
REMARK   16  A    between atoms: N2_27  and  C17_28 
REMARK   17  A    between atoms: C17_28  and  O7_29 
REMARK   18  A    between atoms: C18_31  and  N3_32 
REMARK   19  A    between atoms: C18_31  and  C24_41 
REMARK       I    between atoms: N3_32  and  C19_34 
REMARK   20  A    between atoms: C19_34  and  O9_36 
REMARK   21  A    between atoms: O9_36  and  C20_37 
ROOT
HETATM    1  C8  UNL     1      21.207  30.843  13.582  1.00  0.00     0.064 C 
HETATM    2  C11 UNL     1      20.728  30.527  14.937  1.00  0.00     0.024 C 
HETATM    3  C12 UNL     1      20.515  29.094  15.208  1.00  0.00     0.035 C 
HETATM    4  C13 UNL     1      20.152  28.249  14.018  1.00  0.00     0.160 C 
HETATM    5  N2  UNL     1      21.081  28.443  12.917  1.00  0.00    -0.347 N 
HETATM    6  C28 UNL     1      21.669  29.728  12.703  1.00  0.00     0.145 C 
ENDROOT
BRANCH   5   7
HETATM    7  C17 UNL     1      21.329  27.377  12.067  1.00  0.00     0.163 C 
HETATM    8  C18 UNL     1      22.315  26.841  11.200  1.00  0.00     0.072 C 
BRANCH   7   9
HETATM    9  O7  UNL     1      20.263  26.557  12.060  1.00  0.00    -0.345 OA
ATOM     10  H7  UNL     1      20.174  26.166  11.199  1.00  0.00     0.219 HD
ENDBRANCH   7   9
BRANCH   8  11
HETATM   11  N3  UNL     1      21.717  26.447   9.924  1.00  0.00    -0.301 N 
HETATM   12  C19 UNL     1      21.204  25.176   9.605  1.00  0.00     0.365 C 
HETATM   13  O8  UNL     1      21.182  24.185  10.401  1.00  0.00    -0.238 OA
ATOM     14  H3  UNL     1      21.667  27.161   9.197  1.00  0.00     0.171 HD
BRANCH  12  15
HETATM   15  O9  UNL     1      20.665  24.876   8.372  1.00  0.00    -0.294 OA
BRANCH  15  16
HETATM   16  C20 UNL     1      21.215  24.545   7.179  1.00  0.00     0.061 C 
HETATM   17  C21 UNL     1      22.685  24.860   7.108  1.00  0.00     0.046 C 
HETATM   18  C22 UNL     1      21.013  23.119   6.726  1.00  0.00     0.046 C 
HETATM   19  C23 UNL     1      20.551  25.439   6.115  1.00  0.00     0.046 C 
ENDBRANCH  15  16
ENDBRANCH  12  15
ENDBRANCH   8  11
BRANCH   8  20
HETATM   20  C24 UNL     1      23.694  27.220  11.007  1.00  0.00    -0.004 C 
HETATM   21  C25 UNL     1      24.508  27.475  12.249  1.00  0.00     0.021 C 
HETATM   22  C26 UNL     1      24.034  28.266   9.989  1.00  0.00     0.021 C 
HETATM   23  C27 UNL     1      24.384  25.941  10.414  1.00  0.00     0.021 C 
ENDBRANCH   8  20
ENDBRANCH   5   7
BRANCH   4  24
HETATM   24  C14 UNL     1      18.722  28.242  13.695  1.00  0.00     0.135 C 
BRANCH  24  25
HETATM   25  O5  UNL     1      18.025  27.422  14.445  1.00  0.00    -0.348 OA
ATOM     26  H5  UNL     1      17.090  27.584  14.410  1.00  0.00     0.219 HD
ENDBRANCH  24  25
BRANCH  24  27
HETATM   27  N1  UNL     1      18.002  28.944  12.748  1.00  0.00    -0.371 N 
ATOM     28  H1  UNL     1      18.069  29.961  12.770  1.00  0.00     0.161 HD
BRANCH  27  29
HETATM   29  C15 UNL     1      17.169  28.364  11.736  1.00  0.00     0.147 C 
BRANCH  29  30
HETATM   30  C16 UNL     1      17.640  28.432  10.336  1.00  0.00     0.183 C 
BRANCH  30  31
HETATM   31  O6  UNL     1      18.684  27.637   9.955  1.00  0.00    -0.399 OA
ATOM     32  H6  UNL     1      18.497  26.770   9.614  1.00  0.00     0.209 HD
ENDBRANCH  30  31
ENDBRANCH  29  30
ENDBRANCH  27  29
ENDBRANCH  24  27
ENDBRANCH   4  24
BRANCH   1  33
HETATM   33  C7  UNL     1      22.313  31.931  13.757  1.00  0.00     0.021 C 
BRANCH  33  34
HETATM   34  C6  UNL     1      22.775  32.022  15.150  1.00  0.00     0.001 C 
BRANCH  34  35
HETATM   35  C5  UNL     1      23.038  33.370  15.680  1.00  0.00     0.001 C 
BRANCH  35  36
HETATM   36  C4  UNL     1      21.982  34.390  15.826  1.00  0.00     0.010 C 
BRANCH  36  37
HETATM   37  C3  UNL     1      20.926  34.150  16.848  1.00  0.00     0.111 C 
BRANCH  37  38
HETATM   38  C2  UNL     1      21.109  35.114  17.983  1.00  0.00     0.258 C 
HETATM   39  O2  UNL     1      22.162  35.781  18.049  1.00  0.00    -0.265 OA
BRANCH  38  40
HETATM   40  O1  UNL     1      20.135  35.269  18.942  1.00  0.00    -0.326 OA
HETATM   41  C1  UNL     1      18.749  35.207  18.690  1.00  0.00     0.213 C 
ENDBRANCH  38  40
ENDBRANCH  37  38
ENDBRANCH  36  37
ENDBRANCH  35  36
ENDBRANCH  34  35
ENDBRANCH  33  34
ENDBRANCH   1  33
BRANCH   1  42
HETATM   42  C9  UNL     1      20.110  31.563  12.888  1.00  0.00     0.269 C 
HETATM   43  O3  UNL     1      20.119  32.025  11.748  1.00  0.00    -0.264 OA
BRANCH  42  44
HETATM   44  O4  UNL     1      18.942  31.714  13.658  1.00  0.00    -0.326 OA
HETATM   45  C10 UNL     1      18.520  32.992  14.037  1.00  0.00     0.213 C 
ENDBRANCH  42  44
ENDBRANCH   1  42
TORSDOF 21
ENDMDL
MODEL 5
REMARK VINA RESULT: -7.997958547      1.494      2.027
REMARK  21 active torsions:
REMARK  status: ('A' for Active; 'I' for Inactive)
REMARK    1  A    between atoms: O1_2  and  C2_3 
REMARK    2  A    between atoms: C2_3  and  C3_5 
REMARK    3  A    between atoms: C3_5  and  C4_6 
REMARK    4  A    between atoms: C4_6  and  C5_7 
REMARK    5  A    between atoms: C5_7  and  C6_8 
REMARK    6  A    between atoms: C6_8  and  C7_9 
REMARK    7  A    between atoms: C7_9  and  C8_10 
REMARK    8  A    between atoms: C8_10  and  C9_11 
REMARK    9  A    between atoms: C9_11  and  O4_13 
REMARK   10  A    between atoms: C13_17  and  C14_18 
REMARK   11  A    between atoms: C14_18  and  O5_19 
REMARK   12  A    between atoms: C14_18  and  N1_21 
REMARK   13  A    between atoms: N1_21  and  C15_23 
REMARK   14  A    between atoms: C15_23  and  C16_24 
REMARK   15  A    between atoms: C16_24  and  O6_25 
REMARK   16  A    between atoms: N2_27  and  C17_28 
REMARK   17  A    between atoms: C17_28  and  O7_29 
REMARK   18  A    between atoms: C18_31  and  N3_32 
REMARK   19  A    between atoms: C18_31  and  C24_41 
REMARK       I    between atoms: N3_32  and  C19_34 
REMARK   20  A    between atoms: C19_34  and  O9_36 
REMARK   21  A    between atoms: O9_36  and  C20_37 
ROOT
HETATM    1  C8  UNL     1      18.950  30.766  13.840  1.00  0.00     0.064 C 
HETATM    2  C11 UNL     1      19.492  29.624  14.595  1.00  0.00     0.024 C 
HETATM    3  C12 UNL     1      19.687  29.862  16.036  1.00  0.00     0.035 C 
HETATM    4  C13 UNL     1      19.969  31.284  16.433  1.00  0.00     0.160 C 
HETATM    5  N2  UNL     1      18.988  32.202  15.878  1.00  0.00    -0.347 N 
HETATM    6  C28 UNL     1      18.419  31.940  14.593  1.00  0.00     0.145 C 
ENDROOT
BRANCH   5   7
HETATM    7  C17 UNL     1      18.672  33.345  16.596  1.00  0.00     0.163 C 
HETATM    8  C18 UNL     1      17.642  34.301  16.785  1.00  0.00     0.072 C 
BRANCH   7   9
HETATM    9  O7  UNL     1      19.702  33.662  17.402  1.00  0.00    -0.345 OA
ATOM     10  H7  UNL     1      19.417  34.311  18.034  1.00  0.00     0.219 HD
ENDBRANCH   7   9
BRANCH   8  11
HETATM   11  N3  UNL     1      18.190  35.658  16.755  1.00  0.00    -0.301 N 
HETATM   12  C19 UNL     1      18.646  36.393  17.865  1.00  0.00     0.365 C 
HETATM   13  O8  UNL     1      18.653  35.964  19.062  1.00  0.00    -0.238 OA
ATOM     14  H3  UNL     1      18.247  36.114  15.845  1.00  0.00     0.171 HD
BRANCH  12  15
HETATM   15  O9  UNL     1      19.140  37.676  17.760  1.00  0.00    -0.294 OA
BRANCH  15  16
HETATM   16  C20 UNL     1      18.545  38.888  17.647  1.00  0.00     0.061 C 
HETATM   17  C21 UNL     1      17.101  38.793  17.233  1.00  0.00     0.046 C 
HETATM   18  C22 UNL     1      18.632  39.786  18.857  1.00  0.00     0.046 C 
HETATM   19  C23 UNL     1      19.254  39.631  16.500  1.00  0.00     0.046 C 
ENDBRANCH  15  16
ENDBRANCH  12  15
ENDBRANCH   8  11
BRANCH   8  20
HETATM   20  C24 UNL     1      16.276  34.306  16.318  1.00  0.00    -0.004 C 
HETATM   21  C25 UNL     1      15.340  35.291  16.969  1.00  0.00     0.021 C 
HETATM   22  C26 UNL     1      15.555  33.005  16.141  1.00  0.00     0.021 C 
HETATM   23  C27 UNL     1      16.356  34.846  14.846  1.00  0.00     0.021 C 
ENDBRANCH   8  20
ENDBRANCH   5   7
BRANCH   4  24
HETATM   24  C14 UNL     1      21.380  31.671  16.337  1.00  0.00     0.135 C 
BRANCH  24  25
HETATM   25  O5  UNL     1      22.004  31.650  17.490  1.00  0.00    -0.348 OA
ATOM     26  H5  UNL     1      22.840  32.099  17.473  1.00  0.00     0.219 HD
ENDBRANCH  24  25
BRANCH  24  27
HETATM   27  N1  UNL     1      22.145  32.049  15.249  1.00  0.00    -0.371 N 
ATOM     28  H1  UNL     1      22.617  31.308  14.731  1.00  0.00     0.161 HD
BRANCH  27  29
HETATM   29  C15 UNL     1      22.332  33.393  14.788  1.00  0.00     0.147 C 
BRANCH  29  30
HETATM   30  C16 UNL     1      22.339  34.471  15.801  1.00  0.00     0.183 C 
BRANCH  30  31
HETATM   31  O6  UNL     1      21.325  35.388  15.790  1.00  0.00    -0.399 OA
ATOM     32  H6  UNL     1      20.500  35.161  16.204  1.00  0.00     0.209 HD
ENDBRANCH  30  31
ENDBRANCH  29  30
ENDBRANCH  27  29
ENDBRANCH  24  27
ENDBRANCH   4  24
BRANCH   1  33
HETATM   33  C7  UNL     1      17.879  30.174  12.870  1.00  0.00     0.021 C 
BRANCH  33  34
HETATM   34  C6  UNL     1      18.129  28.754  12.581  1.00  0.00     0.001 C 
BRANCH  34  35
HETATM   35  C5  UNL     1      18.408  28.397  11.180  1.00  0.00     0.001 C 
BRANCH  35  36
HETATM   36  C4  UNL     1      17.415  27.733  10.314  1.00  0.00     0.010 C 
BRANCH  36  37
HETATM   37  C3  UNL     1      17.926  26.912   9.181  1.00  0.00     0.111 C 
BRANCH  37  38
HETATM   38  C2  UNL     1      17.820  25.458   9.538  1.00  0.00     0.258 C 
HETATM   39  O2  UNL     1      17.683  25.136  10.736  1.00  0.00    -0.265 OA
BRANCH  38  40
HETATM   40  O1  UNL     1      17.873  24.487   8.565  1.00  0.00    -0.326 OA
HETATM   41  C1  UNL     1      17.078  24.478   7.401  1.00  0.00     0.213 C 
ENDBRANCH  38  40
ENDBRANCH  37  38
ENDBRANCH  36  37
ENDBRANCH  35  36
ENDBRANCH  34  35
ENDBRANCH  33  34
ENDBRANCH   1  33
BRANCH   1  42
HETATM   42  C9  UNL     1      20.025  31.239  12.933  1.00  0.00     0.269 C 
HETATM   43  O3  UNL     1      19.974  32.171  12.131  1.00  0.00    -0.264 OA
BRANCH  42  44
HETATM   44  O4  UNL     1      21.226  30.512  13.032  1.00  0.00    -0.326 OA
HETATM   45  C10 UNL     1      21.736  29.858  11.906  1.00  0.00     0.213 C 
ENDBRANCH  42  44
ENDBRANCH   1  42
TORSDOF 21
ENDMDL
