MODEL 1
REMARK VINA RESULT: -6.752699719      0.000      0.000
REMARK  14 active torsions:
REMARK  status: ('A' for Active; 'I' for Inactive)
REMARK    1  A    between atoms: C2_2  and  C3_3 
REMARK    2  A    between atoms: C2_2  and  C27_37 
REMARK    3  A    between atoms: C3_3  and  C4_4 
REMARK    4  A    between atoms: C5_5  and  O1_6 
REMARK    5  A    between atoms: C9_11  and  O2_12 
REMARK    6  A    between atoms: O2_12  and  C10_13 
REMARK    7  A    between atoms: C12_17  and  C13_18 
REMARK    8  A    between atoms: C13_18  and  O5_19 
REMARK    9  A    between atoms: O5_19  and  C14_20 
REMARK   10  A    between atoms: C21_28  and  C23_30 
REMARK   11  A    between atoms: C27_37  and  C28_39 
REMARK   12  A    between atoms: C28_39  and  C30_41 
REMARK   13  A    between atoms: C30_41  and  C31_42 
REMARK   14  A    between atoms: C31_42  and  C32_43 
ROOT
HETATM    1  C4  UNL     1      20.850  35.449  16.919  1.00  0.00    -0.038 C 
HETATM    2  C5  UNL     1      21.798  36.243  17.706  1.00  0.00     0.157 C 
HETATM    3  C6  UNL     1      21.474  37.031  18.888  1.00  0.00    -0.005 C 
HETATM    4  C7  UNL     1      22.123  36.449  20.175  1.00  0.00     0.019 C 
HETATM    5  C8  UNL     1      21.693  38.485  18.989  1.00  0.00     0.047 C 
HETATM    6  C9  UNL     1      20.661  39.266  19.751  1.00  0.00     0.155 C 
HETATM    7  C11 UNL     1      19.260  39.298  19.492  1.00  0.00     0.201 C 
HETATM    8  O4  UNL     1      18.449  38.381  18.919  1.00  0.00    -0.372 OA
HETATM    9  C12 UNL     1      19.208  37.474  18.076  1.00  0.00     0.120 C 
HETATM   10  C16 UNL     1      20.001  36.844  19.056  1.00  0.00     0.037 C 
HETATM   11  C17 UNL     1      19.748  35.421  19.494  1.00  0.00     0.014 C 
HETATM   12  C18 UNL     1      19.288  34.431  18.458  1.00  0.00     0.002 C 
HETATM   13  C19 UNL     1      17.756  34.318  18.645  1.00  0.00     0.017 C 
HETATM   14  C20 UNL     1      17.506  35.795  18.673  1.00  0.00     0.070 C 
HETATM   15  C21 UNL     1      16.365  36.264  17.796  1.00  0.00     0.152 C 
HETATM   16  C22 UNL     1      15.621  37.497  18.310  1.00  0.00     0.059 C 
HETATM   17  O9  UNL     1      17.309  36.491  16.830  1.00  0.00    -0.353 OA
HETATM   18  C24 UNL     1      18.428  36.273  17.609  1.00  0.00     0.115 C 
HETATM   19  C25 UNL     1      19.424  35.240  17.207  1.00  0.00     0.021 C 
HETATM   20  C26 UNL     1      18.816  34.601  15.965  1.00  0.00     0.024 C 
ENDROOT
BRANCH   1  21
HETATM   21  C3  UNL     1      21.423  34.310  16.142  1.00  0.00     0.020 C 
BRANCH  21  22
HETATM   22  C2  UNL     1      21.688  32.956  16.605  1.00  0.00     0.001 C 
HETATM   23  C1  UNL     1      22.472  32.742  17.647  1.00  0.00     0.027 C 
BRANCH  22  24
HETATM   24  C27 UNL     1      21.057  31.785  16.057  1.00  0.00     0.162 C 
HETATM   25  O10 UNL     1      20.552  30.905  16.844  1.00  0.00    -0.292 OA
BRANCH  24  26
HETATM   26  C28 UNL     1      20.892  31.408  14.619  1.00  0.00     0.056 C 
HETATM   27  C29 UNL     1      22.093  30.725  14.067  1.00  0.00     0.018 C 
BRANCH  26  28
HETATM   28  C30 UNL     1      19.610  30.687  14.435  1.00  0.00     0.012 C 
BRANCH  28  29
HETATM   29  C31 UNL     1      18.448  31.361  13.846  1.00  0.00     0.000 C 
BRANCH  29  30
HETATM   30  C32 UNL     1      17.228  31.620  14.619  1.00  0.00    -0.005 C 
HETATM   31  C33 UNL     1      17.152  31.251  16.062  1.00  0.00     0.005 C 
ENDBRANCH  29  30
ENDBRANCH  28  29
ENDBRANCH  26  28
ENDBRANCH  24  26
ENDBRANCH  22  24
ENDBRANCH  21  22
ENDBRANCH   1  21
BRANCH   2  32
HETATM   32  O1  UNL     1      22.609  37.078  16.887  1.00  0.00    -0.390 OA
ATOM     33  H1  UNL     1      23.011  37.783  17.381  1.00  0.00     0.210 HD
ENDBRANCH   2  32
BRANCH   9  34
HETATM   34  C13 UNL     1      19.192  38.233  16.864  1.00  0.00     0.220 C 
BRANCH  34  35
HETATM   35  O5  UNL     1      20.412  38.789  16.383  1.00  0.00    -0.319 OA
BRANCH  35  36
HETATM   36  C14 UNL     1      20.485  39.918  15.598  1.00  0.00     0.254 C 
HETATM   37  C15 UNL     1      21.427  39.986  14.483  1.00  0.00     0.126 C 
HETATM   38  O6  UNL     1      19.680  40.842  15.942  1.00  0.00    -0.266 OA
ENDBRANCH  35  36
ENDBRANCH  34  35
ENDBRANCH   9  34
BRANCH   6  39
HETATM   39  O2  UNL     1      21.163  40.594  19.812  1.00  0.00    -0.321 OA
BRANCH  39  40
HETATM   40  C10 UNL     1      22.314  40.994  20.426  1.00  0.00     0.398 C 
HETATM   41  O3  UNL     1      22.239  41.150  21.668  1.00  0.00    -0.276 OA
ENDBRANCH  39  40
ENDBRANCH   6  39
BRANCH  15  42
HETATM   42  C23 UNL     1      15.380  35.189  17.645  1.00  0.00     0.209 C 
HETATM   43  O7  UNL     1      14.556  34.768  18.465  1.00  0.00    -0.646 OA
HETATM   44  O8  UNL     1      15.381  34.548  16.377  1.00  0.00    -0.646 OA
ENDBRANCH  15  42
TORSDOF 14
ENDMDL
MODEL 2
REMARK VINA RESULT: -6.711834713      1.012      1.192
REMARK  14 active torsions:
REMARK  status: ('A' for Active; 'I' for Inactive)
REMARK    1  A    between atoms: C2_2  and  C3_3 
REMARK    2  A    between atoms: C2_2  and  C27_37 
REMARK    3  A    between atoms: C3_3  and  C4_4 
REMARK    4  A    between atoms: C5_5  and  O1_6 
REMARK    5  A    between atoms: C9_11  and  O2_12 
REMARK    6  A    between atoms: O2_12  and  C10_13 
REMARK    7  A    between atoms: C12_17  and  C13_18 
REMARK    8  A    between atoms: C13_18  and  O5_19 
REMARK    9  A    between atoms: O5_19  and  C14_20 
REMARK   10  A    between atoms: C21_28  and  C23_30 
REMARK   11  A    between atoms: C27_37  and  C28_39 
REMARK   12  A    between atoms: C28_39  and  C30_41 
REMARK   13  A    between atoms: C30_41  and  C31_42 
REMARK   14  A    between atoms: C31_42  and  C32_43 
ROOT
HETATM    1  C4  UNL     1      20.941  35.730  16.880  1.00  0.00    -0.038 C 
HETATM    2  C5  UNL     1      21.844  36.612  17.626  1.00  0.00     0.157 C 
HETATM    3  C6  UNL     1      21.497  37.372  18.820  1.00  0.00    -0.005 C 
HETATM    4  C7  UNL     1      22.250  36.859  20.079  1.00  0.00     0.019 C 
HETATM    5  C8  UNL     1      21.586  38.840  18.910  1.00  0.00     0.047 C 
HETATM    6  C9  UNL     1      20.518  39.527  19.713  1.00  0.00     0.155 C 
HETATM    7  C11 UNL     1      19.110  39.428  19.513  1.00  0.00     0.201 C 
HETATM    8  O4  UNL     1      18.365  38.437  18.975  1.00  0.00    -0.372 OA
HETATM    9  C12 UNL     1      19.169  37.601  18.102  1.00  0.00     0.120 C 
HETATM   10  C16 UNL     1      20.056  37.051  19.049  1.00  0.00     0.037 C 
HETATM   11  C17 UNL     1      19.954  35.613  19.498  1.00  0.00     0.014 C 
HETATM   12  C18 UNL     1      19.545  34.580  18.483  1.00  0.00     0.002 C 
HETATM   13  C19 UNL     1      18.039  34.327  18.734  1.00  0.00     0.017 C 
HETATM   14  C20 UNL     1      17.655  35.775  18.771  1.00  0.00     0.070 C 
HETATM   15  C21 UNL     1      16.440  36.133  17.941  1.00  0.00     0.152 C 
HETATM   16  C22 UNL     1      15.608  37.294  18.484  1.00  0.00     0.059 C 
HETATM   17  O9  UNL     1      17.318  36.441  16.936  1.00  0.00    -0.353 OA
HETATM   18  C24 UNL     1      18.484  36.331  17.668  1.00  0.00     0.115 C 
HETATM   19  C25 UNL     1      19.554  35.392  17.227  1.00  0.00     0.021 C 
HETATM   20  C26 UNL     1      18.957  34.694  16.012  1.00  0.00     0.024 C 
ENDROOT
BRANCH   1  21
HETATM   21  C3  UNL     1      21.584  34.645  16.081  1.00  0.00     0.020 C 
BRANCH  21  22
HETATM   22  C2  UNL     1      22.036  33.342  16.544  1.00  0.00     0.001 C 
HETATM   23  C1  UNL     1      22.502  33.187  17.771  1.00  0.00     0.027 C 
BRANCH  22  24
HETATM   24  C27 UNL     1      21.917  32.133  15.773  1.00  0.00     0.162 C 
HETATM   25  O10 UNL     1      22.973  31.487  15.432  1.00  0.00    -0.292 OA
BRANCH  24  26
HETATM   26  C28 UNL     1      20.673  31.472  15.271  1.00  0.00     0.056 C 
HETATM   27  C29 UNL     1      20.928  30.591  14.098  1.00  0.00     0.018 C 
BRANCH  26  28
HETATM   28  C30 UNL     1      19.954  30.834  16.399  1.00  0.00     0.012 C 
BRANCH  28  29
HETATM   29  C31 UNL     1      18.589  31.244  16.747  1.00  0.00     0.000 C 
BRANCH  29  30
HETATM   30  C32 UNL     1      17.441  30.919  15.895  1.00  0.00    -0.005 C 
HETATM   31  C33 UNL     1      17.120  31.755  14.703  1.00  0.00     0.005 C 
ENDBRANCH  29  30
ENDBRANCH  28  29
ENDBRANCH  26  28
ENDBRANCH  24  26
ENDBRANCH  22  24
ENDBRANCH  21  22
ENDBRANCH   1  21
BRANCH   2  32
HETATM   32  O1  UNL     1      22.540  37.514  16.773  1.00  0.00    -0.390 OA
ATOM     33  H1  UNL     1      23.458  37.285  16.682  1.00  0.00     0.210 HD
ENDBRANCH   2  32
BRANCH   9  34
HETATM   34  C13 UNL     1      19.033  38.349  16.891  1.00  0.00     0.220 C 
BRANCH  34  35
HETATM   35  O5  UNL     1      17.922  39.229  16.746  1.00  0.00    -0.319 OA
BRANCH  35  36
HETATM   36  C14 UNL     1      18.024  40.528  16.302  1.00  0.00     0.254 C 
HETATM   37  C15 UNL     1      19.323  41.195  16.251  1.00  0.00     0.126 C 
HETATM   38  O6  UNL     1      16.913  41.048  15.961  1.00  0.00    -0.266 OA
ENDBRANCH  35  36
ENDBRANCH  34  35
ENDBRANCH   9  34
BRANCH   6  39
HETATM   39  O2  UNL     1      20.898  40.895  19.752  1.00  0.00    -0.321 OA
BRANCH  39  40
HETATM   40  C10 UNL     1      21.997  41.411  20.374  1.00  0.00     0.398 C 
HETATM   41  O3  UNL     1      22.051  41.234  21.615  1.00  0.00    -0.276 OA
ENDBRANCH  39  40
ENDBRANCH   6  39
BRANCH  15  42
HETATM   42  C23 UNL     1      15.553  34.970  17.833  1.00  0.00     0.209 C 
HETATM   43  O7  UNL     1      14.950  34.365  18.726  1.00  0.00    -0.646 OA
HETATM   44  O8  UNL     1      15.368  34.479  16.513  1.00  0.00    -0.646 OA
ENDBRANCH  15  42
TORSDOF 14
ENDMDL
MODEL 3
REMARK VINA RESULT: -6.651481594      1.135      1.314
REMARK  14 active torsions:
REMARK  status: ('A' for Active; 'I' for Inactive)
REMARK    1  A    between atoms: C2_2  and  C3_3 
REMARK    2  A    between atoms: C2_2  and  C27_37 
REMARK    3  A    between atoms: C3_3  and  C4_4 
REMARK    4  A    between atoms: C5_5  and  O1_6 
REMARK    5  A    between atoms: C9_11  and  O2_12 
REMARK    6  A    between atoms: O2_12  and  C10_13 
REMARK    7  A    between atoms: C12_17  and  C13_18 
REMARK    8  A    between atoms: C13_18  and  O5_19 
REMARK    9  A    between atoms: O5_19  and  C14_20 
REMARK   10  A    between atoms: C21_28  and  C23_30 
REMARK   11  A    between atoms: C27_37  and  C28_39 
REMARK   12  A    between atoms: C28_39  and  C30_41 
REMARK   13  A    between atoms: C30_41  and  C31_42 
REMARK   14  A    between atoms: C31_42  and  C32_43 
ROOT
HETATM    1  C4  UNL     1      21.013  34.859  17.327  1.00  0.00    -0.038 C 
HETATM    2  C5  UNL     1      22.090  35.523  18.069  1.00  0.00     0.157 C 
HETATM    3  C6  UNL     1      21.914  36.564  19.073  1.00  0.00    -0.005 C 
HETATM    4  C7  UNL     1      22.318  36.080  20.495  1.00  0.00     0.019 C 
HETATM    5  C8  UNL     1      22.498  37.913  18.964  1.00  0.00     0.047 C 
HETATM    6  C9  UNL     1      21.661  39.047  19.486  1.00  0.00     0.155 C 
HETATM    7  C11 UNL     1      20.333  39.376  19.088  1.00  0.00     0.201 C 
HETATM    8  O4  UNL     1      19.346  38.599  18.589  1.00  0.00    -0.372 OA
HETATM    9  C12 UNL     1      19.890  37.398  17.980  1.00  0.00     0.120 C 
HETATM   10  C16 UNL     1      20.437  36.778  19.121  1.00  0.00     0.037 C 
HETATM   11  C17 UNL     1      19.800  35.563  19.751  1.00  0.00     0.014 C 
HETATM   12  C18 UNL     1      19.157  34.548  18.845  1.00  0.00     0.002 C 
HETATM   13  C19 UNL     1      17.640  34.850  18.894  1.00  0.00     0.017 C 
HETATM   14  C20 UNL     1      17.780  36.324  18.662  1.00  0.00     0.070 C 
HETATM   15  C21 UNL     1      16.851  36.894  17.613  1.00  0.00     0.152 C 
HETATM   16  C22 UNL     1      16.424  38.343  17.848  1.00  0.00     0.059 C 
HETATM   17  O9  UNL     1      17.874  36.706  16.721  1.00  0.00    -0.353 OA
HETATM   18  C24 UNL     1      18.853  36.362  17.633  1.00  0.00     0.115 C 
HETATM   19  C25 UNL     1      19.568  35.062  17.501  1.00  0.00     0.021 C 
HETATM   20  C26 UNL     1      18.886  34.381  16.322  1.00  0.00     0.024 C 
ENDROOT
BRANCH   1  21
HETATM   21  C3  UNL     1      21.314  33.495  16.801  1.00  0.00     0.020 C 
BRANCH  21  22
HETATM   22  C2  UNL     1      22.110  33.142  15.634  1.00  0.00     0.001 C 
HETATM   23  C1  UNL     1      23.422  33.297  15.642  1.00  0.00     0.027 C 
BRANCH  22  24
HETATM   24  C27 UNL     1      21.569  32.516  14.457  1.00  0.00     0.162 C 
HETATM   25  O10 UNL     1      22.236  32.536  13.361  1.00  0.00    -0.292 OA
BRANCH  24  26
HETATM   26  C28 UNL     1      20.263  31.803  14.303  1.00  0.00     0.056 C 
HETATM   27  C29 UNL     1      19.744  31.858  12.909  1.00  0.00     0.018 C 
BRANCH  26  28
HETATM   28  C30 UNL     1      20.362  30.446  14.890  1.00  0.00     0.012 C 
BRANCH  28  29
HETATM   29  C31 UNL     1      19.710  30.131  16.166  1.00  0.00     0.000 C 
BRANCH  29  30
HETATM   30  C32 UNL     1      18.601  30.935  16.689  1.00  0.00    -0.005 C 
HETATM   31  C33 UNL     1      17.272  30.927  16.011  1.00  0.00     0.005 C 
ENDBRANCH  29  30
ENDBRANCH  28  29
ENDBRANCH  26  28
ENDBRANCH  24  26
ENDBRANCH  22  24
ENDBRANCH  21  22
ENDBRANCH   1  21
BRANCH   2  32
HETATM   32  O1  UNL     1      23.134  35.973  17.213  1.00  0.00    -0.390 OA
ATOM     33  H1  UNL     1      23.444  36.839  17.450  1.00  0.00     0.210 HD
ENDBRANCH   2  32
BRANCH   9  34
HETATM   34  C13 UNL     1      20.140  37.909  16.667  1.00  0.00     0.220 C 
BRANCH  34  35
HETATM   35  O5  UNL     1      19.601  39.178  16.309  1.00  0.00    -0.319 OA
BRANCH  35  36
HETATM   36  C14 UNL     1      20.306  40.149  15.634  1.00  0.00     0.254 C 
HETATM   37  C15 UNL     1      21.265  39.782  14.594  1.00  0.00     0.126 C 
HETATM   38  O6  UNL     1      20.037  41.337  16.005  1.00  0.00    -0.266 OA
ENDBRANCH  35  36
ENDBRANCH  34  35
ENDBRANCH   9  34
BRANCH   6  39
HETATM   39  O2  UNL     1      22.487  40.200  19.386  1.00  0.00    -0.321 OA
BRANCH  39  40
HETATM   40  C10 UNL     1      23.024  40.901  20.425  1.00  0.00     0.398 C 
HETATM   41  O3  UNL     1      22.285  41.031  21.431  1.00  0.00    -0.276 OA
ENDBRANCH  39  40
ENDBRANCH   6  39
BRANCH  15  42
HETATM   42  C23 UNL     1      15.631  36.085  17.537  1.00  0.00     0.209 C 
HETATM   43  O7  UNL     1      14.654  36.077  18.294  1.00  0.00    -0.646 OA
HETATM   44  O8  UNL     1      15.573  35.188  16.436  1.00  0.00    -0.646 OA
ENDBRANCH  15  42
TORSDOF 14
ENDMDL
MODEL 4
REMARK VINA RESULT: -6.577324596      2.106      3.836
REMARK  14 active torsions:
REMARK  status: ('A' for Active; 'I' for Inactive)
REMARK    1  A    between atoms: C2_2  and  C3_3 
REMARK    2  A    between atoms: C2_2  and  C27_37 
REMARK    3  A    between atoms: C3_3  and  C4_4 
REMARK    4  A    between atoms: C5_5  and  O1_6 
REMARK    5  A    between atoms: C9_11  and  O2_12 
REMARK    6  A    between atoms: O2_12  and  C10_13 
REMARK    7  A    between atoms: C12_17  and  C13_18 
REMARK    8  A    between atoms: C13_18  and  O5_19 
REMARK    9  A    between atoms: O5_19  and  C14_20 
REMARK   10  A    between atoms: C21_28  and  C23_30 
REMARK   11  A    between atoms: C27_37  and  C28_39 
REMARK   12  A    between atoms: C28_39  and  C30_41 
REMARK   13  A    between atoms: C30_41  and  C31_42 
REMARK   14  A    between atoms: C31_42  and  C32_43 
ROOT
HETATM    1  C4  UNL     1      19.386  33.365  14.795  1.00  0.00    -0.038 C 
HETATM    2  C5  UNL     1      20.701  33.102  15.389  1.00  0.00     0.157 C 
HETATM    3  C6  UNL     1      20.999  33.069  16.814  1.00  0.00    -0.005 C 
HETATM    4  C7  UNL     1      21.382  31.642  17.300  1.00  0.00     0.019 C 
HETATM    5  C8  UNL     1      21.981  33.955  17.465  1.00  0.00     0.047 C 
HETATM    6  C9  UNL     1      21.636  34.434  18.847  1.00  0.00     0.155 C 
HETATM    7  C11 UNL     1      20.456  35.133  19.233  1.00  0.00     0.201 C 
HETATM    8  O4  UNL     1      19.216  35.131  18.696  1.00  0.00    -0.372 OA
HETATM    9  C12 UNL     1      19.255  34.714  17.305  1.00  0.00     0.120 C 
HETATM   10  C16 UNL     1      19.693  33.384  17.467  1.00  0.00     0.037 C 
HETATM   11  C17 UNL     1      18.766  32.209  17.269  1.00  0.00     0.014 C 
HETATM   12  C18 UNL     1      17.722  32.302  16.189  1.00  0.00     0.002 C 
HETATM   13  C19 UNL     1      16.409  32.680  16.915  1.00  0.00     0.017 C 
HETATM   14  C20 UNL     1      17.003  33.801  17.712  1.00  0.00     0.070 C 
HETATM   15  C21 UNL     1      16.200  35.084  17.701  1.00  0.00     0.152 C 
HETATM   16  C22 UNL     1      16.310  35.924  18.974  1.00  0.00     0.059 C 
HETATM   17  O9  UNL     1      16.991  35.474  16.653  1.00  0.00    -0.353 OA
HETATM   18  C24 UNL     1      17.900  34.435  16.709  1.00  0.00     0.115 C 
HETATM   19  C25 UNL     1      18.121  33.576  15.513  1.00  0.00     0.021 C 
HETATM   20  C26 UNL     1      17.120  34.096  14.491  1.00  0.00     0.024 C 
ENDROOT
BRANCH   1  21
HETATM   21  C3  UNL     1      19.153  32.814  13.428  1.00  0.00     0.020 C 
BRANCH  21  22
HETATM   22  C2  UNL     1      19.619  31.547  12.883  1.00  0.00     0.001 C 
HETATM   23  C1  UNL     1      20.814  31.451  12.329  1.00  0.00     0.027 C 
BRANCH  22  24
HETATM   24  C27 UNL     1      18.890  30.311  12.996  1.00  0.00     0.162 C 
HETATM   25  O10 UNL     1      18.411  29.756  11.943  1.00  0.00    -0.292 OA
BRANCH  24  26
HETATM   26  C28 UNL     1      18.581  29.527  14.231  1.00  0.00     0.056 C 
HETATM   27  C29 UNL     1      17.914  28.230  13.932  1.00  0.00     0.018 C 
BRANCH  26  28
HETATM   28  C30 UNL     1      19.791  29.436  15.082  1.00  0.00     0.012 C 
BRANCH  28  29
HETATM   29  C31 UNL     1      20.787  28.381  14.861  1.00  0.00     0.000 C 
BRANCH  29  30
HETATM   30  C32 UNL     1      22.011  28.621  14.089  1.00  0.00    -0.005 C 
HETATM   31  C33 UNL     1      22.225  27.949  12.776  1.00  0.00     0.005 C 
ENDBRANCH  29  30
ENDBRANCH  28  29
ENDBRANCH  26  28
ENDBRANCH  24  26
ENDBRANCH  22  24
ENDBRANCH  21  22
ENDBRANCH   1  21
BRANCH   2  32
HETATM   32  O1  UNL     1      21.728  33.883  14.788  1.00  0.00    -0.390 OA
ATOM     33  H1  UNL     1      22.323  34.248  15.433  1.00  0.00     0.210 HD
ENDBRANCH   2  32
BRANCH   9  34
HETATM   34  C13 UNL     1      19.506  35.985  16.700  1.00  0.00     0.220 C 
BRANCH  34  35
HETATM   35  O5  UNL     1      19.417  37.159  17.502  1.00  0.00    -0.319 OA
BRANCH  35  36
HETATM   36  C14 UNL     1      20.309  38.206  17.432  1.00  0.00     0.254 C 
HETATM   37  C15 UNL     1      21.714  37.963  17.113  1.00  0.00     0.126 C 
HETATM   38  O6  UNL     1      19.791  39.344  17.668  1.00  0.00    -0.266 OA
ENDBRANCH  35  36
ENDBRANCH  34  35
ENDBRANCH   9  34
BRANCH   6  39
HETATM   39  O2  UNL     1      22.780  35.150  19.293  1.00  0.00    -0.321 OA
BRANCH  39  40
HETATM   40  C10 UNL     1      22.819  36.055  20.313  1.00  0.00     0.398 C 
HETATM   41  O3  UNL     1      23.616  35.789  21.244  1.00  0.00    -0.276 OA
ENDBRANCH  39  40
ENDBRANCH   6  39
BRANCH  15  42
HETATM   42  C23 UNL     1      14.781  34.781  17.497  1.00  0.00     0.209 C 
HETATM   43  O7  UNL     1      14.242  33.691  17.277  1.00  0.00    -0.646 OA
HETATM   44  O8  UNL     1      13.911  35.902  17.565  1.00  0.00    -0.646 OA
ENDBRANCH  15  42
TORSDOF 14
ENDMDL
MODEL 5
REMARK VINA RESULT: -6.540565300      0.840      1.008
REMARK  14 active torsions:
REMARK  status: ('A' for Active; 'I' for Inactive)
REMARK    1  A    between atoms: C2_2  and  C3_3 
REMARK    2  A    between atoms: C2_2  and  C27_37 
REMARK    3  A    between atoms: C3_3  and  C4_4 
REMARK    4  A    between atoms: C5_5  and  O1_6 
REMARK    5  A    between atoms: C9_11  and  O2_12 
REMARK    6  A    between atoms: O2_12  and  C10_13 
REMARK    7  A    between atoms: C12_17  and  C13_18 
REMARK    8  A    between atoms: C13_18  and  O5_19 
REMARK    9  A    between atoms: O5_19  and  C14_20 
REMARK   10  A    between atoms: C21_28  and  C23_30 
REMARK   11  A    between atoms: C27_37  and  C28_39 
REMARK   12  A    between atoms: C28_39  and  C30_41 
REMARK   13  A    between atoms: C30_41  and  C31_42 
REMARK   14  A    between atoms: C31_42  and  C32_43 
ROOT
HETATM    1  C4  UNL     1      21.035  35.754  16.910  1.00  0.00    -0.038 C 
HETATM    2  C5  UNL     1      22.014  36.578  17.626  1.00  0.00     0.157 C 
HETATM    3  C6  UNL     1      21.748  37.374  18.817  1.00  0.00    -0.005 C 
HETATM    4  C7  UNL     1      22.489  36.822  20.067  1.00  0.00     0.019 C 
HETATM    5  C8  UNL     1      21.943  38.833  18.886  1.00  0.00     0.047 C 
HETATM    6  C9  UNL     1      20.944  39.604  19.702  1.00  0.00     0.155 C 
HETATM    7  C11 UNL     1      19.529  39.604  19.532  1.00  0.00     0.201 C 
HETATM    8  O4  UNL     1      18.704  38.664  19.022  1.00  0.00    -0.372 OA
HETATM    9  C12 UNL     1      19.427  37.761  18.143  1.00  0.00     0.120 C 
HETATM   10  C16 UNL     1      20.292  37.160  19.079  1.00  0.00     0.037 C 
HETATM   11  C17 UNL     1      20.097  35.739  19.549  1.00  0.00     0.014 C 
HETATM   12  C18 UNL     1      19.593  34.726  18.556  1.00  0.00     0.002 C 
HETATM   13  C19 UNL     1      18.079  34.585  18.841  1.00  0.00     0.017 C 
HETATM   14  C20 UNL     1      17.801  36.057  18.867  1.00  0.00     0.070 C 
HETATM   15  C21 UNL     1      16.597  36.491  18.057  1.00  0.00     0.152 C 
HETATM   16  C22 UNL     1      15.862  37.716  18.602  1.00  0.00     0.059 C 
HETATM   17  O9  UNL     1      17.474  36.724  17.031  1.00  0.00    -0.353 OA
HETATM   18  C24 UNL     1      18.644  36.539  17.740  1.00  0.00     0.115 C 
HETATM   19  C25 UNL     1      19.634  35.521  17.290  1.00  0.00     0.021 C 
HETATM   20  C26 UNL     1      18.963  34.854  16.096  1.00  0.00     0.024 C 
ENDROOT
BRANCH   1  21
HETATM   21  C3  UNL     1      21.581  34.617  16.112  1.00  0.00     0.020 C 
BRANCH  21  22
HETATM   22  C2  UNL     1      22.058  33.331  16.599  1.00  0.00     0.001 C 
HETATM   23  C1  UNL     1      22.459  33.191  17.850  1.00  0.00     0.027 C 
BRANCH  22  24
HETATM   24  C27 UNL     1      22.031  32.121  15.821  1.00  0.00     0.162 C 
HETATM   25  O10 UNL     1      23.113  31.681  15.288  1.00  0.00    -0.292 OA
BRANCH  24  26
HETATM   26  C28 UNL     1      20.860  31.242  15.514  1.00  0.00     0.056 C 
HETATM   27  C29 UNL     1      20.064  30.908  16.727  1.00  0.00     0.018 C 
BRANCH  26  28
HETATM   28  C30 UNL     1      20.087  31.813  14.386  1.00  0.00     0.012 C 
BRANCH  28  29
HETATM   29  C31 UNL     1      18.744  31.317  14.069  1.00  0.00     0.000 C 
BRANCH  29  30
HETATM   30  C32 UNL     1      17.543  32.123  14.313  1.00  0.00    -0.005 C 
HETATM   31  C33 UNL     1      16.687  31.867  15.507  1.00  0.00     0.005 C 
ENDBRANCH  29  30
ENDBRANCH  28  29
ENDBRANCH  26  28
ENDBRANCH  24  26
ENDBRANCH  22  24
ENDBRANCH  21  22
ENDBRANCH   1  21
BRANCH   2  32
HETATM   32  O1  UNL     1      22.754  37.417  16.747  1.00  0.00    -0.390 OA
ATOM     33  H1  UNL     1      23.592  37.671  17.116  1.00  0.00     0.210 HD
ENDBRANCH   2  32
BRANCH   9  34
HETATM   34  C13 UNL     1      19.319  38.504  16.926  1.00  0.00     0.220 C 
BRANCH  34  35
HETATM   35  O5  UNL     1      20.510  38.944  16.280  1.00  0.00    -0.319 OA
BRANCH  35  36
HETATM   36  C14 UNL     1      20.619  40.137  15.600  1.00  0.00     0.254 C 
HETATM   37  C15 UNL     1      20.144  41.380  16.203  1.00  0.00     0.126 C 
HETATM   38  O6  UNL     1      21.152  40.030  14.449  1.00  0.00    -0.266 OA
ENDBRANCH  35  36
ENDBRANCH  34  35
ENDBRANCH   9  34
BRANCH   6  39
HETATM   39  O2  UNL     1      21.422  40.942  19.715  1.00  0.00    -0.321 OA
BRANCH  39  40
HETATM   40  C10 UNL     1      22.152  41.528  20.707  1.00  0.00     0.398 C 
HETATM   41  O3  UNL     1      21.711  41.371  21.871  1.00  0.00    -0.276 OA
ENDBRANCH  39  40
ENDBRANCH   6  39
BRANCH  15  42
HETATM   42  C23 UNL     1      15.627  35.394  17.982  1.00  0.00     0.209 C 
HETATM   43  O7  UNL     1      15.043  34.808  18.899  1.00  0.00    -0.646 OA
HETATM   44  O8  UNL     1      15.324  34.951  16.667  1.00  0.00    -0.646 OA
ENDBRANCH  15  42
TORSDOF 14
ENDMDL
