MODEL 1
REMARK VINA RESULT: -8.421275424      0.000      0.000
REMARK  5 active torsions:
REMARK  status: ('A' for Active; 'I' for Inactive)
REMARK    1  A    between atoms: C2_2  and  O1_4 
REMARK    2  A    between atoms: O1_4  and  C4_5 
REMARK    3  A    between atoms: C4_5  and  N2_9 
REMARK    4  A    between atoms: C5_12  and  C6_13 
REMARK    5  A    between atoms: C8_17  and  C9_18 
ROOT
HETATM    1  N2  UNL     1      -4.383 -19.361  -1.117  1.00  0.00    -0.221 N 
HETATM    2  N3  UNL     1      -5.347 -20.220  -1.525  1.00  0.00    -0.289 N 
ATOM      3  H3  UNL     1      -5.544 -21.130  -1.108  1.00  0.00     0.187 HD
HETATM    4  C5  UNL     1      -5.995 -19.686  -2.557  1.00  0.00     0.092 A 
HETATM    5  C7  UNL     1      -5.429 -18.463  -2.808  1.00  0.00     0.062 A 
HETATM    6  C8  UNL     1      -4.407 -18.264  -1.887  1.00  0.00     0.068 A 
ENDROOT
BRANCH   6   7
HETATM    7  C9  UNL     1      -3.567 -17.078  -1.828  1.00  0.00     0.074 C 
HETATM    8  C10 UNL     1      -2.361 -17.344  -2.707  1.00  0.00     0.045 C 
HETATM    9  C11 UNL     1      -3.206 -16.559  -0.476  1.00  0.00     0.048 C 
HETATM   10  C12 UNL     1      -1.960 -15.666  -0.558  1.00  0.00     0.085 C 
HETATM   11  S1  UNL     1      -2.167 -14.340  -1.760  1.00  0.00    -0.095 SA
HETATM   12  C13 UNL     1      -3.548 -14.782  -2.829  1.00  0.00     0.134 C 
HETATM   13  N4  UNL     1      -3.836 -14.076  -3.862  1.00  0.00    -0.380 N 
HETATM   14  N5  UNL     1      -4.294 -15.956  -2.468  1.00  0.00    -0.356 N 
ATOM     15  H42 UNL     1      -3.306 -13.243  -4.118  1.00  0.00     0.158 HD
ATOM     16  H41 UNL     1      -4.618 -14.327  -4.468  1.00  0.00     0.158 HD
ATOM     17  H5  UNL     1      -5.295 -16.016  -2.646  1.00  0.00     0.162 HD
ENDBRANCH   6   7
BRANCH   1  18
HETATM   18  C4  UNL     1      -3.535 -19.727  -0.043  1.00  0.00     0.239 C 
HETATM   19  N1  UNL     1      -2.352 -20.201  -0.280  1.00  0.00    -0.364 N 
ATOM     20  H12 UNL     1      -1.742 -20.465   0.493  1.00  0.00     0.159 HD
ATOM     21  H11 UNL     1      -2.091 -20.280  -1.263  1.00  0.00     0.159 HD
BRANCH  18  22
HETATM   22  O1  UNL     1      -3.887 -19.621   1.282  1.00  0.00    -0.316 OA
BRANCH  22  23
HETATM   23  C2  UNL     1      -3.339 -18.687   2.181  1.00  0.00     0.123 C 
HETATM   24  C1  UNL     1      -4.307 -17.612   2.543  1.00  0.00     0.040 C 
HETATM   25  C3  UNL     1      -2.693 -19.348   3.383  1.00  0.00     0.040 C 
ENDBRANCH  22  23
ENDBRANCH  18  22
ENDBRANCH   1  18
BRANCH   4  26
HETATM   26  C6  UNL     1      -7.142 -20.315  -3.309  1.00  0.00     0.404 C 
HETATM   27  F1  UNL     1      -7.844 -19.376  -3.984  1.00  0.00    -0.207 F 
HETATM   28  F2  UNL     1      -6.690 -21.350  -4.110  1.00  0.00    -0.207 F 
ENDBRANCH   4  26
TORSDOF 5
ENDMDL
MODEL 2
REMARK VINA RESULT: -8.171502195      1.095      1.351
REMARK  5 active torsions:
REMARK  status: ('A' for Active; 'I' for Inactive)
REMARK    1  A    between atoms: C2_2  and  O1_4 
REMARK    2  A    between atoms: O1_4  and  C4_5 
REMARK    3  A    between atoms: C4_5  and  N2_9 
REMARK    4  A    between atoms: C5_12  and  C6_13 
REMARK    5  A    between atoms: C8_17  and  C9_18 
ROOT
HETATM    1  N2  UNL     1      -4.420 -19.394  -1.159  1.00  0.00    -0.221 N 
HETATM    2  N3  UNL     1      -5.473 -20.174  -1.499  1.00  0.00    -0.289 N 
ATOM      3  H3  UNL     1      -5.789 -20.999  -0.989  1.00  0.00     0.187 HD
HETATM    4  C5  UNL     1      -6.029 -19.690  -2.607  1.00  0.00     0.092 A 
HETATM    5  C7  UNL     1      -5.313 -18.581  -2.975  1.00  0.00     0.062 A 
HETATM    6  C8  UNL     1      -4.293 -18.399  -2.048  1.00  0.00     0.068 A 
ENDROOT
BRANCH   6   7
HETATM    7  C9  UNL     1      -3.316 -17.323  -2.094  1.00  0.00     0.074 C 
HETATM    8  C10 UNL     1      -3.740 -16.387  -3.209  1.00  0.00     0.045 C 
HETATM    9  C11 UNL     1      -1.875 -17.707  -2.166  1.00  0.00     0.048 C 
HETATM   10  C12 UNL     1      -1.035 -16.542  -2.707  1.00  0.00     0.085 C 
HETATM   11  S1  UNL     1      -1.288 -15.036  -1.753  1.00  0.00    -0.095 SA
HETATM   12  C13 UNL     1      -2.804 -15.241  -0.800  1.00  0.00     0.134 C 
HETATM   13  N4  UNL     1      -3.298 -14.266  -0.127  1.00  0.00    -0.380 N 
HETATM   14  N5  UNL     1      -3.422 -16.538  -0.843  1.00  0.00    -0.356 N 
ATOM     15  H42 UNL     1      -2.859 -13.346  -0.097  1.00  0.00     0.158 HD
ATOM     16  H41 UNL     1      -4.157 -14.382   0.412  1.00  0.00     0.158 HD
ATOM     17  H5  UNL     1      -3.921 -16.907  -0.034  1.00  0.00     0.162 HD
ENDBRANCH   6   7
BRANCH   1  18
HETATM   18  C4  UNL     1      -3.645 -19.731  -0.021  1.00  0.00     0.239 C 
HETATM   19  N1  UNL     1      -2.506 -20.333  -0.165  1.00  0.00    -0.364 N 
ATOM     20  H12 UNL     1      -1.948 -20.575   0.654  1.00  0.00     0.159 HD
ATOM     21  H11 UNL     1      -2.222 -20.530  -1.124  1.00  0.00     0.159 HD
BRANCH  18  22
HETATM   22  O1  UNL     1      -4.028 -19.466   1.273  1.00  0.00    -0.316 OA
BRANCH  22  23
HETATM   23  C2  UNL     1      -3.427 -18.500   2.101  1.00  0.00     0.123 C 
HETATM   24  C1  UNL     1      -4.314 -17.326   2.340  1.00  0.00     0.040 C 
HETATM   25  C3  UNL     1      -2.860 -19.098   3.374  1.00  0.00     0.040 C 
ENDBRANCH  22  23
ENDBRANCH  18  22
ENDBRANCH   1  18
BRANCH   4  26
HETATM   26  C6  UNL     1      -7.229 -20.260  -3.322  1.00  0.00     0.404 C 
HETATM   27  F1  UNL     1      -7.878 -19.295  -4.013  1.00  0.00    -0.207 F 
HETATM   28  F2  UNL     1      -6.861 -21.346  -4.101  1.00  0.00    -0.207 F 
ENDBRANCH   4  26
TORSDOF 5
ENDMDL
MODEL 3
REMARK VINA RESULT: -8.122797645      3.522      4.783
REMARK  5 active torsions:
REMARK  status: ('A' for Active; 'I' for Inactive)
REMARK    1  A    between atoms: C2_2  and  O1_4 
REMARK    2  A    between atoms: O1_4  and  C4_5 
REMARK    3  A    between atoms: C4_5  and  N2_9 
REMARK    4  A    between atoms: C5_12  and  C6_13 
REMARK    5  A    between atoms: C8_17  and  C9_18 
ROOT
HETATM    1  N2  UNL     1      -3.474 -18.417  -1.193  1.00  0.00    -0.221 N 
HETATM    2  N3  UNL     1      -2.384 -17.628  -1.048  1.00  0.00    -0.289 N 
ATOM      3  H3  UNL     1      -1.726 -17.664  -0.270  1.00  0.00     0.187 HD
HETATM    4  C5  UNL     1      -2.310 -16.797  -2.085  1.00  0.00     0.092 A 
HETATM    5  C7  UNL     1      -3.376 -17.067  -2.903  1.00  0.00     0.062 A 
HETATM    6  C8  UNL     1      -4.110 -18.099  -2.329  1.00  0.00     0.068 A 
ENDROOT
BRANCH   6   7
HETATM    7  C9  UNL     1      -5.319 -18.671  -2.901  1.00  0.00     0.074 C 
HETATM    8  C10 UNL     1      -6.494 -17.978  -2.240  1.00  0.00     0.045 C 
HETATM    9  C11 UNL     1      -5.440 -20.159  -2.903  1.00  0.00     0.048 C 
HETATM   10  C12 UNL     1      -6.908 -20.578  -3.051  1.00  0.00     0.085 C 
HETATM   11  S1  UNL     1      -7.672 -19.835  -4.503  1.00  0.00    -0.095 SA
HETATM   12  C13 UNL     1      -6.633 -18.457  -5.022  1.00  0.00     0.134 C 
HETATM   13  N4  UNL     1      -7.009 -17.663  -5.958  1.00  0.00    -0.380 N 
HETATM   14  N5  UNL     1      -5.382 -18.298  -4.333  1.00  0.00    -0.356 N 
ATOM     15  H42 UNL     1      -7.897 -17.776  -6.446  1.00  0.00     0.158 HD
ATOM     16  H41 UNL     1      -6.421 -16.883  -6.252  1.00  0.00     0.158 HD
ATOM     17  H5  UNL     1      -4.560 -17.937  -4.817  1.00  0.00     0.162 HD
ENDBRANCH   6   7
BRANCH   1  18
HETATM   18  C4  UNL     1      -3.781 -19.369  -0.189  1.00  0.00     0.239 C 
HETATM   19  N1  UNL     1      -3.170 -20.512  -0.167  1.00  0.00    -0.364 N 
ATOM     20  H12 UNL     1      -3.391 -21.196   0.556  1.00  0.00     0.159 HD
ATOM     21  H11 UNL     1      -2.475 -20.661  -0.898  1.00  0.00     0.159 HD
BRANCH  18  22
HETATM   22  O1  UNL     1      -4.720 -19.168   0.797  1.00  0.00    -0.316 OA
BRANCH  22  23
HETATM   23  C2  UNL     1      -4.582 -18.249   1.853  1.00  0.00     0.123 C 
HETATM   24  C1  UNL     1      -3.246 -18.337   2.512  1.00  0.00     0.040 C 
HETATM   25  C3  UNL     1      -4.964 -16.838   1.449  1.00  0.00     0.040 C 
ENDBRANCH  22  23
ENDBRANCH  18  22
ENDBRANCH   1  18
BRANCH   4  26
HETATM   26  C6  UNL     1      -1.246 -15.752  -2.314  1.00  0.00     0.404 C 
HETATM   27  F1  UNL     1      -1.031 -15.033  -1.189  1.00  0.00    -0.207 F 
HETATM   28  F2  UNL     1      -0.098 -16.332  -2.829  1.00  0.00    -0.207 F 
ENDBRANCH   4  26
TORSDOF 5
ENDMDL
MODEL 4
REMARK VINA RESULT: -8.042945407      1.869      2.231
REMARK  5 active torsions:
REMARK  status: ('A' for Active; 'I' for Inactive)
REMARK    1  A    between atoms: C2_2  and  O1_4 
REMARK    2  A    between atoms: O1_4  and  C4_5 
REMARK    3  A    between atoms: C4_5  and  N2_9 
REMARK    4  A    between atoms: C5_12  and  C6_13 
REMARK    5  A    between atoms: C8_17  and  C9_18 
ROOT
HETATM    1  N2  UNL     1      -3.962 -18.163  -1.927  1.00  0.00    -0.221 N 
HETATM    2  N3  UNL     1      -4.481 -19.407  -2.062  1.00  0.00    -0.289 N 
ATOM      3  H3  UNL     1      -4.014 -20.275  -1.800  1.00  0.00     0.187 HD
HETATM    4  C5  UNL     1      -5.698 -19.312  -2.591  1.00  0.00     0.092 A 
HETATM    5  C7  UNL     1      -5.954 -17.981  -2.796  1.00  0.00     0.062 A 
HETATM    6  C8  UNL     1      -4.846 -17.258  -2.369  1.00  0.00     0.068 A 
ENDROOT
BRANCH   6   7
HETATM    7  C9  UNL     1      -4.734 -15.809  -2.422  1.00  0.00     0.074 C 
HETATM    8  C10 UNL     1      -3.681 -15.483  -3.462  1.00  0.00     0.045 C 
HETATM    9  C11 UNL     1      -4.527 -15.089  -1.131  1.00  0.00     0.048 C 
HETATM   10  C12 UNL     1      -3.938 -13.694  -1.382  1.00  0.00     0.085 C 
HETATM   11  S1  UNL     1      -4.941 -12.743  -2.535  1.00  0.00    -0.095 SA
HETATM   12  C13 UNL     1      -6.020 -13.897  -3.403  1.00  0.00     0.134 C 
HETATM   13  N4  UNL     1      -6.754 -13.507  -4.381  1.00  0.00    -0.380 N 
HETATM   14  N5  UNL     1      -6.006 -15.260  -2.947  1.00  0.00    -0.356 N 
ATOM     15  H42 UNL     1      -6.763 -12.540  -4.705  1.00  0.00     0.158 HD
ATOM     16  H41 UNL     1      -7.364 -14.160  -4.873  1.00  0.00     0.158 HD
ATOM     17  H5  UNL     1      -6.848 -15.833  -2.984  1.00  0.00     0.162 HD
ENDBRANCH   6   7
BRANCH   1  18
HETATM   18  C4  UNL     1      -2.652 -18.010  -1.409  1.00  0.00     0.239 C 
HETATM   19  N1  UNL     1      -1.623 -18.238  -2.164  1.00  0.00    -0.364 N 
ATOM     20  H12 UNL     1      -0.680 -18.128  -1.791  1.00  0.00     0.159 HD
ATOM     21  H11 UNL     1      -1.826 -18.520  -3.123  1.00  0.00     0.159 HD
BRANCH  18  22
HETATM   22  O1  UNL     1      -2.378 -17.630  -0.115  1.00  0.00    -0.316 OA
BRANCH  22  23
HETATM   23  C2  UNL     1      -3.235 -17.850   0.979  1.00  0.00     0.123 C 
HETATM   24  C1  UNL     1      -3.153 -19.248   1.492  1.00  0.00     0.040 C 
HETATM   25  C3  UNL     1      -3.076 -16.799   2.060  1.00  0.00     0.040 C 
ENDBRANCH  22  23
ENDBRANCH  18  22
ENDBRANCH   1  18
BRANCH   4  26
HETATM   26  C6  UNL     1      -6.623 -20.462  -2.906  1.00  0.00     0.404 C 
HETATM   27  F1  UNL     1      -6.797 -21.248  -1.819  1.00  0.00    -0.207 F 
HETATM   28  F2  UNL     1      -7.809 -19.998  -3.449  1.00  0.00    -0.207 F 
ENDBRANCH   4  26
TORSDOF 5
ENDMDL
MODEL 5
REMARK VINA RESULT: -8.039830359      2.308      4.421
REMARK  5 active torsions:
REMARK  status: ('A' for Active; 'I' for Inactive)
REMARK    1  A    between atoms: C2_2  and  O1_4 
REMARK    2  A    between atoms: O1_4  and  C4_5 
REMARK    3  A    between atoms: C4_5  and  N2_9 
REMARK    4  A    between atoms: C5_12  and  C6_13 
REMARK    5  A    between atoms: C8_17  and  C9_18 
ROOT
HETATM    1  N2  UNL     1      -5.135 -16.972  -3.113  1.00  0.00    -0.221 N 
HETATM    2  N3  UNL     1      -5.901 -16.965  -4.229  1.00  0.00    -0.289 N 
ATOM      3  H3  UNL     1      -5.794 -16.327  -5.018  1.00  0.00     0.187 HD
HETATM    4  C5  UNL     1      -6.817 -17.926  -4.131  1.00  0.00     0.092 A 
HETATM    5  C7  UNL     1      -6.625 -18.553  -2.927  1.00  0.00     0.062 A 
HETATM    6  C8  UNL     1      -5.553 -17.941  -2.288  1.00  0.00     0.068 A 
ENDROOT
BRANCH   6   7
HETATM    7  C9  UNL     1      -5.041 -18.326  -0.982  1.00  0.00     0.074 C 
HETATM    8  C10 UNL     1      -5.809 -19.560  -0.550  1.00  0.00     0.045 C 
HETATM    9  C11 UNL     1      -4.985 -17.271   0.072  1.00  0.00     0.048 C 
HETATM   10  C12 UNL     1      -4.920 -17.908   1.467  1.00  0.00     0.085 C 
HETATM   11  S1  UNL     1      -3.556 -19.075   1.605  1.00  0.00    -0.095 SA
HETATM   12  C13 UNL     1      -3.026 -19.496  -0.065  1.00  0.00     0.134 C 
HETATM   13  N4  UNL     1      -2.151 -20.413  -0.268  1.00  0.00    -0.380 N 
HETATM   14  N5  UNL     1      -3.634 -18.760  -1.139  1.00  0.00    -0.356 N 
ATOM     15  H42 UNL     1      -1.720 -20.935   0.494  1.00  0.00     0.158 HD
ATOM     16  H41 UNL     1      -1.851 -20.652  -1.214  1.00  0.00     0.158 HD
ATOM     17  H5  UNL     1      -3.111 -18.543  -1.987  1.00  0.00     0.162 HD
ENDBRANCH   6   7
BRANCH   1  18
HETATM   18  C4  UNL     1      -4.104 -16.010  -2.972  1.00  0.00     0.239 C 
HETATM   19  N1  UNL     1      -4.279 -14.800  -3.403  1.00  0.00    -0.364 N 
ATOM     20  H12 UNL     1      -3.537 -14.108  -3.302  1.00  0.00     0.159 HD
ATOM     21  H11 UNL     1      -5.186 -14.604  -3.828  1.00  0.00     0.159 HD
BRANCH  18  22
HETATM   22  O1  UNL     1      -2.881 -16.275  -2.400  1.00  0.00    -0.316 OA
BRANCH  22  23
HETATM   23  C2  UNL     1      -2.128 -15.343  -1.663  1.00  0.00     0.123 C 
HETATM   24  C1  UNL     1      -2.078 -15.675  -0.210  1.00  0.00     0.040 C 
HETATM   25  C3  UNL     1      -0.762 -15.089  -2.271  1.00  0.00     0.040 C 
ENDBRANCH  22  23
ENDBRANCH  18  22
ENDBRANCH   1  18
BRANCH   4  26
HETATM   26  C6  UNL     1      -7.869 -18.261  -5.159  1.00  0.00     0.404 C 
HETATM   27  F1  UNL     1      -7.299 -18.742  -6.288  1.00  0.00    -0.207 F 
HETATM   28  F2  UNL     1      -8.826 -19.103  -4.620  1.00  0.00    -0.207 F 
ENDBRANCH   4  26
TORSDOF 5
ENDMDL
