MODEL 1
REMARK VINA RESULT: -8.117272713      0.000      0.000
REMARK  9 active torsions:
REMARK  status: ('A' for Active; 'I' for Inactive)
REMARK    1  A    between atoms: C2_2  and  O1_3 
REMARK    2  A    between atoms: C2_2  and  O2_5 
REMARK    3  A    between atoms: O2_5  and  N1_6 
REMARK       I    between atoms: N1_6  and  C3_8 
REMARK       I    between atoms: C3_8  and  N3_12 
REMARK    4  A    between atoms: N3_12  and  N5_15 
REMARK       I    between atoms: N5_15  and  C5_16 
REMARK    5  A    between atoms: C5_16  and  C6_18 
REMARK    6  A    between atoms: C7_20  and  N6_21 
REMARK    7  A    between atoms: N6_21  and  N7_23 
REMARK    8  A    between atoms: N7_23  and  O4_24 
REMARK    9  A    between atoms: C8_26  and  C9_27 
ROOT
HETATM    1  N1  UNL     1      44.047  -9.368 -14.353  1.00  0.00    -0.091 N 
ATOM      2  H1  UNL     1      43.640  -8.570 -13.866  1.00  0.00     0.213 HD
HETATM    3  C3  UNL     1      45.461  -9.387 -14.641  1.00  0.00     0.737 C 
HETATM    4  N2  UNL     1      46.132  -8.361 -14.813  1.00  0.00    -0.230 N 
ATOM      5  H21 UNL     1      47.131  -8.376 -15.017  1.00  0.00     0.174 HD
ATOM      6  H22 UNL     1      45.776  -7.406 -14.793  1.00  0.00     0.174 HD
HETATM    7  N3  UNL     1      45.973 -10.762 -14.671  1.00  0.00     0.058 N 
HETATM    8  C4  UNL     1      46.192 -11.419 -15.894  1.00  0.00     0.234 C 
HETATM    9  N4  UNL     1      46.365 -11.970 -16.936  1.00  0.00    -0.169 NA
ENDROOT
BRANCH   7  10
HETATM   10  N5  UNL     1      46.143 -11.389 -13.572  1.00  0.00    -0.249 NA
HETATM   11  C5  UNL     1      46.337 -12.072 -12.378  1.00  0.00     0.356 C 
HETATM   12  O3  UNL     1      47.430 -12.396 -11.906  1.00  0.00    -0.248 OA
BRANCH  11  13
HETATM   13  C6  UNL     1      45.177 -12.536 -11.505  1.00  0.00     0.116 A 
HETATM   14  S1  UNL     1      44.834 -14.064 -10.953  1.00  0.00    -0.062 SA
HETATM   15  C7  UNL     1      43.605 -13.724  -9.864  1.00  0.00     0.104 A 
HETATM   16  C8  UNL     1      43.483 -12.343  -9.956  1.00  0.00     0.070 A 
HETATM   17  C11 UNL     1      44.330 -11.721 -10.842  1.00  0.00     0.087 A 
HETATM   18  N8  UNL     1      44.396 -10.272 -11.124  1.00  0.00    -0.100 NA
BRANCH  15  19
HETATM   19  N6  UNL     1      42.788 -14.510  -8.950  1.00  0.00    -0.271 N 
ATOM     20  H6  UNL     1      43.176 -14.818  -8.059  1.00  0.00     0.185 HD
BRANCH  19  21
HETATM   21  N7  UNL     1      41.485 -14.840  -9.289  1.00  0.00     0.019 NA
BRANCH  21  22
HETATM   22  O4  UNL     1      40.910 -15.539  -8.256  1.00  0.00    -0.277 OA
ATOM     23  H4  UNL     1      40.260 -14.992  -7.830  1.00  0.00     0.240 HD
ENDBRANCH  21  22
ENDBRANCH  19  21
ENDBRANCH  15  19
BRANCH  16  24
HETATM   24  C9  UNL     1      42.531 -11.570  -9.069  1.00  0.00     0.160 C 
HETATM   25  C10 UNL     1      41.256 -11.063  -9.642  1.00  0.00     0.097 C 
HETATM   26  O5  UNL     1      42.822 -11.389  -7.894  1.00  0.00    -0.293 OA
ENDBRANCH  16  24
ENDBRANCH  11  13
ENDBRANCH   7  10
BRANCH   1  27
HETATM   27  O2  UNL     1      43.247 -10.416 -14.731  1.00  0.00    -0.234 OA
BRANCH  27  28
HETATM   28  C2  UNL     1      42.157 -10.898 -14.237  1.00  0.00     0.282 C 
HETATM   29  C1  UNL     1      41.233 -10.978 -13.150  1.00  0.00     0.073 C 
BRANCH  28  30
HETATM   30  O1  UNL     1      41.608 -11.774 -15.243  1.00  0.00    -0.369 OA
ATOM     31  H1  UNL     1      41.897 -11.400 -16.068  1.00  0.00     0.212 HD
ENDBRANCH  28  30
ENDBRANCH  27  28
ENDBRANCH   1  27
TORSDOF 9
ENDMDL
MODEL 2
REMARK VINA RESULT: -8.068007430      1.966      2.531
REMARK  9 active torsions:
REMARK  status: ('A' for Active; 'I' for Inactive)
REMARK    1  A    between atoms: C2_2  and  O1_3 
REMARK    2  A    between atoms: C2_2  and  O2_5 
REMARK    3  A    between atoms: O2_5  and  N1_6 
REMARK       I    between atoms: N1_6  and  C3_8 
REMARK       I    between atoms: C3_8  and  N3_12 
REMARK    4  A    between atoms: N3_12  and  N5_15 
REMARK       I    between atoms: N5_15  and  C5_16 
REMARK    5  A    between atoms: C5_16  and  C6_18 
REMARK    6  A    between atoms: C7_20  and  N6_21 
REMARK    7  A    between atoms: N6_21  and  N7_23 
REMARK    8  A    between atoms: N7_23  and  O4_24 
REMARK    9  A    between atoms: C8_26  and  C9_27 
ROOT
HETATM    1  N1  UNL     1      43.338  -9.556 -14.930  1.00  0.00    -0.091 N 
ATOM      2  H1  UNL     1      42.867  -8.662 -15.063  1.00  0.00     0.213 HD
HETATM    3  C3  UNL     1      44.774  -9.598 -14.802  1.00  0.00     0.737 C 
HETATM    4  N2  UNL     1      45.526  -8.764 -15.322  1.00  0.00    -0.230 N 
ATOM      5  H21 UNL     1      46.541  -8.794 -15.232  1.00  0.00     0.174 HD
ATOM      6  H22 UNL     1      45.233  -7.979 -15.904  1.00  0.00     0.174 HD
HETATM    7  N3  UNL     1      45.195 -10.728 -13.965  1.00  0.00     0.058 N 
HETATM    8  C4  UNL     1      45.682 -11.910 -14.549  1.00  0.00     0.234 C 
HETATM    9  N4  UNL     1      46.085 -12.911 -15.055  1.00  0.00    -0.169 NA
ENDROOT
BRANCH   7  10
HETATM   10  N5  UNL     1      45.040 -10.659 -12.700  1.00  0.00    -0.249 NA
HETATM   11  C5  UNL     1      44.875 -10.577 -11.323  1.00  0.00     0.356 C 
HETATM   12  O3  UNL     1      45.051  -9.566 -10.639  1.00  0.00    -0.248 OA
BRANCH  11  13
HETATM   13  C6  UNL     1      44.471 -11.778 -10.475  1.00  0.00     0.116 A 
HETATM   14  S1  UNL     1      42.951 -12.359 -10.147  1.00  0.00    -0.062 SA
HETATM   15  C7  UNL     1      43.335 -13.815  -9.410  1.00  0.00     0.104 A 
HETATM   16  C8  UNL     1      44.724 -13.820  -9.441  1.00  0.00     0.070 A 
HETATM   17  C11 UNL     1      45.318 -12.720 -10.012  1.00  0.00     0.087 A 
HETATM   18  N8  UNL     1      46.769 -12.486 -10.162  1.00  0.00    -0.100 NA
BRANCH  15  19
HETATM   19  N6  UNL     1      42.573 -14.924  -8.855  1.00  0.00    -0.271 N 
ATOM     20  H6  UNL     1      43.043 -15.631  -8.289  1.00  0.00     0.185 HD
BRANCH  19  21
HETATM   21  N7  UNL     1      41.210 -15.022  -9.093  1.00  0.00     0.019 NA
BRANCH  21  22
HETATM   22  O4  UNL     1      40.614 -15.688  -8.051  1.00  0.00    -0.277 OA
ATOM     23  H4  UNL     1      39.680 -15.756  -8.214  1.00  0.00     0.240 HD
ENDBRANCH  21  22
ENDBRANCH  19  21
ENDBRANCH  15  19
BRANCH  16  24
HETATM   24  C9  UNL     1      45.523 -15.008  -8.949  1.00  0.00     0.160 C 
HETATM   25  C10 UNL     1      46.444 -14.834  -7.793  1.00  0.00     0.097 C 
HETATM   26  O5  UNL     1      45.387 -16.091  -9.503  1.00  0.00    -0.293 OA
ENDBRANCH  16  24
ENDBRANCH  11  13
ENDBRANCH   7  10
BRANCH   1  27
HETATM   27  O2  UNL     1      42.602 -10.713 -14.874  1.00  0.00    -0.234 OA
BRANCH  27  28
HETATM   28  C2  UNL     1      41.555 -11.044 -14.196  1.00  0.00     0.282 C 
HETATM   29  C1  UNL     1      40.840 -11.031 -12.959  1.00  0.00     0.073 C 
BRANCH  28  30
HETATM   30  O1  UNL     1      40.702 -11.777 -15.099  1.00  0.00    -0.369 OA
ATOM     31  H1  UNL     1      41.077 -11.624 -15.959  1.00  0.00     0.212 HD
ENDBRANCH  28  30
ENDBRANCH  27  28
ENDBRANCH   1  27
TORSDOF 9
ENDMDL
MODEL 3
REMARK VINA RESULT: -7.816432318      3.434      6.387
REMARK  9 active torsions:
REMARK  status: ('A' for Active; 'I' for Inactive)
REMARK    1  A    between atoms: C2_2  and  O1_3 
REMARK    2  A    between atoms: C2_2  and  O2_5 
REMARK    3  A    between atoms: O2_5  and  N1_6 
REMARK       I    between atoms: N1_6  and  C3_8 
REMARK       I    between atoms: C3_8  and  N3_12 
REMARK    4  A    between atoms: N3_12  and  N5_15 
REMARK       I    between atoms: N5_15  and  C5_16 
REMARK    5  A    between atoms: C5_16  and  C6_18 
REMARK    6  A    between atoms: C7_20  and  N6_21 
REMARK    7  A    between atoms: N6_21  and  N7_23 
REMARK    8  A    between atoms: N7_23  and  O4_24 
REMARK    9  A    between atoms: C8_26  and  C9_27 
ROOT
HETATM    1  N1  UNL     1      46.205 -14.945  -7.783  1.00  0.00    -0.091 N 
ATOM      2  H1  UNL     1      45.504 -14.632  -7.112  1.00  0.00     0.213 HD
HETATM    3  C3  UNL     1      45.792 -15.622  -8.989  1.00  0.00     0.737 C 
HETATM    4  N2  UNL     1      44.758 -16.298  -9.066  1.00  0.00    -0.230 N 
ATOM      5  H21 UNL     1      44.467 -16.777  -9.918  1.00  0.00     0.174 HD
ATOM      6  H22 UNL     1      44.101 -16.471  -8.305  1.00  0.00     0.174 HD
HETATM    7  N3  UNL     1      46.738 -15.374 -10.082  1.00  0.00     0.058 N 
HETATM    8  C4  UNL     1      47.701 -16.338 -10.430  1.00  0.00     0.234 C 
HETATM    9  N4  UNL     1      48.519 -17.158 -10.711  1.00  0.00    -0.169 NA
ENDROOT
BRANCH   7  10
HETATM   10  N5  UNL     1      46.734 -14.239 -10.666  1.00  0.00    -0.249 NA
HETATM   11  C5  UNL     1      46.738 -13.002 -11.300  1.00  0.00     0.356 C 
HETATM   12  O3  UNL     1      47.742 -12.333 -11.560  1.00  0.00    -0.248 OA
BRANCH  11  13
HETATM   13  C6  UNL     1      45.455 -12.301 -11.731  1.00  0.00     0.116 A 
HETATM   14  S1  UNL     1      45.092 -11.596 -13.189  1.00  0.00    -0.062 SA
HETATM   15  C7  UNL     1      43.453 -11.306 -12.986  1.00  0.00     0.104 A 
HETATM   16  C8  UNL     1      43.208 -11.798 -11.710  1.00  0.00     0.070 A 
HETATM   17  C11 UNL     1      44.291 -12.325 -11.049  1.00  0.00     0.087 A 
HETATM   18  N8  UNL     1      44.293 -12.905  -9.690  1.00  0.00    -0.100 NA
BRANCH  15  19
HETATM   19  N6  UNL     1      42.395 -10.740 -13.810  1.00  0.00    -0.271 N 
ATOM     20  H6  UNL     1      42.052  -9.798 -13.621  1.00  0.00     0.185 HD
BRANCH  19  21
HETATM   21  N7  UNL     1      41.852 -11.478 -14.851  1.00  0.00     0.019 NA
BRANCH  21  22
HETATM   22  O4  UNL     1      40.581 -11.874 -14.512  1.00  0.00    -0.277 OA
ATOM     23  H4  UNL     1      40.631 -12.570 -13.867  1.00  0.00     0.240 HD
ENDBRANCH  21  22
ENDBRANCH  19  21
ENDBRANCH  15  19
BRANCH  16  24
HETATM   24  C9  UNL     1      41.812 -11.824 -11.126  1.00  0.00     0.160 C 
HETATM   25  C10 UNL     1      41.508 -10.985  -9.937  1.00  0.00     0.097 C 
HETATM   26  O5  UNL     1      40.957 -12.526 -11.651  1.00  0.00    -0.293 OA
ENDBRANCH  16  24
ENDBRANCH  11  13
ENDBRANCH   7  10
BRANCH   1  27
HETATM   27  O2  UNL     1      47.536 -14.719  -7.535  1.00  0.00    -0.234 OA
BRANCH  27  28
HETATM   28  C2  UNL     1      48.186 -13.661  -7.183  1.00  0.00     0.282 C 
HETATM   29  C1  UNL     1      48.802 -12.887  -6.153  1.00  0.00     0.073 C 
BRANCH  28  30
HETATM   30  O1  UNL     1      48.379 -12.886  -8.384  1.00  0.00    -0.369 OA
ATOM     31  H1  UNL     1      49.091 -13.321  -8.837  1.00  0.00     0.212 HD
ENDBRANCH  28  30
ENDBRANCH  27  28
ENDBRANCH   1  27
TORSDOF 9
ENDMDL
MODEL 4
REMARK VINA RESULT: -7.811875583      1.903      2.311
REMARK  9 active torsions:
REMARK  status: ('A' for Active; 'I' for Inactive)
REMARK    1  A    between atoms: C2_2  and  O1_3 
REMARK    2  A    between atoms: C2_2  and  O2_5 
REMARK    3  A    between atoms: O2_5  and  N1_6 
REMARK       I    between atoms: N1_6  and  C3_8 
REMARK       I    between atoms: C3_8  and  N3_12 
REMARK    4  A    between atoms: N3_12  and  N5_15 
REMARK       I    between atoms: N5_15  and  C5_16 
REMARK    5  A    between atoms: C5_16  and  C6_18 
REMARK    6  A    between atoms: C7_20  and  N6_21 
REMARK    7  A    between atoms: N6_21  and  N7_23 
REMARK    8  A    between atoms: N7_23  and  O4_24 
REMARK    9  A    between atoms: C8_26  and  C9_27 
ROOT
HETATM    1  N1  UNL     1      44.184  -8.973 -14.689  1.00  0.00    -0.091 N 
ATOM      2  H1  UNL     1      43.781  -8.132 -14.277  1.00  0.00     0.213 HD
HETATM    3  C3  UNL     1      45.589  -9.011 -15.015  1.00  0.00     0.737 C 
HETATM    4  N2  UNL     1      46.243  -8.004 -15.314  1.00  0.00    -0.230 N 
ATOM      5  H21 UNL     1      47.236  -8.031 -15.544  1.00  0.00     0.174 HD
ATOM      6  H22 UNL     1      45.876  -7.054 -15.383  1.00  0.00     0.174 HD
HETATM    7  N3  UNL     1      46.116 -10.377 -14.915  1.00  0.00     0.058 N 
HETATM    8  C4  UNL     1      46.307 -11.158 -16.069  1.00  0.00     0.234 C 
HETATM    9  N4  UNL     1      46.457 -11.814 -17.052  1.00  0.00    -0.169 NA
ENDROOT
BRANCH   7  10
HETATM   10  N5  UNL     1      46.324 -10.883 -13.762  1.00  0.00    -0.249 NA
HETATM   11  C5  UNL     1      46.559 -11.437 -12.510  1.00  0.00     0.356 C 
HETATM   12  O3  UNL     1      47.630 -11.915 -12.126  1.00  0.00    -0.248 OA
BRANCH  11  13
HETATM   13  C6  UNL     1      45.472 -11.543 -11.446  1.00  0.00     0.116 A 
HETATM   14  S1  UNL     1      44.855 -10.355 -10.464  1.00  0.00    -0.062 SA
HETATM   15  C7  UNL     1      43.547 -11.163  -9.795  1.00  0.00     0.104 A 
HETATM   16  C8  UNL     1      43.620 -12.416 -10.391  1.00  0.00     0.070 A 
HETATM   17  C11 UNL     1      44.659 -12.605 -11.271  1.00  0.00     0.087 A 
HETATM   18  N8  UNL     1      44.956 -13.840 -12.026  1.00  0.00    -0.100 NA
BRANCH  15  19
HETATM   19  N6  UNL     1      42.486 -10.816  -8.861  1.00  0.00    -0.271 N 
ATOM     20  H6  UNL     1      42.600 -11.013  -7.867  1.00  0.00     0.185 HD
BRANCH  19  21
HETATM   21  N7  UNL     1      41.321 -10.219  -9.319  1.00  0.00     0.019 NA
BRANCH  21  22
HETATM   22  O4  UNL     1      40.302 -11.138  -9.300  1.00  0.00    -0.277 OA
ATOM     23  H4  UNL     1      39.829 -11.067  -8.478  1.00  0.00     0.240 HD
ENDBRANCH  21  22
ENDBRANCH  19  21
ENDBRANCH  15  19
BRANCH  16  24
HETATM   24  C9  UNL     1      42.567 -13.475 -10.144  1.00  0.00     0.160 C 
HETATM   25  C10 UNL     1      42.849 -14.567  -9.175  1.00  0.00     0.097 C 
HETATM   26  O5  UNL     1      41.498 -13.404 -10.736  1.00  0.00    -0.293 OA
ENDBRANCH  16  24
ENDBRANCH  11  13
ENDBRANCH   7  10
BRANCH   1  27
HETATM   27  O2  UNL     1      43.386 -10.063 -14.931  1.00  0.00    -0.234 OA
BRANCH  27  28
HETATM   28  C2  UNL     1      42.687 -10.817 -14.151  1.00  0.00     0.282 C 
HETATM   29  C1  UNL     1      41.592 -10.965 -13.246  1.00  0.00     0.073 C 
BRANCH  28  30
HETATM   30  O1  UNL     1      43.290 -12.127 -14.206  1.00  0.00    -0.369 OA
ATOM     31  H1  UNL     1      42.555 -12.724 -14.286  1.00  0.00     0.212 HD
ENDBRANCH  28  30
ENDBRANCH  27  28
ENDBRANCH   1  27
TORSDOF 9
ENDMDL
MODEL 5
REMARK VINA RESULT: -7.802820950      1.503      1.629
REMARK  9 active torsions:
REMARK  status: ('A' for Active; 'I' for Inactive)
REMARK    1  A    between atoms: C2_2  and  O1_3 
REMARK    2  A    between atoms: C2_2  and  O2_5 
REMARK    3  A    between atoms: O2_5  and  N1_6 
REMARK       I    between atoms: N1_6  and  C3_8 
REMARK       I    between atoms: C3_8  and  N3_12 
REMARK    4  A    between atoms: N3_12  and  N5_15 
REMARK       I    between atoms: N5_15  and  C5_16 
REMARK    5  A    between atoms: C5_16  and  C6_18 
REMARK    6  A    between atoms: C7_20  and  N6_21 
REMARK    7  A    between atoms: N6_21  and  N7_23 
REMARK    8  A    between atoms: N7_23  and  O4_24 
REMARK    9  A    between atoms: C8_26  and  C9_27 
ROOT
HETATM    1  N1  UNL     1      43.534  -9.382 -14.520  1.00  0.00    -0.091 N 
ATOM      2  H1  UNL     1      43.039  -8.546 -14.210  1.00  0.00     0.213 HD
HETATM    3  C3  UNL     1      44.906  -9.284 -14.955  1.00  0.00     0.737 C 
HETATM    4  N2  UNL     1      45.385  -8.260 -15.461  1.00  0.00    -0.230 N 
ATOM      5  H21 UNL     1      46.355  -8.191 -15.769  1.00  0.00     0.174 HD
ATOM      6  H22 UNL     1      44.879  -7.394 -15.645  1.00  0.00     0.174 HD
HETATM    7  N3  UNL     1      45.633 -10.530 -14.690  1.00  0.00     0.058 N 
HETATM    8  C4  UNL     1      45.865 -11.458 -15.721  1.00  0.00     0.234 C 
HETATM    9  N4  UNL     1      46.048 -12.241 -16.600  1.00  0.00    -0.169 NA
ENDROOT
BRANCH   7  10
HETATM   10  N5  UNL     1      45.986 -10.805 -13.495  1.00  0.00    -0.249 NA
HETATM   11  C5  UNL     1      46.377 -11.100 -12.195  1.00  0.00     0.356 C 
HETATM   12  O3  UNL     1      47.326 -10.587 -11.598  1.00  0.00    -0.248 OA
BRANCH  11  13
HETATM   13  C6  UNL     1      45.667 -12.149 -11.346  1.00  0.00     0.116 A 
HETATM   14  S1  UNL     1      46.219 -13.631 -10.842  1.00  0.00    -0.062 SA
HETATM   15  C7  UNL     1      45.014 -14.050  -9.754  1.00  0.00     0.104 A 
HETATM   16  C8  UNL     1      44.156 -12.958  -9.808  1.00  0.00     0.070 A 
HETATM   17  C11 UNL     1      44.518 -11.950 -10.668  1.00  0.00     0.087 A 
HETATM   18  N8  UNL     1      43.777 -10.693 -10.908  1.00  0.00    -0.100 NA
BRANCH  15  19
HETATM   19  N6  UNL     1      44.767 -15.181  -8.871  1.00  0.00    -0.271 N 
ATOM     20  H6  UNL     1      43.942 -15.186  -8.271  1.00  0.00     0.185 HD
BRANCH  19  21
HETATM   21  N7  UNL     1      45.650 -16.250  -8.845  1.00  0.00     0.019 NA
BRANCH  21  22
HETATM   22  O4  UNL     1      44.970 -17.392  -8.497  1.00  0.00    -0.277 OA
ATOM     23  H4  UNL     1      45.438 -17.836  -7.799  1.00  0.00     0.240 HD
ENDBRANCH  21  22
ENDBRANCH  19  21
ENDBRANCH  15  19
BRANCH  16  24
HETATM   24  C9  UNL     1      42.943 -12.859  -8.908  1.00  0.00     0.160 C 
HETATM   25  C10 UNL     1      41.628 -13.341  -9.407  1.00  0.00     0.097 C 
HETATM   26  O5  UNL     1      43.070 -12.395  -7.782  1.00  0.00    -0.293 OA
ENDBRANCH  16  24
ENDBRANCH  11  13
ENDBRANCH   7  10
BRANCH   1  27
HETATM   27  O2  UNL     1      42.891 -10.594 -14.521  1.00  0.00    -0.234 OA
BRANCH  27  28
HETATM   28  C2  UNL     1      41.772 -10.984 -14.010  1.00  0.00     0.282 C 
HETATM   29  C1  UNL     1      40.874 -11.010 -12.900  1.00  0.00     0.073 C 
BRANCH  28  30
HETATM   30  O1  UNL     1      41.114 -11.768 -15.026  1.00  0.00    -0.369 OA
ATOM     31  H1  UNL     1      41.690 -11.713 -15.781  1.00  0.00     0.212 HD
ENDBRANCH  28  30
ENDBRANCH  27  28
ENDBRANCH   1  27
TORSDOF 9
ENDMDL
