MODEL 1
REMARK VINA RESULT: -9.086133486      0.000      0.000
REMARK  5 active torsions:
REMARK  status: ('A' for Active; 'I' for Inactive)
REMARK    1  A    between atoms: C2_2  and  C3_3 
REMARK    2  A    between atoms: C3_3  and  C4_4 
REMARK    3  A    between atoms: C4_4  and  C5_5 
REMARK    4  A    between atoms: C5_5  and  C6_6 
REMARK    5  A    between atoms: C13_13  and  C14_14 
ROOT
HETATM    1  C6  UNL     1      13.681  24.197   5.195  1.00  0.00    -0.001 C 
HETATM    2  C7  UNL     1      12.396  23.469   5.035  1.00  0.00     0.003 C 
HETATM    3  C8  UNL     1      12.872  22.179   5.694  1.00  0.00    -0.005 C 
HETATM    4  C9  UNL     1      11.878  21.127   5.842  1.00  0.00     0.006 C 
HETATM    5  C10 UNL     1      11.177  20.925   4.582  1.00  0.00     0.011 C 
HETATM    6  C11 UNL     1      11.540  21.744   3.373  1.00  0.00    -0.029 C 
HETATM    7  C12 UNL     1      12.838  21.185   2.764  1.00  0.00     0.016 C 
HETATM    8  C13 UNL     1      10.374  21.488   2.485  1.00  0.00     0.029 C 
HETATM    9  C20 UNL     1      10.359  22.608   1.439  1.00  0.00     0.013 C 
HETATM   10  C21 UNL     1       9.756  23.737   2.256  1.00  0.00     0.044 C 
HETATM   11  C22 UNL     1      10.787  24.188   3.235  1.00  0.00     0.104 C 
HETATM   12  C23 UNL     1      10.067  24.796   4.417  1.00  0.00     0.052 C 
HETATM   13  F1  UNL     1      11.303  25.282   2.503  1.00  0.00    -0.243 F 
HETATM   14  C24 UNL     1      11.842  23.211   3.648  1.00  0.00     0.038 C 
HETATM   15  C25 UNL     1      13.334  22.637   7.037  1.00  0.00    -0.002 C 
HETATM   16  C26 UNL     1      12.560  23.556   7.869  1.00  0.00     0.006 C 
HETATM   17  C27 UNL     1      13.692  24.563   7.683  1.00  0.00     0.010 C 
HETATM   18  C28 UNL     1      14.220  23.778   6.528  1.00  0.00    -0.036 C 
HETATM   19  C29 UNL     1      15.689  23.395   6.569  1.00  0.00     0.016 C 
ENDROOT
BRANCH   8  20
HETATM   20  C14 UNL     1      10.078  20.251   1.841  1.00  0.00     0.003 C 
HETATM   21  C15 UNL     1       8.749  19.588   1.869  1.00  0.00     0.078 C 
HETATM   22  C16 UNL     1       9.048  18.337   1.022  1.00  0.00     0.067 C 
HETATM   23  C17 UNL     1       7.805  17.644   0.605  1.00  0.00     0.046 C 
HETATM   24  C18 UNL     1      10.089  17.472   1.643  1.00  0.00     0.046 C 
HETATM   25  O1  UNL     1       9.678  19.037  -0.075  1.00  0.00    -0.307 OA
HETATM   26  C19 UNL     1      10.608  19.928   0.502  1.00  0.00     0.286 C 
HETATM   27  O2  UNL     1      11.630  20.289  -0.103  1.00  0.00    -0.260 OA
ENDBRANCH   8  20
BRANCH   1  28
HETATM   28  C5  UNL     1      13.733  25.655   5.100  1.00  0.00     0.006 C 
BRANCH  28  29
HETATM   29  C4  UNL     1      14.304  26.096   3.775  1.00  0.00     0.000 C 
BRANCH  29  30
HETATM   30  C3  UNL     1      15.717  25.647   3.587  1.00  0.00    -0.000 C 
BRANCH  30  31
HETATM   31  C2  UNL     1      16.628  26.326   4.557  1.00  0.00    -0.005 C 
HETATM   32  C1  UNL     1      18.081  26.273   4.066  1.00  0.00     0.005 C 
ENDBRANCH  30  31
ENDBRANCH  29  30
ENDBRANCH  28  29
ENDBRANCH   1  28
TORSDOF 5
ENDMDL
MODEL 2
REMARK VINA RESULT: -8.813964970      1.081      1.318
REMARK  5 active torsions:
REMARK  status: ('A' for Active; 'I' for Inactive)
REMARK    1  A    between atoms: C2_2  and  C3_3 
REMARK    2  A    between atoms: C3_3  and  C4_4 
REMARK    3  A    between atoms: C4_4  and  C5_5 
REMARK    4  A    between atoms: C5_5  and  C6_6 
REMARK    5  A    between atoms: C13_13  and  C14_14 
ROOT
HETATM    1  C6  UNL     1      14.028  24.155   6.351  1.00  0.00    -0.001 C 
HETATM    2  C7  UNL     1      12.714  23.584   5.959  1.00  0.00     0.003 C 
HETATM    3  C8  UNL     1      12.923  22.239   6.648  1.00  0.00    -0.005 C 
HETATM    4  C9  UNL     1      11.807  21.308   6.597  1.00  0.00     0.006 C 
HETATM    5  C10 UNL     1      11.309  21.204   5.233  1.00  0.00     0.011 C 
HETATM    6  C11 UNL     1      11.959  21.989   4.126  1.00  0.00    -0.029 C 
HETATM    7  C12 UNL     1      13.270  21.289   3.724  1.00  0.00     0.016 C 
HETATM    8  C13 UNL     1      10.938  21.880   3.050  1.00  0.00     0.029 C 
HETATM    9  C20 UNL     1      11.225  23.006   2.051  1.00  0.00     0.013 C 
HETATM   10  C21 UNL     1      10.625  24.188   2.791  1.00  0.00     0.044 C 
HETATM   11  C22 UNL     1      11.521  24.505   3.940  1.00  0.00     0.104 C 
HETATM   12  C23 UNL     1      10.686  25.179   5.005  1.00  0.00     0.052 C 
HETATM   13  F1  UNL     1      12.273  25.539   3.338  1.00  0.00    -0.243 F 
HETATM   14  C24 UNL     1      12.375  23.407   4.492  1.00  0.00     0.038 C 
HETATM   15  C25 UNL     1      13.203  22.626   8.062  1.00  0.00    -0.002 C 
HETATM   16  C26 UNL     1      12.408  23.619   8.782  1.00  0.00     0.006 C 
HETATM   17  C27 UNL     1      13.662  24.490   8.817  1.00  0.00     0.010 C 
HETATM   18  C28 UNL     1      14.284  23.661   7.742  1.00  0.00    -0.036 C 
HETATM   19  C29 UNL     1      15.673  23.109   8.014  1.00  0.00     0.016 C 
ENDROOT
BRANCH   8  20
HETATM   20  C14 UNL     1      10.616  20.693   2.328  1.00  0.00     0.003 C 
HETATM   21  C15 UNL     1       9.239  20.163   2.157  1.00  0.00     0.078 C 
HETATM   22  C16 UNL     1       9.530  18.909   1.313  1.00  0.00     0.067 C 
HETATM   23  C17 UNL     1       8.296  18.351   0.711  1.00  0.00     0.046 C 
HETATM   24  C18 UNL     1      10.392  17.932   2.034  1.00  0.00     0.046 C 
HETATM   25  O1  UNL     1      10.365  19.568   0.334  1.00  0.00    -0.307 OA
HETATM   26  C19 UNL     1      11.289  20.351   1.060  1.00  0.00     0.286 C 
HETATM   27  O2  UNL     1      12.413  20.624   0.609  1.00  0.00    -0.260 OA
ENDBRANCH   8  20
BRANCH   1  28
HETATM   28  C5  UNL     1      14.259  25.598   6.311  1.00  0.00     0.006 C 
BRANCH  28  29
HETATM   29  C4  UNL     1      15.565  25.923   5.629  1.00  0.00     0.000 C 
BRANCH  29  30
HETATM   30  C3  UNL     1      15.956  24.889   4.624  1.00  0.00    -0.000 C 
BRANCH  30  31
HETATM   31  C2  UNL     1      15.556  25.306   3.246  1.00  0.00    -0.005 C 
HETATM   32  C1  UNL     1      15.284  24.079   2.365  1.00  0.00     0.005 C 
ENDBRANCH  30  31
ENDBRANCH  29  30
ENDBRANCH  28  29
ENDBRANCH   1  28
TORSDOF 5
ENDMDL
MODEL 3
REMARK VINA RESULT: -7.697757769      3.648      7.499
REMARK  5 active torsions:
REMARK  status: ('A' for Active; 'I' for Inactive)
REMARK    1  A    between atoms: C2_2  and  C3_3 
REMARK    2  A    between atoms: C3_3  and  C4_4 
REMARK    3  A    between atoms: C4_4  and  C5_5 
REMARK    4  A    between atoms: C5_5  and  C6_6 
REMARK    5  A    between atoms: C13_13  and  C14_14 
ROOT
HETATM    1  C6  UNL     1      11.073  23.497   4.330  1.00  0.00    -0.001 C 
HETATM    2  C7  UNL     1      12.244  24.406   4.430  1.00  0.00     0.003 C 
HETATM    3  C8  UNL     1      12.281  24.764   2.948  1.00  0.00    -0.005 C 
HETATM    4  C9  UNL     1      13.281  25.743   2.547  1.00  0.00     0.006 C 
HETATM    5  C10 UNL     1      14.577  25.385   3.102  1.00  0.00     0.011 C 
HETATM    6  C11 UNL     1      14.727  24.144   3.941  1.00  0.00    -0.029 C 
HETATM    7  C12 UNL     1      14.763  22.918   3.011  1.00  0.00     0.016 C 
HETATM    8  C13 UNL     1      16.052  24.377   4.576  1.00  0.00     0.029 C 
HETATM    9  C20 UNL     1      16.123  23.459   5.801  1.00  0.00     0.013 C 
HETATM   10  C21 UNL     1      15.277  24.248   6.784  1.00  0.00     0.044 C 
HETATM   11  C22 UNL     1      13.855  24.137   6.349  1.00  0.00     0.104 C 
HETATM   12  C23 UNL     1      13.119  25.354   6.859  1.00  0.00     0.052 C 
HETATM   13  F1  UNL     1      13.461  23.074   7.193  1.00  0.00    -0.243 F 
HETATM   14  C24 UNL     1      13.580  23.866   4.903  1.00  0.00     0.038 C 
HETATM   15  C25 UNL     1      10.911  25.301   2.697  1.00  0.00    -0.002 C 
HETATM   16  C26 UNL     1      10.260  26.256   3.591  1.00  0.00     0.006 C 
HETATM   17  C27 UNL     1       9.239  25.163   3.897  1.00  0.00     0.010 C 
HETATM   18  C28 UNL     1      10.155  24.129   3.329  1.00  0.00    -0.036 C 
HETATM   19  C29 UNL     1       9.581  23.207   2.268  1.00  0.00     0.016 C 
ENDROOT
BRANCH   8  20
HETATM   20  C14 UNL     1      17.310  24.352   3.906  1.00  0.00     0.003 C 
HETATM   21  C15 UNL     1      17.662  23.402   2.819  1.00  0.00     0.078 C 
HETATM   22  C16 UNL     1      19.099  23.859   2.510  1.00  0.00     0.067 C 
HETATM   23  C17 UNL     1      19.593  23.295   1.230  1.00  0.00     0.046 C 
HETATM   24  C18 UNL     1      20.007  23.694   3.678  1.00  0.00     0.046 C 
HETATM   25  O1  UNL     1      18.797  25.269   2.404  1.00  0.00    -0.307 OA
HETATM   26  C19 UNL     1      18.014  25.594   3.534  1.00  0.00     0.286 C 
HETATM   27  O2  UNL     1      18.010  26.737   4.020  1.00  0.00    -0.260 OA
ENDBRANCH   8  20
BRANCH   1  28
HETATM   28  C5  UNL     1      10.302  23.136   5.519  1.00  0.00     0.006 C 
BRANCH  28  29
HETATM   29  C4  UNL     1      10.751  21.809   6.079  1.00  0.00     0.000 C 
BRANCH  29  30
HETATM   30  C3  UNL     1      10.520  21.706   7.552  1.00  0.00    -0.000 C 
BRANCH  30  31
HETATM   31  C2  UNL     1       9.295  20.903   7.847  1.00  0.00    -0.005 C 
HETATM   32  C1  UNL     1       8.926  21.001   9.333  1.00  0.00     0.005 C 
ENDBRANCH  30  31
ENDBRANCH  29  30
ENDBRANCH  28  29
ENDBRANCH   1  28
TORSDOF 5
ENDMDL
MODEL 4
REMARK VINA RESULT: -7.299432242      3.481      7.258
REMARK  5 active torsions:
REMARK  status: ('A' for Active; 'I' for Inactive)
REMARK    1  A    between atoms: C2_2  and  C3_3 
REMARK    2  A    between atoms: C3_3  and  C4_4 
REMARK    3  A    between atoms: C4_4  and  C5_5 
REMARK    4  A    between atoms: C5_5  and  C6_6 
REMARK    5  A    between atoms: C13_13  and  C14_14 
ROOT
HETATM    1  C6  UNL     1      11.046  23.751   4.203  1.00  0.00    -0.001 C 
HETATM    2  C7  UNL     1      12.244  24.617   4.350  1.00  0.00     0.003 C 
HETATM    3  C8  UNL     1      12.316  25.023   2.882  1.00  0.00    -0.005 C 
HETATM    4  C9  UNL     1      13.353  25.981   2.529  1.00  0.00     0.006 C 
HETATM    5  C10 UNL     1      14.629  25.562   3.090  1.00  0.00     0.011 C 
HETATM    6  C11 UNL     1      14.725  24.289   3.888  1.00  0.00    -0.029 C 
HETATM    7  C12 UNL     1      14.735  23.094   2.918  1.00  0.00     0.016 C 
HETATM    8  C13 UNL     1      16.046  24.457   4.550  1.00  0.00     0.029 C 
HETATM    9  C20 UNL     1      16.069  23.497   5.744  1.00  0.00     0.013 C 
HETATM   10  C21 UNL     1      15.234  24.281   6.741  1.00  0.00     0.044 C 
HETATM   11  C22 UNL     1      13.815  24.231   6.282  1.00  0.00     0.104 C 
HETATM   12  C23 UNL     1      13.112  25.454   6.823  1.00  0.00     0.052 C 
HETATM   13  F1  UNL     1      13.375  23.155   7.084  1.00  0.00    -0.243 F 
HETATM   14  C24 UNL     1      13.555  24.018   4.824  1.00  0.00     0.038 C 
HETATM   15  C25 UNL     1      10.968  25.612   2.629  1.00  0.00    -0.002 C 
HETATM   16  C26 UNL     1      10.335  26.558   3.546  1.00  0.00     0.006 C 
HETATM   17  C27 UNL     1       9.274  25.490   3.800  1.00  0.00     0.010 C 
HETATM   18  C28 UNL     1      10.165  24.446   3.211  1.00  0.00    -0.036 C 
HETATM   19  C29 UNL     1       9.577  23.579   2.111  1.00  0.00     0.016 C 
ENDROOT
BRANCH   8  20
HETATM   20  C14 UNL     1      17.313  24.413   3.897  1.00  0.00     0.003 C 
HETATM   21  C15 UNL     1      17.667  23.454   2.819  1.00  0.00     0.078 C 
HETATM   22  C16 UNL     1      19.114  23.891   2.528  1.00  0.00     0.067 C 
HETATM   23  C17 UNL     1      19.619  23.315   1.257  1.00  0.00     0.046 C 
HETATM   24  C18 UNL     1      20.004  23.717   3.709  1.00  0.00     0.046 C 
HETATM   25  O1  UNL     1      18.833  25.304   2.413  1.00  0.00    -0.307 OA
HETATM   26  C19 UNL     1      18.040  25.644   3.531  1.00  0.00     0.286 C 
HETATM   27  O2  UNL     1      18.044  26.788   4.013  1.00  0.00    -0.260 OA
ENDBRANCH   8  20
BRANCH   1  28
HETATM   28  C5  UNL     1      10.246  23.377   5.368  1.00  0.00     0.006 C 
BRANCH  28  29
HETATM   29  C4  UNL     1      10.644  22.019   5.892  1.00  0.00     0.000 C 
BRANCH  29  30
HETATM   30  C3  UNL     1      10.824  21.018   4.798  1.00  0.00    -0.000 C 
BRANCH  30  31
HETATM   31  C2  UNL     1      12.273  20.811   4.496  1.00  0.00    -0.005 C 
HETATM   32  C1  UNL     1      12.468  20.385   3.035  1.00  0.00     0.005 C 
ENDBRANCH  30  31
ENDBRANCH  29  30
ENDBRANCH  28  29
ENDBRANCH   1  28
TORSDOF 5
ENDMDL
MODEL 5
REMARK VINA RESULT: -7.140024722      1.766      2.659
REMARK  5 active torsions:
REMARK  status: ('A' for Active; 'I' for Inactive)
REMARK    1  A    between atoms: C2_2  and  C3_3 
REMARK    2  A    between atoms: C3_3  and  C4_4 
REMARK    3  A    between atoms: C4_4  and  C5_5 
REMARK    4  A    between atoms: C5_5  and  C6_6 
REMARK    5  A    between atoms: C13_13  and  C14_14 
ROOT
HETATM    1  C6  UNL     1      14.591  23.730   6.931  1.00  0.00    -0.001 C 
HETATM    2  C7  UNL     1      13.665  23.812   5.773  1.00  0.00     0.003 C 
HETATM    3  C8  UNL     1      12.452  23.255   6.511  1.00  0.00    -0.005 C 
HETATM    4  C9  UNL     1      11.207  23.207   5.760  1.00  0.00     0.006 C 
HETATM    5  C10 UNL     1      11.436  22.601   4.457  1.00  0.00     0.011 C 
HETATM    6  C11 UNL     1      12.810  22.121   4.074  1.00  0.00    -0.029 C 
HETATM    7  C12 UNL     1      13.078  20.775   4.770  1.00  0.00     0.016 C 
HETATM    8  C13 UNL     1      12.661  21.948   2.604  1.00  0.00     0.029 C 
HETATM    9  C20 UNL     1      14.076  21.932   2.015  1.00  0.00     0.013 C 
HETATM   10  C21 UNL     1      14.391  23.418   2.020  1.00  0.00     0.044 C 
HETATM   11  C22 UNL     1      14.609  23.830   3.437  1.00  0.00     0.104 C 
HETATM   12  C23 UNL     1      14.285  25.302   3.545  1.00  0.00     0.052 C 
HETATM   13  F1  UNL     1      16.020  23.749   3.462  1.00  0.00    -0.243 F 
HETATM   14  C24 UNL     1      13.958  23.019   4.514  1.00  0.00     0.038 C 
HETATM   15  C25 UNL     1      12.312  24.180   7.675  1.00  0.00    -0.002 C 
HETATM   16  C26 UNL     1      12.395  25.633   7.543  1.00  0.00     0.006 C 
HETATM   17  C27 UNL     1      13.667  25.564   8.384  1.00  0.00     0.010 C 
HETATM   18  C28 UNL     1      13.772  24.095   8.130  1.00  0.00    -0.036 C 
HETATM   19  C29 UNL     1      13.918  23.195   9.345  1.00  0.00     0.016 C 
ENDROOT
BRANCH   8  20
HETATM   20  C14 UNL     1      11.882  20.942   1.962  1.00  0.00     0.003 C 
HETATM   21  C15 UNL     1      11.935  19.497   2.302  1.00  0.00     0.078 C 
HETATM   22  C16 UNL     1      10.902  18.942   1.304  1.00  0.00     0.067 C 
HETATM   23  C17 UNL     1      10.503  17.553   1.638  1.00  0.00     0.046 C 
HETATM   24  C18 UNL     1      11.304  19.173  -0.111  1.00  0.00     0.046 C 
HETATM   25  O1  UNL     1       9.860  19.897   1.609  1.00  0.00    -0.307 OA
HETATM   26  C19 UNL     1      10.470  21.170   1.598  1.00  0.00     0.286 C 
HETATM   27  O2  UNL     1       9.833  22.199   1.319  1.00  0.00    -0.260 OA
ENDBRANCH   8  20
BRANCH   1  28
HETATM   28  C5  UNL     1      15.833  24.501   6.953  1.00  0.00     0.006 C 
BRANCH  28  29
HETATM   29  C4  UNL     1      15.719  25.744   6.105  1.00  0.00     0.000 C 
BRANCH  29  30
HETATM   30  C3  UNL     1      17.041  26.406   5.885  1.00  0.00    -0.000 C 
BRANCH  30  31
HETATM   31  C2  UNL     1      17.233  26.750   4.444  1.00  0.00    -0.005 C 
HETATM   32  C1  UNL     1      18.389  25.940   3.842  1.00  0.00     0.005 C 
ENDBRANCH  30  31
ENDBRANCH  29  30
ENDBRANCH  28  29
ENDBRANCH   1  28
TORSDOF 5
ENDMDL
