MODEL 1
REMARK VINA RESULT: -5.539014936      0.000      0.000
REMARK  2 active torsions:
REMARK  status: ('A' for Active; 'I' for Inactive)
REMARK    1  A    between atoms: N1_2  and  C3_4 
REMARK    2  A    between atoms: C4_7  and  N3_8 
ROOT
HETATM    1  C3  UNL     1      16.843   8.921  14.576  1.00  0.00     0.162 C 
HETATM    2  N2  UNL     1      16.007   8.836  13.499  1.00  0.00    -0.173 N 
ATOM      3  H2  UNL     1      16.460   8.933  12.590  1.00  0.00     0.186 HD
HETATM    4  C4  UNL     1      14.659   8.641  13.458  1.00  0.00     0.681 C 
HETATM    5  N4  UNL     1      13.862   8.418  14.517  1.00  0.00    -0.141 N 
ATOM      6  H4  UNL     1      12.872   8.339  14.283  1.00  0.00     0.189 HD
HETATM    7  C5  UNL     1      14.129   8.279  15.832  1.00  0.00     0.340 C 
HETATM    8  O1  UNL     1      13.188   8.297  16.640  1.00  0.00    -0.246 OA
HETATM    9  N5  UNL     1      15.372   8.116  16.375  1.00  0.00    -0.291 N 
ATOM     10  H5  UNL     1      15.397   7.807  17.346  1.00  0.00     0.172 HD
HETATM   11  C6  UNL     1      16.587   8.313  15.780  1.00  0.00     0.148 C 
HETATM   12  N6  UNL     1      17.624   7.899  16.373  1.00  0.00    -0.382 N 
ATOM     13  H61 UNL     1      17.434   7.447  17.267  1.00  0.00     0.157 HD
ATOM     14  H62 UNL     1      18.530   8.046  15.929  1.00  0.00     0.157 HD
ENDROOT
BRANCH   1  15
HETATM   15  N1  UNL     1      18.017   9.662  14.472  1.00  0.00    -0.372 N 
HETATM   16  C1  UNL     1      17.851  11.126  14.619  1.00  0.00     0.150 C 
HETATM   17  C2  UNL     1      19.329   9.200  14.251  1.00  0.00     0.150 C 
ENDBRANCH   1  15
BRANCH   4  18
HETATM   18  N3  UNL     1      14.114   8.678  12.287  1.00  0.00    -0.234 N 
ATOM     19  H32 UNL     1      14.245   9.520  11.725  1.00  0.00     0.174 HD
ATOM     20  H31 UNL     1      13.587   7.850  12.010  1.00  0.00     0.174 HD
ENDBRANCH   4  18
TORSDOF 2
ENDMDL
MODEL 2
REMARK VINA RESULT: -5.277987552     11.697     12.658
REMARK  2 active torsions:
REMARK  status: ('A' for Active; 'I' for Inactive)
REMARK    1  A    between atoms: N1_2  and  C3_4 
REMARK    2  A    between atoms: C4_7  and  N3_8 
ROOT
HETATM    1  C3  UNL     1      24.275  -1.245  13.887  1.00  0.00     0.162 C 
HETATM    2  N2  UNL     1      23.180  -2.037  13.682  1.00  0.00    -0.173 N 
ATOM      3  H2  UNL     1      23.256  -2.687  12.900  1.00  0.00     0.186 HD
HETATM    4  C4  UNL     1      22.004  -2.087  14.367  1.00  0.00     0.681 C 
HETATM    5  N4  UNL     1      21.703  -1.380  15.470  1.00  0.00    -0.141 N 
ATOM      6  H4  UNL     1      20.752  -1.526  15.811  1.00  0.00     0.189 HD
HETATM    7  C5  UNL     1      22.425  -0.513  16.209  1.00  0.00     0.340 C 
HETATM    8  O1  UNL     1      21.844   0.177  17.061  1.00  0.00    -0.246 OA
HETATM    9  N5  UNL     1      23.774  -0.318  16.108  1.00  0.00    -0.291 N 
ATOM     10  H5  UNL     1      24.207   0.201  16.872  1.00  0.00     0.172 HD
HETATM   11  C6  UNL     1      24.614  -0.729  15.113  1.00  0.00     0.148 C 
HETATM   12  N6  UNL     1      25.862  -0.646  15.303  1.00  0.00    -0.382 N 
ATOM     13  H61 UNL     1      26.114  -0.262  16.214  1.00  0.00     0.157 HD
ATOM     14  H62 UNL     1      26.489  -0.953  14.561  1.00  0.00     0.157 HD
ENDROOT
BRANCH   1  15
HETATM   15  N1  UNL     1      25.099  -0.928  12.810  1.00  0.00    -0.372 N 
HETATM   16  C1  UNL     1      25.053  -1.886  11.681  1.00  0.00     0.150 C 
HETATM   17  C2  UNL     1      25.957   0.178  12.658  1.00  0.00     0.150 C 
ENDBRANCH   1  15
BRANCH   4  18
HETATM   18  N3  UNL     1      21.107  -2.891  13.899  1.00  0.00    -0.234 N 
ATOM     19  H32 UNL     1      20.756  -2.720  12.956  1.00  0.00     0.174 HD
ATOM     20  H31 UNL     1      20.813  -3.646  14.519  1.00  0.00     0.174 HD
ENDBRANCH   4  18
TORSDOF 2
ENDMDL
MODEL 3
REMARK VINA RESULT: -5.199228069     11.696     13.331
REMARK  2 active torsions:
REMARK  status: ('A' for Active; 'I' for Inactive)
REMARK    1  A    between atoms: N1_2  and  C3_4 
REMARK    2  A    between atoms: C4_7  and  N3_8 
ROOT
HETATM    1  C3  UNL     1      25.071  -1.079  13.892  1.00  0.00     0.162 C 
HETATM    2  N2  UNL     1      24.221  -0.740  14.907  1.00  0.00    -0.173 N 
ATOM      3  H2  UNL     1      23.727  -1.521  15.339  1.00  0.00     0.186 HD
HETATM    4  C4  UNL     1      23.936   0.487  15.429  1.00  0.00     0.681 C 
HETATM    5  N4  UNL     1      24.512   1.648  15.073  1.00  0.00    -0.141 N 
ATOM      6  H4  UNL     1      24.131   2.465  15.551  1.00  0.00     0.189 HD
HETATM    7  C5  UNL     1      25.501   1.933  14.201  1.00  0.00     0.340 C 
HETATM    8  O1  UNL     1      25.703   3.117  13.890  1.00  0.00    -0.246 OA
HETATM    9  N5  UNL     1      26.325   1.017  13.610  1.00  0.00    -0.291 N 
ATOM     10  H5  UNL     1      27.154   1.394  13.152  1.00  0.00     0.172 HD
HETATM   11  C6  UNL     1      26.178  -0.340  13.555  1.00  0.00     0.148 C 
HETATM   12  N6  UNL     1      27.154  -1.038  13.157  1.00  0.00    -0.382 N 
ATOM     13  H61 UNL     1      27.976  -0.490  12.906  1.00  0.00     0.157 HD
ATOM     14  H62 UNL     1      27.044  -2.051  13.116  1.00  0.00     0.157 HD
ENDROOT
BRANCH   1  15
HETATM   15  N1  UNL     1      24.815  -2.225  13.144  1.00  0.00    -0.372 N 
HETATM   16  C1  UNL     1      24.611  -1.997  11.695  1.00  0.00     0.150 C 
HETATM   17  C2  UNL     1      24.733  -3.559  13.585  1.00  0.00     0.150 C 
ENDBRANCH   1  15
BRANCH   4  18
HETATM   18  N3  UNL     1      23.027   0.518  16.346  1.00  0.00    -0.234 N 
ATOM     19  H32 UNL     1      23.289   0.871  17.267  1.00  0.00     0.174 HD
ATOM     20  H31 UNL     1      22.103   0.181  16.075  1.00  0.00     0.174 HD
ENDBRANCH   4  18
TORSDOF 2
ENDMDL
MODEL 4
REMARK VINA RESULT: -5.095734517     10.476     11.978
REMARK  2 active torsions:
REMARK  status: ('A' for Active; 'I' for Inactive)
REMARK    1  A    between atoms: N1_2  and  C3_4 
REMARK    2  A    between atoms: C4_7  and  N3_8 
ROOT
HETATM    1  C3  UNL     1      22.034   0.072  16.140  1.00  0.00     0.162 C 
HETATM    2  N2  UNL     1      23.315   0.547  16.117  1.00  0.00    -0.173 N 
ATOM      3  H2  UNL     1      23.518   1.280  16.796  1.00  0.00     0.186 HD
HETATM    4  C4  UNL     1      24.360   0.187  15.321  1.00  0.00     0.681 C 
HETATM    5  N4  UNL     1      24.353  -0.798  14.406  1.00  0.00    -0.141 N 
ATOM      6  H4  UNL     1      25.223  -0.884  13.880  1.00  0.00     0.189 HD
HETATM    7  C5  UNL     1      23.407  -1.693  14.055  1.00  0.00     0.340 C 
HETATM    8  O1  UNL     1      23.569  -2.362  13.023  1.00  0.00    -0.246 OA
HETATM    9  N5  UNL     1      22.254  -1.940  14.745  1.00  0.00    -0.291 N 
ATOM     10  H5  UNL     1      21.750  -2.786  14.482  1.00  0.00     0.172 HD
HETATM   11  C6  UNL     1      21.691  -1.197  15.744  1.00  0.00     0.148 C 
HETATM   12  N6  UNL     1      20.743  -1.700  16.411  1.00  0.00    -0.382 N 
ATOM     13  H61 UNL     1      20.488  -2.643  16.116  1.00  0.00     0.157 HD
ATOM     14  H62 UNL     1      20.323  -1.146  17.156  1.00  0.00     0.157 HD
ENDROOT
BRANCH   1  15
HETATM   15  N1  UNL     1      21.007   0.904  16.580  1.00  0.00    -0.372 N 
HETATM   16  C1  UNL     1      21.080   1.293  18.007  1.00  0.00     0.150 C 
HETATM   17  C2  UNL     1      19.922   1.419  15.845  1.00  0.00     0.150 C 
ENDBRANCH   1  15
BRANCH   4  18
HETATM   18  N3  UNL     1      25.450   0.864  15.472  1.00  0.00    -0.234 N 
ATOM     19  H32 UNL     1      25.696   1.171  16.414  1.00  0.00     0.174 HD
ATOM     20  H31 UNL     1      25.989   1.043  14.625  1.00  0.00     0.174 HD
ENDBRANCH   4  18
TORSDOF 2
ENDMDL
MODEL 5
REMARK VINA RESULT: -5.050031112     11.702     13.126
REMARK  2 active torsions:
REMARK  status: ('A' for Active; 'I' for Inactive)
REMARK    1  A    between atoms: N1_2  and  C3_4 
REMARK    2  A    between atoms: C4_7  and  N3_8 
ROOT
HETATM    1  C3  UNL     1      26.072   0.836  13.276  1.00  0.00     0.162 C 
HETATM    2  N2  UNL     1      26.656  -0.324  13.699  1.00  0.00    -0.173 N 
ATOM      3  H2  UNL     1      27.484  -0.609  13.177  1.00  0.00     0.186 HD
HETATM    4  C4  UNL     1      26.295  -1.157  14.715  1.00  0.00     0.681 C 
HETATM    5  N4  UNL     1      25.286  -0.956  15.581  1.00  0.00    -0.141 N 
ATOM      6  H4  UNL     1      25.149  -1.718  16.244  1.00  0.00     0.189 HD
HETATM    7  C5  UNL     1      24.422   0.069  15.733  1.00  0.00     0.340 C 
HETATM    8  O1  UNL     1      23.437  -0.084  16.472  1.00  0.00    -0.246 OA
HETATM    9  N5  UNL     1      24.531   1.293  15.136  1.00  0.00    -0.291 N 
ATOM     10  H5  UNL     1      23.933   2.027  15.514  1.00  0.00     0.172 HD
HETATM   11  C6  UNL     1      25.340   1.657  14.098  1.00  0.00     0.148 C 
HETATM   12  N6  UNL     1      25.461   2.887  13.829  1.00  0.00    -0.382 N 
ATOM     13  H61 UNL     1      24.917   3.497  14.439  1.00  0.00     0.157 HD
ATOM     14  H62 UNL     1      26.065   3.159  13.053  1.00  0.00     0.157 HD
ENDROOT
BRANCH   1  15
HETATM   15  N1  UNL     1      26.209   1.222  11.945  1.00  0.00    -0.372 N 
HETATM   16  C1  UNL     1      25.872   0.178  10.950  1.00  0.00     0.150 C 
HETATM   17  C2  UNL     1      26.618   2.468  11.431  1.00  0.00     0.150 C 
ENDBRANCH   1  15
BRANCH   4  18
HETATM   18  N3  UNL     1      26.996  -2.235  14.843  1.00  0.00    -0.234 N 
ATOM     19  H32 UNL     1      27.437  -2.415  15.746  1.00  0.00     0.174 HD
ATOM     20  H31 UNL     1      27.056  -2.833  14.018  1.00  0.00     0.174 HD
ENDBRANCH   4  18
TORSDOF 2
ENDMDL
