MODEL 1
REMARK VINA RESULT: -5.235355891      0.000      0.000
REMARK  2 active torsions:
REMARK  status: ('A' for Active; 'I' for Inactive)
REMARK    1  A    between atoms: C4_4  and  C5_5 
REMARK    2  A    between atoms: N2_8  and  O1_10 
ROOT
HETATM    1  C5  UNL     1      23.994  10.530   9.393  1.00  0.00     0.117 C 
HETATM    2  C6  UNL     1      25.410  10.425   9.198  1.00  0.00     0.115 C 
HETATM    3  N1  UNL     1      26.576  10.362   9.028  1.00  0.00    -0.190 NA
HETATM    4  N2  UNL     1      23.436  11.542   8.767  1.00  0.00    -0.263 N 
ATOM      5  H2  UNL     1      24.027  12.158   8.209  1.00  0.00     0.194 HD
ENDROOT
BRANCH   1   6
HETATM    6  C4  UNL     1      23.225   9.603  10.209  1.00  0.00     0.065 A 
HETATM    7  C2  UNL     1      22.466   8.434   9.629  1.00  0.00    -0.029 A 
HETATM    8  C1  UNL     1      22.494   8.318   8.161  1.00  0.00     0.016 C 
HETATM    9  C3  UNL     1      21.108   8.058  10.239  1.00  0.00     0.016 C 
HETATM   10  C7  UNL     1      23.603   8.240  10.536  1.00  0.00    -0.029 A 
HETATM   11  C8  UNL     1      24.788   7.514   9.989  1.00  0.00     0.016 C 
HETATM   12  C9  UNL     1      23.308   7.814  11.991  1.00  0.00     0.016 C 
ENDBRANCH   1   6
BRANCH   4  13
HETATM   13  O1  UNL     1      22.102  11.801   8.835  1.00  0.00    -0.289 OA
ATOM     14  H1  UNL     1      21.755  12.681   8.916  1.00  0.00     0.244 HD
ENDBRANCH   4  13
TORSDOF 2
ENDMDL
MODEL 2
REMARK VINA RESULT: -4.720752847      2.665      3.972
REMARK  2 active torsions:
REMARK  status: ('A' for Active; 'I' for Inactive)
REMARK    1  A    between atoms: C4_4  and  C5_5 
REMARK    2  A    between atoms: N2_8  and  O1_10 
ROOT
HETATM    1  C5  UNL     1      22.897   8.499  10.074  1.00  0.00     0.117 C 
HETATM    2  C6  UNL     1      22.136   8.463   8.859  1.00  0.00     0.115 C 
HETATM    3  N1  UNL     1      21.490   8.429   7.873  1.00  0.00    -0.190 NA
HETATM    4  N2  UNL     1      22.261   8.028  11.122  1.00  0.00    -0.263 N 
ATOM      5  H2  UNL     1      21.309   7.683  11.003  1.00  0.00     0.194 HD
ENDROOT
BRANCH   1   6
HETATM    6  C4  UNL     1      24.257   9.009  10.154  1.00  0.00     0.065 A 
HETATM    7  C2  UNL     1      25.469   8.110  10.201  1.00  0.00    -0.029 A 
HETATM    8  C1  UNL     1      25.192   6.664  10.225  1.00  0.00     0.016 C 
HETATM    9  C3  UNL     1      26.655   8.513  11.088  1.00  0.00     0.016 C 
HETATM   10  C7  UNL     1      25.229   9.020   9.075  1.00  0.00    -0.029 A 
HETATM   11  C8  UNL     1      25.038   8.397   7.731  1.00  0.00     0.016 C 
HETATM   12  C9  UNL     1      26.083  10.303   8.982  1.00  0.00     0.016 C 
ENDBRANCH   1   6
BRANCH   4  13
HETATM   13  O1  UNL     1      22.824   7.982  12.360  1.00  0.00    -0.289 OA
ATOM     14  H1  UNL     1      22.310   7.875  13.152  1.00  0.00     0.244 HD
ENDBRANCH   4  13
TORSDOF 2
ENDMDL
MODEL 3
REMARK VINA RESULT: -4.583099727      2.661      3.688
REMARK  2 active torsions:
REMARK  status: ('A' for Active; 'I' for Inactive)
REMARK    1  A    between atoms: C4_4  and  C5_5 
REMARK    2  A    between atoms: N2_8  and  O1_10 
ROOT
HETATM    1  C5  UNL     1      23.050   8.056  10.819  1.00  0.00     0.117 C 
HETATM    2  C6  UNL     1      24.333   7.455  11.038  1.00  0.00     0.115 C 
HETATM    3  N1  UNL     1      25.377   6.940  11.226  1.00  0.00    -0.190 NA
HETATM    4  N2  UNL     1      22.043   7.371  11.311  1.00  0.00    -0.263 N 
ATOM      5  H2  UNL     1      22.236   6.494  11.795  1.00  0.00     0.194 HD
ENDROOT
BRANCH   1   6
HETATM    6  C4  UNL     1      22.863   9.316  10.117  1.00  0.00     0.065 A 
HETATM    7  C2  UNL     1      23.626   9.679   8.866  1.00  0.00    -0.029 A 
HETATM    8  C1  UNL     1      24.632   8.699   8.423  1.00  0.00     0.016 C 
HETATM    9  C3  UNL     1      24.072  11.135   8.667  1.00  0.00     0.016 C 
HETATM   10  C7  UNL     1      22.170   9.494   8.853  1.00  0.00    -0.029 A 
HETATM   11  C8  UNL     1      21.636   8.393   7.996  1.00  0.00     0.016 C 
HETATM   12  C9  UNL     1      21.277  10.751   8.772  1.00  0.00     0.016 C 
ENDBRANCH   1   6
BRANCH   4  13
HETATM   13  O1  UNL     1      20.751   7.785  11.200  1.00  0.00    -0.289 OA
ATOM     14  H1  UNL     1      20.380   8.457  11.759  1.00  0.00     0.244 HD
ENDBRANCH   4  13
TORSDOF 2
ENDMDL
MODEL 4
REMARK VINA RESULT: -4.553963102      1.665      2.570
REMARK  2 active torsions:
REMARK  status: ('A' for Active; 'I' for Inactive)
REMARK    1  A    between atoms: C4_4  and  C5_5 
REMARK    2  A    between atoms: N2_8  and  O1_10 
ROOT
HETATM    1  C5  UNL     1      22.816  10.671   9.211  1.00  0.00     0.117 C 
HETATM    2  C6  UNL     1      21.493  10.635   8.661  1.00  0.00     0.115 C 
HETATM    3  N1  UNL     1      20.411  10.622   8.190  1.00  0.00    -0.190 NA
HETATM    4  N2  UNL     1      23.559  11.657   8.764  1.00  0.00    -0.263 N 
ATOM      5  H2  UNL     1      23.159  12.303   8.083  1.00  0.00     0.194 HD
ENDROOT
BRANCH   1   6
HETATM    6  C4  UNL     1      23.307   9.706  10.183  1.00  0.00     0.065 A 
HETATM    7  C2  UNL     1      22.805   8.285  10.255  1.00  0.00    -0.029 A 
HETATM    8  C1  UNL     1      21.727   7.938   9.312  1.00  0.00     0.016 C 
HETATM    9  C3  UNL     1      22.637   7.627  11.632  1.00  0.00     0.016 C 
HETATM   10  C7  UNL     1      24.196   8.593   9.905  1.00  0.00    -0.029 A 
HETATM   11  C8  UNL     1      24.662   8.174   8.550  1.00  0.00     0.016 C 
HETATM   12  C9  UNL     1      25.286   8.348  10.973  1.00  0.00     0.016 C 
ENDBRANCH   1   6
BRANCH   4  13
HETATM   13  O1  UNL     1      24.842  11.852   9.173  1.00  0.00    -0.289 OA
ATOM     14  H1  UNL     1      25.586  11.740   8.594  1.00  0.00     0.244 HD
ENDBRANCH   4  13
TORSDOF 2
ENDMDL
MODEL 5
REMARK VINA RESULT: -4.439783368      2.332      3.624
REMARK  2 active torsions:
REMARK  status: ('A' for Active; 'I' for Inactive)
REMARK    1  A    between atoms: C4_4  and  C5_5 
REMARK    2  A    between atoms: N2_8  and  O1_10 
ROOT
HETATM    1  C5  UNL     1      22.959   8.383   9.672  1.00  0.00     0.117 C 
HETATM    2  C6  UNL     1      22.996   8.137  11.083  1.00  0.00     0.115 C 
HETATM    3  N1  UNL     1      23.002   7.933  12.246  1.00  0.00    -0.190 NA
HETATM    4  N2  UNL     1      21.768   8.689   9.209  1.00  0.00    -0.263 N 
ATOM      5  H2  UNL     1      20.984   8.728   9.861  1.00  0.00     0.194 HD
ENDROOT
BRANCH   1   6
HETATM    6  C4  UNL     1      24.131   8.308   8.813  1.00  0.00     0.065 A 
HETATM    7  C2  UNL     1      25.038   9.487   8.557  1.00  0.00    -0.029 A 
HETATM    8  C1  UNL     1      24.632  10.755   9.185  1.00  0.00     0.016 C 
HETATM    9  C3  UNL     1      25.635   9.670   7.155  1.00  0.00     0.016 C 
HETATM   10  C7  UNL     1      25.513   8.286   9.256  1.00  0.00    -0.029 A 
HETATM   11  C8  UNL     1      25.974   8.463  10.666  1.00  0.00     0.016 C 
HETATM   12  C9  UNL     1      26.429   7.310   8.485  1.00  0.00     0.016 C 
ENDBRANCH   1   6
BRANCH   4  13
HETATM   13  O1  UNL     1      21.539   8.956   7.895  1.00  0.00    -0.289 OA
ATOM     14  H1  UNL     1      20.686   8.848   7.492  1.00  0.00     0.244 HD
ENDBRANCH   4  13
TORSDOF 2
ENDMDL
