MODEL 1
REMARK VINA RESULT: -8.908186959      0.000      0.000
REMARK  11 active torsions:
REMARK  status: ('A' for Active; 'I' for Inactive)
REMARK    1  A    between atoms: C2_2  and  C4_4 
REMARK    2  A    between atoms: C2_2  and  C36_54 
REMARK    3  A    between atoms: C4_4  and  C5_5 
REMARK    4  A    between atoms: C6_9  and  C7_10 
REMARK    5  A    between atoms: C7_10  and  C8_11 
REMARK    6  A    between atoms: C8_11  and  C9_12 
REMARK    7  A    between atoms: C9_12  and  C10_13 
REMARK    8  A    between atoms: C10_13  and  N2_14 
REMARK    9  A    between atoms: C20_33  and  N5_34 
REMARK   10  A    between atoms: C35_51  and  O3_52 
REMARK   11  A    between atoms: C36_54  and  N7_55 
ROOT
HETATM    1  C5  UNL     1     -11.030 -25.173 -31.257  1.00  0.00     0.261 C 
HETATM    2  N1  UNL     1     -11.108 -24.771 -32.677  1.00  0.00    -0.051 N 
ATOM      3  H11 UNL     1     -11.604 -25.478 -33.220  1.00  0.00     0.279 HD
ATOM      4  H12 UNL     1     -10.188 -24.828 -33.114  1.00  0.00     0.279 HD
HETATM    5  C6  UNL     1     -11.701 -23.443 -32.901  1.00  0.00     0.277 C 
HETATM    6  C11 UNL     1     -13.106 -23.390 -32.523  1.00  0.00     0.248 C 
HETATM    7  O1  UNL     1     -13.392 -23.184 -31.291  1.00  0.00    -0.271 OA
HETATM    8  N3  UNL     1     -14.187 -23.559 -33.464  1.00  0.00    -0.359 N 
ATOM      9  H3  UNL     1     -15.019 -24.055 -33.145  1.00  0.00     0.162 HD
HETATM   10  C12 UNL     1     -14.174 -23.081 -34.809  1.00  0.00     0.122 C 
HETATM   11  C13 UNL     1     -15.231 -23.746 -35.660  1.00  0.00     0.020 C 
HETATM   12  C14 UNL     1     -14.857 -25.129 -36.101  1.00  0.00     0.002 C 
HETATM   13  C15 UNL     1     -15.296 -25.407 -37.530  1.00  0.00     0.002 C 
HETATM   14  C16 UNL     1     -14.488 -26.549 -38.056  1.00  0.00     0.027 C 
HETATM   15  C17 UNL     1     -13.145 -26.014 -38.516  1.00  0.00     0.232 C 
HETATM   16  N4  UNL     1     -12.188 -27.105 -38.702  1.00  0.00    -0.075 N 
ATOM     17  H41 UNL     1     -11.720 -27.050 -39.607  1.00  0.00     0.277 HD
ATOM     18  H42 UNL     1     -12.655 -28.004 -38.828  1.00  0.00     0.277 HD
HETATM   19  C18 UNL     1     -11.237 -27.138 -37.601  1.00  0.00     0.234 C 
HETATM   20  C19 UNL     1     -11.240 -28.532 -37.015  1.00  0.00     0.061 C 
HETATM   21  C20 UNL     1      -9.870 -28.878 -36.427  1.00  0.00     0.192 C 
HETATM   22  C27 UNL     1     -10.084 -29.325 -35.024  1.00  0.00     0.041 C 
HETATM   23  C28 UNL     1     -10.391 -28.217 -34.084  1.00  0.00     0.087 C 
HETATM   24  C29 UNL     1      -9.238 -27.376 -33.675  1.00  0.00     0.172 C 
HETATM   25  O2  UNL     1      -8.889 -26.594 -34.591  1.00  0.00    -0.291 OA
HETATM   26  C30 UNL     1      -8.515 -27.347 -32.444  1.00  0.00     0.059 C 
HETATM   27  C31 UNL     1      -8.430 -28.779 -31.848  1.00  0.00     0.061 C 
HETATM   28  C32 UNL     1      -7.388 -28.838 -30.786  1.00  0.00     0.008 C 
HETATM   29  C33 UNL     1      -7.280 -27.656 -29.897  1.00  0.00     0.021 C 
HETATM   30  C34 UNL     1      -7.363 -26.372 -30.620  1.00  0.00     0.131 C 
HETATM   31  N6  UNL     1      -8.654 -26.365 -31.415  1.00  0.00    -0.330 N 
HETATM   32  C35 UNL     1      -9.593 -25.459 -30.996  1.00  0.00     0.149 C 
ENDROOT
BRANCH   1  33
HETATM   33  C4  UNL     1     -12.027 -26.183 -30.922  1.00  0.00     0.052 C 
BRANCH  33  34
HETATM   34  C2  UNL     1     -12.560 -26.400 -29.546  1.00  0.00    -0.021 C 
HETATM   35  C1  UNL     1     -12.544 -25.136 -28.745  1.00  0.00     0.016 C 
HETATM   36  C3  UNL     1     -14.049 -26.788 -29.604  1.00  0.00     0.016 C 
BRANCH  34  37
HETATM   37  C36 UNL     1     -11.696 -27.474 -28.966  1.00  0.00     0.244 C 
BRANCH  37  38
HETATM   38  N7  UNL     1     -11.254 -27.488 -27.663  1.00  0.00    -0.078 N 
HETATM   39  C37 UNL     1     -10.053 -26.641 -27.429  1.00  0.00     0.271 C 
HETATM   40  C38 UNL     1     -10.677 -28.855 -27.461  1.00  0.00     0.271 C 
HETATM   41  C39 UNL     1     -12.158 -27.353 -26.572  1.00  0.00     0.271 C 
ENDBRANCH  37  38
ENDBRANCH  34  37
ENDBRANCH  33  34
ENDBRANCH   1  33
BRANCH  32  42
HETATM   42  O3  UNL     1      -9.119 -24.583 -30.126  1.00  0.00    -0.348 OA
ATOM     43  H3  UNL     1      -8.992 -25.008 -29.286  1.00  0.00     0.219 HD
ENDBRANCH  32  42
BRANCH   5  44
HETATM   44  C7  UNL     1     -10.800 -22.360 -32.476  1.00  0.00     0.043 C 
BRANCH  44  45
HETATM   45  C8  UNL     1     -10.859 -21.059 -33.156  1.00  0.00     0.004 C 
BRANCH  45  46
HETATM   46  C9  UNL     1     -10.803 -20.964 -34.638  1.00  0.00     0.027 C 
BRANCH  46  47
HETATM   47  C10 UNL     1      -9.537 -21.722 -35.156  1.00  0.00     0.229 C 
BRANCH  47  48
HETATM   48  N2  UNL     1      -8.463 -20.768 -35.110  1.00  0.00    -0.079 N 
ATOM     49  H23 UNL     1      -8.761 -19.810 -35.294  1.00  0.00     0.274 HD
ATOM     50  H22 UNL     1      -8.103 -20.606 -34.170  1.00  0.00     0.274 HD
ATOM     51  H21 UNL     1      -7.760 -21.110 -35.764  1.00  0.00     0.274 HD
ENDBRANCH  47  48
ENDBRANCH  46  47
ENDBRANCH  45  46
ENDBRANCH  44  45
ENDBRANCH   5  44
BRANCH  21  52
HETATM   52  N5  UNL     1      -9.249 -29.937 -37.243  1.00  0.00    -0.067 N 
HETATM   53  C21 UNL     1      -8.661 -29.371 -38.459  1.00  0.00     0.273 C 
HETATM   54  C22 UNL     1      -8.154 -30.432 -36.447  1.00  0.00     0.237 C 
HETATM   55  C23 UNL     1      -7.511 -31.670 -36.973  1.00  0.00     0.028 C 
HETATM   56  C24 UNL     1      -8.600 -32.751 -36.983  1.00  0.00     0.003 C 
HETATM   57  C25 UNL     1      -9.660 -32.276 -37.917  1.00  0.00     0.028 C 
HETATM   58  C26 UNL     1     -10.194 -30.917 -37.642  1.00  0.00     0.237 C 
ENDBRANCH  21  52
TORSDOF 11
ENDMDL
MODEL 2
REMARK VINA RESULT: -8.796324691      0.637      1.233
REMARK  11 active torsions:
REMARK  status: ('A' for Active; 'I' for Inactive)
REMARK    1  A    between atoms: C2_2  and  C4_4 
REMARK    2  A    between atoms: C2_2  and  C36_54 
REMARK    3  A    between atoms: C4_4  and  C5_5 
REMARK    4  A    between atoms: C6_9  and  C7_10 
REMARK    5  A    between atoms: C7_10  and  C8_11 
REMARK    6  A    between atoms: C8_11  and  C9_12 
REMARK    7  A    between atoms: C9_12  and  C10_13 
REMARK    8  A    between atoms: C10_13  and  N2_14 
REMARK    9  A    between atoms: C20_33  and  N5_34 
REMARK   10  A    between atoms: C35_51  and  O3_52 
REMARK   11  A    between atoms: C36_54  and  N7_55 
ROOT
HETATM    1  C5  UNL     1     -11.034 -25.173 -31.259  1.00  0.00     0.261 C 
HETATM    2  N1  UNL     1     -11.109 -24.769 -32.679  1.00  0.00    -0.051 N 
ATOM      3  H11 UNL     1     -11.605 -25.474 -33.223  1.00  0.00     0.279 HD
ATOM      4  H12 UNL     1     -10.188 -24.826 -33.114  1.00  0.00     0.279 HD
HETATM    5  C6  UNL     1     -11.700 -23.439 -32.902  1.00  0.00     0.277 C 
HETATM    6  C11 UNL     1     -13.106 -23.386 -32.527  1.00  0.00     0.248 C 
HETATM    7  O1  UNL     1     -13.395 -23.181 -31.295  1.00  0.00    -0.271 OA
HETATM    8  N3  UNL     1     -14.185 -23.552 -33.470  1.00  0.00    -0.359 N 
ATOM      9  H3  UNL     1     -15.019 -24.048 -33.153  1.00  0.00     0.162 HD
HETATM   10  C12 UNL     1     -14.170 -23.072 -34.814  1.00  0.00     0.122 C 
HETATM   11  C13 UNL     1     -15.225 -23.735 -35.668  1.00  0.00     0.020 C 
HETATM   12  C14 UNL     1     -14.852 -25.117 -36.110  1.00  0.00     0.002 C 
HETATM   13  C15 UNL     1     -15.289 -25.392 -37.540  1.00  0.00     0.002 C 
HETATM   14  C16 UNL     1     -14.481 -26.535 -38.067  1.00  0.00     0.027 C 
HETATM   15  C17 UNL     1     -13.137 -26.000 -38.523  1.00  0.00     0.232 C 
HETATM   16  N4  UNL     1     -12.180 -27.092 -38.709  1.00  0.00    -0.075 N 
ATOM     17  H41 UNL     1     -11.710 -27.036 -39.613  1.00  0.00     0.277 HD
ATOM     18  H42 UNL     1     -12.648 -27.990 -38.837  1.00  0.00     0.277 HD
HETATM   19  C18 UNL     1     -11.231 -27.128 -37.607  1.00  0.00     0.234 C 
HETATM   20  C19 UNL     1     -11.237 -28.523 -37.023  1.00  0.00     0.061 C 
HETATM   21  C20 UNL     1      -9.868 -28.871 -36.433  1.00  0.00     0.192 C 
HETATM   22  C27 UNL     1     -10.085 -29.320 -35.030  1.00  0.00     0.041 C 
HETATM   23  C28 UNL     1     -10.393 -28.213 -34.089  1.00  0.00     0.087 C 
HETATM   24  C29 UNL     1      -9.240 -27.374 -33.677  1.00  0.00     0.172 C 
HETATM   25  O2  UNL     1      -8.888 -26.591 -34.591  1.00  0.00    -0.291 OA
HETATM   26  C30 UNL     1      -8.520 -27.347 -32.445  1.00  0.00     0.059 C 
HETATM   27  C31 UNL     1      -8.437 -28.780 -31.850  1.00  0.00     0.061 C 
HETATM   28  C32 UNL     1      -7.397 -28.842 -30.787  1.00  0.00     0.008 C 
HETATM   29  C33 UNL     1      -7.289 -27.661 -29.895  1.00  0.00     0.021 C 
HETATM   30  C34 UNL     1      -7.370 -26.376 -30.617  1.00  0.00     0.131 C 
HETATM   31  N6  UNL     1      -8.659 -26.367 -31.415  1.00  0.00    -0.330 N 
HETATM   32  C35 UNL     1      -9.598 -25.460 -30.996  1.00  0.00     0.149 C 
ENDROOT
BRANCH   1  33
HETATM   33  C4  UNL     1     -12.033 -26.182 -30.928  1.00  0.00     0.052 C 
BRANCH  33  34
HETATM   34  C2  UNL     1     -12.617 -26.358 -29.566  1.00  0.00    -0.021 C 
HETATM   35  C1  UNL     1     -14.046 -26.799 -29.636  1.00  0.00     0.016 C 
HETATM   36  C3  UNL     1     -11.906 -27.503 -28.822  1.00  0.00     0.016 C 
BRANCH  34  37
HETATM   37  C36 UNL     1     -12.445 -25.030 -28.902  1.00  0.00     0.244 C 
BRANCH  37  38
HETATM   38  N7  UNL     1     -11.984 -24.865 -27.616  1.00  0.00    -0.078 N 
HETATM   39  C37 UNL     1     -13.020 -25.100 -26.573  1.00  0.00     0.271 C 
HETATM   40  C38 UNL     1     -11.762 -23.392 -27.465  1.00  0.00     0.271 C 
HETATM   41  C39 UNL     1     -10.743 -25.424 -27.196  1.00  0.00     0.271 C 
ENDBRANCH  37  38
ENDBRANCH  34  37
ENDBRANCH  33  34
ENDBRANCH   1  33
BRANCH  32  42
HETATM   42  O3  UNL     1      -9.125 -24.587 -30.123  1.00  0.00    -0.348 OA
ATOM     43  H3  UNL     1      -8.615 -25.041 -29.463  1.00  0.00     0.219 HD
ENDBRANCH  32  42
BRANCH   5  44
HETATM   44  C7  UNL     1     -10.799 -22.358 -32.474  1.00  0.00     0.043 C 
BRANCH  44  45
HETATM   45  C8  UNL     1     -10.860 -21.054 -33.148  1.00  0.00     0.004 C 
BRANCH  45  46
HETATM   46  C9  UNL     1     -10.796 -20.952 -34.628  1.00  0.00     0.027 C 
BRANCH  46  47
HETATM   47  C10 UNL     1      -9.548 -21.739 -35.147  1.00  0.00     0.229 C 
BRANCH  47  48
HETATM   48  N2  UNL     1      -8.455 -20.808 -35.114  1.00  0.00    -0.079 N 
ATOM     49  H23 UNL     1      -8.116 -20.545 -36.039  1.00  0.00     0.274 HD
ATOM     50  H22 UNL     1      -8.727 -19.871 -34.813  1.00  0.00     0.274 HD
ATOM     51  H21 UNL     1      -7.743 -21.236 -34.524  1.00  0.00     0.274 HD
ENDBRANCH  47  48
ENDBRANCH  46  47
ENDBRANCH  45  46
ENDBRANCH  44  45
ENDBRANCH   5  44
BRANCH  21  52
HETATM   52  N5  UNL     1      -9.246 -29.930 -37.249  1.00  0.00    -0.067 N 
HETATM   53  C21 UNL     1      -8.669 -29.364 -38.470  1.00  0.00     0.273 C 
HETATM   54  C22 UNL     1      -8.144 -30.416 -36.458  1.00  0.00     0.237 C 
HETATM   55  C23 UNL     1      -7.499 -31.653 -36.984  1.00  0.00     0.028 C 
HETATM   56  C24 UNL     1      -8.582 -32.739 -36.984  1.00  0.00     0.003 C 
HETATM   57  C25 UNL     1      -9.650 -32.272 -37.914  1.00  0.00     0.028 C 
HETATM   58  C26 UNL     1     -10.189 -30.916 -37.639  1.00  0.00     0.237 C 
ENDBRANCH  21  52
TORSDOF 11
ENDMDL
MODEL 3
REMARK VINA RESULT: -8.721847962      0.769      1.396
REMARK  11 active torsions:
REMARK  status: ('A' for Active; 'I' for Inactive)
REMARK    1  A    between atoms: C2_2  and  C4_4 
REMARK    2  A    between atoms: C2_2  and  C36_54 
REMARK    3  A    between atoms: C4_4  and  C5_5 
REMARK    4  A    between atoms: C6_9  and  C7_10 
REMARK    5  A    between atoms: C7_10  and  C8_11 
REMARK    6  A    between atoms: C8_11  and  C9_12 
REMARK    7  A    between atoms: C9_12  and  C10_13 
REMARK    8  A    between atoms: C10_13  and  N2_14 
REMARK    9  A    between atoms: C20_33  and  N5_34 
REMARK   10  A    between atoms: C35_51  and  O3_52 
REMARK   11  A    between atoms: C36_54  and  N7_55 
ROOT
HETATM    1  C5  UNL     1     -11.016 -25.178 -31.200  1.00  0.00     0.261 C 
HETATM    2  N1  UNL     1     -11.105 -24.771 -32.619  1.00  0.00    -0.051 N 
ATOM      3  H11 UNL     1     -11.603 -25.478 -33.160  1.00  0.00     0.279 HD
ATOM      4  H12 UNL     1     -10.188 -24.825 -33.062  1.00  0.00     0.279 HD
HETATM    5  C6  UNL     1     -11.702 -23.444 -32.835  1.00  0.00     0.277 C 
HETATM    6  C11 UNL     1     -13.105 -23.396 -32.447  1.00  0.00     0.248 C 
HETATM    7  O1  UNL     1     -13.384 -23.194 -31.213  1.00  0.00    -0.271 OA
HETATM    8  N3  UNL     1     -14.192 -23.564 -33.381  1.00  0.00    -0.359 N 
ATOM      9  H3  UNL     1     -15.021 -24.063 -33.058  1.00  0.00     0.162 HD
HETATM   10  C12 UNL     1     -14.190 -23.082 -34.725  1.00  0.00     0.122 C 
HETATM   11  C13 UNL     1     -15.250 -23.748 -35.571  1.00  0.00     0.020 C 
HETATM   12  C14 UNL     1     -14.877 -25.128 -36.018  1.00  0.00     0.002 C 
HETATM   13  C15 UNL     1     -15.325 -25.402 -37.445  1.00  0.00     0.002 C 
HETATM   14  C16 UNL     1     -14.517 -26.542 -37.980  1.00  0.00     0.027 C 
HETATM   15  C17 UNL     1     -13.179 -26.002 -38.447  1.00  0.00     0.232 C 
HETATM   16  N4  UNL     1     -12.220 -27.090 -38.643  1.00  0.00    -0.075 N 
ATOM     17  H41 UNL     1     -11.758 -27.031 -39.551  1.00  0.00     0.277 HD
ATOM     18  H42 UNL     1     -12.686 -27.989 -38.768  1.00  0.00     0.277 HD
HETATM   19  C18 UNL     1     -11.262 -27.124 -37.549  1.00  0.00     0.234 C 
HETATM   20  C19 UNL     1     -11.258 -28.519 -36.967  1.00  0.00     0.061 C 
HETATM   21  C20 UNL     1      -9.882 -28.863 -36.390  1.00  0.00     0.192 C 
HETATM   22  C27 UNL     1     -10.086 -29.316 -34.986  1.00  0.00     0.041 C 
HETATM   23  C28 UNL     1     -10.389 -28.211 -34.041  1.00  0.00     0.087 C 
HETATM   24  C29 UNL     1      -9.235 -27.369 -33.637  1.00  0.00     0.172 C 
HETATM   25  O2  UNL     1      -8.895 -26.583 -34.553  1.00  0.00    -0.291 OA
HETATM   26  C30 UNL     1      -8.504 -27.341 -32.412  1.00  0.00     0.059 C 
HETATM   27  C31 UNL     1      -8.411 -28.775 -31.820  1.00  0.00     0.061 C 
HETATM   28  C32 UNL     1      -7.363 -28.834 -30.765  1.00  0.00     0.008 C 
HETATM   29  C33 UNL     1      -7.251 -27.655 -29.873  1.00  0.00     0.021 C 
HETATM   30  C34 UNL     1      -7.342 -26.369 -30.592  1.00  0.00     0.131 C 
HETATM   31  N6  UNL     1      -8.639 -26.363 -31.378  1.00  0.00    -0.330 N 
HETATM   32  C35 UNL     1      -9.577 -25.460 -30.950  1.00  0.00     0.149 C 
ENDROOT
BRANCH   1  33
HETATM   33  C4  UNL     1     -12.008 -26.190 -30.862  1.00  0.00     0.052 C 
BRANCH  33  34
HETATM   34  C2  UNL     1     -12.447 -26.491 -29.468  1.00  0.00    -0.021 C 
HETATM   35  C1  UNL     1     -11.535 -27.475 -28.805  1.00  0.00     0.016 C 
HETATM   36  C3  UNL     1     -12.342 -25.231 -28.590  1.00  0.00     0.016 C 
BRANCH  34  37
HETATM   37  C36 UNL     1     -13.849 -26.993 -29.609  1.00  0.00     0.244 C 
BRANCH  37  38
HETATM   38  N7  UNL     1     -14.576 -27.549 -28.581  1.00  0.00    -0.078 N 
HETATM   39  C37 UNL     1     -14.441 -29.028 -28.484  1.00  0.00     0.271 C 
HETATM   40  C38 UNL     1     -16.007 -27.424 -29.003  1.00  0.00     0.271 C 
HETATM   41  C39 UNL     1     -14.571 -26.978 -27.277  1.00  0.00     0.271 C 
ENDBRANCH  37  38
ENDBRANCH  34  37
ENDBRANCH  33  34
ENDBRANCH   1  33
BRANCH  32  42
HETATM   42  O3  UNL     1      -9.099 -24.586 -30.080  1.00  0.00    -0.348 OA
ATOM     43  H3  UNL     1      -9.318 -24.863 -29.199  1.00  0.00     0.219 HD
ENDBRANCH  32  42
BRANCH   5  44
HETATM   44  C7  UNL     1     -10.801 -22.360 -32.413  1.00  0.00     0.043 C 
BRANCH  44  45
HETATM   45  C8  UNL     1     -10.854 -21.064 -33.102  1.00  0.00     0.004 C 
BRANCH  45  46
HETATM   46  C9  UNL     1     -10.837 -20.983 -34.586  1.00  0.00     0.027 C 
BRANCH  46  47
HETATM   47  C10 UNL     1      -9.560 -21.703 -35.128  1.00  0.00     0.229 C 
BRANCH  47  48
HETATM   48  N2  UNL     1      -8.505 -20.730 -35.065  1.00  0.00    -0.079 N 
ATOM     49  H23 UNL     1      -8.709 -19.873 -35.579  1.00  0.00     0.274 HD
ATOM     50  H22 UNL     1      -8.402 -20.300 -34.146  1.00  0.00     0.274 HD
ATOM     51  H21 UNL     1      -7.665 -21.210 -35.388  1.00  0.00     0.274 HD
ENDBRANCH  47  48
ENDBRANCH  46  47
ENDBRANCH  45  46
ENDBRANCH  44  45
ENDBRANCH   5  44
BRANCH  21  52
HETATM   52  N5  UNL     1      -9.264 -29.919 -37.212  1.00  0.00    -0.067 N 
HETATM   53  C21 UNL     1      -8.688 -29.348 -38.431  1.00  0.00     0.273 C 
HETATM   54  C22 UNL     1      -8.162 -30.412 -36.426  1.00  0.00     0.237 C 
HETATM   55  C23 UNL     1      -7.520 -31.647 -36.961  1.00  0.00     0.028 C 
HETATM   56  C24 UNL     1      -8.605 -32.732 -36.965  1.00  0.00     0.003 C 
HETATM   57  C25 UNL     1      -9.674 -32.257 -37.889  1.00  0.00     0.028 C 
HETATM   58  C26 UNL     1     -10.210 -30.901 -37.607  1.00  0.00     0.237 C 
ENDBRANCH  21  52
TORSDOF 11
ENDMDL
MODEL 4
REMARK VINA RESULT: -8.524220826      1.013      1.388
REMARK  11 active torsions:
REMARK  status: ('A' for Active; 'I' for Inactive)
REMARK    1  A    between atoms: C2_2  and  C4_4 
REMARK    2  A    between atoms: C2_2  and  C36_54 
REMARK    3  A    between atoms: C4_4  and  C5_5 
REMARK    4  A    between atoms: C6_9  and  C7_10 
REMARK    5  A    between atoms: C7_10  and  C8_11 
REMARK    6  A    between atoms: C8_11  and  C9_12 
REMARK    7  A    between atoms: C9_12  and  C10_13 
REMARK    8  A    between atoms: C10_13  and  N2_14 
REMARK    9  A    between atoms: C20_33  and  N5_34 
REMARK   10  A    between atoms: C35_51  and  O3_52 
REMARK   11  A    between atoms: C36_54  and  N7_55 
ROOT
HETATM    1  C5  UNL     1     -10.990 -25.312 -31.111  1.00  0.00     0.261 C 
HETATM    2  N1  UNL     1     -11.055 -24.871 -32.521  1.00  0.00    -0.051 N 
ATOM      3  H11 UNL     1     -11.555 -25.558 -33.085  1.00  0.00     0.279 HD
ATOM      4  H12 UNL     1     -10.133 -24.926 -32.954  1.00  0.00     0.279 HD
HETATM    5  C6  UNL     1     -11.633 -23.531 -32.713  1.00  0.00     0.277 C 
HETATM    6  C11 UNL     1     -13.041 -23.475 -32.343  1.00  0.00     0.248 C 
HETATM    7  O1  UNL     1     -13.333 -23.298 -31.107  1.00  0.00    -0.271 OA
HETATM    8  N3  UNL     1     -14.117 -23.608 -33.294  1.00  0.00    -0.359 N 
ATOM      9  H3  UNL     1     -14.956 -24.103 -32.994  1.00  0.00     0.162 HD
HETATM   10  C12 UNL     1     -14.091 -23.094 -34.626  1.00  0.00     0.122 C 
HETATM   11  C13 UNL     1     -15.149 -23.726 -35.501  1.00  0.00     0.020 C 
HETATM   12  C14 UNL     1     -14.786 -25.100 -35.976  1.00  0.00     0.002 C 
HETATM   13  C15 UNL     1     -15.219 -25.335 -37.414  1.00  0.00     0.002 C 
HETATM   14  C16 UNL     1     -14.419 -26.472 -37.966  1.00  0.00     0.027 C 
HETATM   15  C17 UNL     1     -13.068 -25.938 -38.403  1.00  0.00     0.232 C 
HETATM   16  N4  UNL     1     -12.120 -27.034 -38.613  1.00  0.00    -0.075 N 
ATOM     17  H41 UNL     1     -11.646 -26.959 -39.513  1.00  0.00     0.277 HD
ATOM     18  H42 UNL     1     -12.596 -27.924 -38.765  1.00  0.00     0.277 HD
HETATM   19  C18 UNL     1     -11.176 -27.105 -37.507  1.00  0.00     0.234 C 
HETATM   20  C19 UNL     1     -11.198 -28.514 -36.958  1.00  0.00     0.061 C 
HETATM   21  C20 UNL     1      -9.834 -28.889 -36.372  1.00  0.00     0.192 C 
HETATM   22  C27 UNL     1     -10.062 -29.372 -34.982  1.00  0.00     0.041 C 
HETATM   23  C28 UNL     1     -10.364 -28.286 -34.014  1.00  0.00     0.087 C 
HETATM   24  C29 UNL     1      -9.205 -27.468 -33.576  1.00  0.00     0.172 C 
HETATM   25  O2  UNL     1      -8.843 -26.666 -34.469  1.00  0.00    -0.291 OA
HETATM   26  C30 UNL     1      -8.490 -27.478 -32.341  1.00  0.00     0.059 C 
HETATM   27  C31 UNL     1      -8.423 -28.926 -31.782  1.00  0.00     0.061 C 
HETATM   28  C32 UNL     1      -7.389 -29.024 -30.716  1.00  0.00     0.008 C 
HETATM   29  C33 UNL     1      -7.274 -27.868 -29.795  1.00  0.00     0.021 C 
HETATM   30  C34 UNL     1      -7.340 -26.564 -30.484  1.00  0.00     0.131 C 
HETATM   31  N6  UNL     1      -8.626 -26.523 -31.287  1.00  0.00    -0.330 N 
HETATM   32  C35 UNL     1      -9.558 -25.619 -30.850  1.00  0.00     0.149 C 
ENDROOT
BRANCH   1  33
HETATM   33  C4  UNL     1     -11.999 -26.319 -30.810  1.00  0.00     0.052 C 
BRANCH  33  34
HETATM   34  C2  UNL     1     -12.590 -26.526 -29.455  1.00  0.00    -0.021 C 
HETATM   35  C1  UNL     1     -12.575 -25.263 -28.652  1.00  0.00     0.016 C 
HETATM   36  C3  UNL     1     -14.084 -26.880 -29.571  1.00  0.00     0.016 C 
BRANCH  34  37
HETATM   37  C36 UNL     1     -11.773 -27.619 -28.845  1.00  0.00     0.244 C 
BRANCH  37  38
HETATM   38  N7  UNL     1     -11.340 -27.621 -27.539  1.00  0.00    -0.078 N 
HETATM   39  C37 UNL     1     -10.001 -26.998 -27.351  1.00  0.00     0.271 C 
HETATM   40  C38 UNL     1     -11.030 -29.053 -27.232  1.00  0.00     0.271 C 
HETATM   41  C39 UNL     1     -12.202 -27.240 -26.471  1.00  0.00     0.271 C 
ENDBRANCH  37  38
ENDBRANCH  34  37
ENDBRANCH  33  34
ENDBRANCH   1  33
BRANCH  32  42
HETATM   42  O3  UNL     1      -9.081 -24.771 -29.953  1.00  0.00    -0.348 OA
ATOM     43  H3  UNL     1      -8.163 -24.606 -30.130  1.00  0.00     0.219 HD
ENDBRANCH  32  42
BRANCH   5  44
HETATM   44  C7  UNL     1     -10.725 -22.469 -32.254  1.00  0.00     0.043 C 
BRANCH  44  45
HETATM   45  C8  UNL     1     -11.234 -21.102 -32.085  1.00  0.00     0.004 C 
BRANCH  45  46
HETATM   46  C9  UNL     1     -10.990 -20.341 -30.833  1.00  0.00     0.027 C 
BRANCH  46  47
HETATM   47  C10 UNL     1     -12.346 -20.128 -30.085  1.00  0.00     0.229 C 
BRANCH  47  48
HETATM   48  N2  UNL     1     -13.366 -20.207 -31.093  1.00  0.00    -0.079 N 
ATOM     49  H23 UNL     1     -13.334 -19.442 -31.766  1.00  0.00     0.274 HD
ATOM     50  H22 UNL     1     -13.221 -20.964 -31.761  1.00  0.00     0.274 HD
ATOM     51  H21 UNL     1     -14.250 -20.271 -30.589  1.00  0.00     0.274 HD
ENDBRANCH  47  48
ENDBRANCH  46  47
ENDBRANCH  45  46
ENDBRANCH  44  45
ENDBRANCH   5  44
BRANCH  21  52
HETATM   52  N5  UNL     1      -9.219 -29.933 -37.211  1.00  0.00    -0.067 N 
HETATM   53  C21 UNL     1      -8.719 -29.357 -38.461  1.00  0.00     0.273 C 
HETATM   54  C22 UNL     1      -8.065 -30.379 -36.472  1.00  0.00     0.237 C 
HETATM   55  C23 UNL     1      -7.406 -31.597 -37.023  1.00  0.00     0.028 C 
HETATM   56  C24 UNL     1      -8.452 -32.718 -36.965  1.00  0.00     0.003 C 
HETATM   57  C25 UNL     1      -9.578 -32.292 -37.844  1.00  0.00     0.028 C 
HETATM   58  C26 UNL     1     -10.147 -30.951 -37.551  1.00  0.00     0.237 C 
ENDBRANCH  21  52
TORSDOF 11
ENDMDL
MODEL 5
REMARK VINA RESULT: -8.470714070      1.189      1.857
REMARK  11 active torsions:
REMARK  status: ('A' for Active; 'I' for Inactive)
REMARK    1  A    between atoms: C2_2  and  C4_4 
REMARK    2  A    between atoms: C2_2  and  C36_54 
REMARK    3  A    between atoms: C4_4  and  C5_5 
REMARK    4  A    between atoms: C6_9  and  C7_10 
REMARK    5  A    between atoms: C7_10  and  C8_11 
REMARK    6  A    between atoms: C8_11  and  C9_12 
REMARK    7  A    between atoms: C9_12  and  C10_13 
REMARK    8  A    between atoms: C10_13  and  N2_14 
REMARK    9  A    between atoms: C20_33  and  N5_34 
REMARK   10  A    between atoms: C35_51  and  O3_52 
REMARK   11  A    between atoms: C36_54  and  N7_55 
ROOT
HETATM    1  C5  UNL     1     -11.083 -25.283 -31.096  1.00  0.00     0.261 C 
HETATM    2  N1  UNL     1     -11.137 -24.840 -32.506  1.00  0.00    -0.051 N 
ATOM      3  H11 UNL     1     -11.631 -25.527 -33.075  1.00  0.00     0.279 HD
ATOM      4  H12 UNL     1     -10.211 -24.892 -32.931  1.00  0.00     0.279 HD
HETATM    5  C6  UNL     1     -11.717 -23.501 -32.701  1.00  0.00     0.277 C 
HETATM    6  C11 UNL     1     -13.127 -23.448 -32.342  1.00  0.00     0.248 C 
HETATM    7  O1  UNL     1     -13.430 -23.274 -31.108  1.00  0.00    -0.271 OA
HETATM    8  N3  UNL     1     -14.195 -23.582 -33.302  1.00  0.00    -0.359 N 
ATOM      9  H3  UNL     1     -15.036 -24.080 -33.009  1.00  0.00     0.162 HD
HETATM   10  C12 UNL     1     -14.160 -23.066 -34.633  1.00  0.00     0.122 C 
HETATM   11  C13 UNL     1     -15.209 -23.699 -35.517  1.00  0.00     0.020 C 
HETATM   12  C14 UNL     1     -14.840 -25.072 -35.991  1.00  0.00     0.002 C 
HETATM   13  C15 UNL     1     -15.260 -25.305 -37.433  1.00  0.00     0.002 C 
HETATM   14  C16 UNL     1     -14.452 -26.439 -37.980  1.00  0.00     0.027 C 
HETATM   15  C17 UNL     1     -13.099 -25.902 -38.406  1.00  0.00     0.232 C 
HETATM   16  N4  UNL     1     -12.147 -26.995 -38.609  1.00  0.00    -0.075 N 
ATOM     17  H41 UNL     1     -11.666 -26.918 -39.505  1.00  0.00     0.277 HD
ATOM     18  H42 UNL     1     -12.620 -27.886 -38.766  1.00  0.00     0.277 HD
HETATM   19  C18 UNL     1     -11.213 -27.066 -37.496  1.00  0.00     0.234 C 
HETATM   20  C19 UNL     1     -11.235 -28.476 -36.950  1.00  0.00     0.061 C 
HETATM   21  C20 UNL     1      -9.876 -28.849 -36.353  1.00  0.00     0.192 C 
HETATM   22  C27 UNL     1     -10.113 -29.334 -34.965  1.00  0.00     0.041 C 
HETATM   23  C28 UNL     1     -10.426 -28.251 -33.999  1.00  0.00     0.087 C 
HETATM   24  C29 UNL     1      -9.272 -27.430 -33.550  1.00  0.00     0.172 C 
HETATM   25  O2  UNL     1      -8.905 -26.626 -34.438  1.00  0.00    -0.291 OA
HETATM   26  C30 UNL     1      -8.568 -27.441 -32.309  1.00  0.00     0.059 C 
HETATM   27  C31 UNL     1      -8.501 -28.890 -31.752  1.00  0.00     0.061 C 
HETATM   28  C32 UNL     1      -7.476 -28.987 -30.678  1.00  0.00     0.008 C 
HETATM   29  C33 UNL     1      -7.371 -27.832 -29.754  1.00  0.00     0.021 C 
HETATM   30  C34 UNL     1      -7.434 -26.527 -30.441  1.00  0.00     0.131 C 
HETATM   31  N6  UNL     1      -8.714 -26.488 -31.255  1.00  0.00    -0.330 N 
HETATM   32  C35 UNL     1      -9.652 -25.587 -30.823  1.00  0.00     0.149 C 
ENDROOT
BRANCH   1  33
HETATM   33  C4  UNL     1     -12.092 -26.293 -30.805  1.00  0.00     0.052 C 
BRANCH  33  34
HETATM   34  C2  UNL     1     -12.693 -26.502 -29.456  1.00  0.00    -0.021 C 
HETATM   35  C1  UNL     1     -14.108 -26.980 -29.554  1.00  0.00     0.016 C 
HETATM   36  C3  UNL     1     -11.964 -27.638 -28.714  1.00  0.00     0.016 C 
BRANCH  34  37
HETATM   37  C36 UNL     1     -12.567 -25.179 -28.771  1.00  0.00     0.244 C 
BRANCH  37  38
HETATM   38  N7  UNL     1     -12.171 -25.022 -27.462  1.00  0.00    -0.078 N 
HETATM   39  C37 UNL     1     -13.229 -25.359 -26.472  1.00  0.00     0.271 C 
HETATM   40  C38 UNL     1     -12.058 -23.543 -27.263  1.00  0.00     0.271 C 
HETATM   41  C39 UNL     1     -10.912 -25.507 -27.006  1.00  0.00     0.271 C 
ENDBRANCH  37  38
ENDBRANCH  34  37
ENDBRANCH  33  34
ENDBRANCH   1  33
BRANCH  32  42
HETATM   42  O3  UNL     1      -9.184 -24.740 -29.922  1.00  0.00    -0.348 OA
ATOM     43  H3  UNL     1      -9.726 -23.960 -29.907  1.00  0.00     0.219 HD
ENDBRANCH  32  42
BRANCH   5  44
HETATM   44  C7  UNL     1     -10.814 -22.438 -32.233  1.00  0.00     0.043 C 
BRANCH  44  45
HETATM   45  C8  UNL     1     -11.324 -21.068 -32.082  1.00  0.00     0.004 C 
BRANCH  45  46
HETATM   46  C9  UNL     1     -11.076 -20.289 -30.842  1.00  0.00     0.027 C 
BRANCH  46  47
HETATM   47  C10 UNL     1     -12.429 -20.077 -30.086  1.00  0.00     0.229 C 
BRANCH  47  48
HETATM   48  N2  UNL     1     -13.456 -20.181 -31.085  1.00  0.00    -0.079 N 
ATOM     49  H23 UNL     1     -14.392 -20.299 -30.696  1.00  0.00     0.274 HD
ATOM     50  H22 UNL     1     -13.637 -19.305 -31.576  1.00  0.00     0.274 HD
ATOM     51  H21 UNL     1     -13.170 -20.942 -31.700  1.00  0.00     0.274 HD
ENDBRANCH  47  48
ENDBRANCH  46  47
ENDBRANCH  45  46
ENDBRANCH  44  45
ENDBRANCH   5  44
BRANCH  21  52
HETATM   52  N5  UNL     1      -9.251 -29.890 -37.189  1.00  0.00    -0.067 N 
HETATM   53  C21 UNL     1      -8.705 -29.304 -38.415  1.00  0.00     0.273 C 
HETATM   54  C22 UNL     1      -8.126 -30.364 -36.422  1.00  0.00     0.237 C 
HETATM   55  C23 UNL     1      -7.470 -31.584 -36.971  1.00  0.00     0.028 C 
HETATM   56  C24 UNL     1      -8.534 -32.690 -36.961  1.00  0.00     0.003 C 
HETATM   57  C25 UNL     1      -9.627 -32.233 -37.867  1.00  0.00     0.028 C 
HETATM   58  C26 UNL     1     -10.184 -30.889 -37.571  1.00  0.00     0.237 C 
ENDBRANCH  21  52
TORSDOF 11
ENDMDL
