MODEL 1
REMARK VINA RESULT: -7.356488195      0.000      0.000
REMARK  8 active torsions:
REMARK  status: ('A' for Active; 'I' for Inactive)
REMARK    1  A    between atoms: N1_2  and  C2_4 
REMARK    2  A    between atoms: C3_7  and  C4_8 
REMARK    3  A    between atoms: C4_8  and  C5_9 
REMARK    4  A    between atoms: C5_9  and  N3_10 
REMARK       I    between atoms: N3_10  and  C6_12 
REMARK    5  A    between atoms: C6_12  and  C7_14 
REMARK    6  A    between atoms: C11_21  and  O2_22 
REMARK    7  A    between atoms: O2_22  and  C12_23 
REMARK    8  A    between atoms: C13_28  and  N6_29 
ROOT
HETATM    1  C7  UNL     1     -21.658  29.959   8.242  1.00  0.00     0.100 A 
HETATM    2  S1  UNL     1     -22.029  31.463   7.534  1.00  0.00    -0.064 SA
HETATM    3  C8  UNL     1     -23.192  30.949   6.386  1.00  0.00     0.091 A 
HETATM    4  N4  UNL     1     -23.859  31.753   5.499  1.00  0.00    -0.350 N 
ATOM      5  H4  UNL     1     -23.518  32.712   5.433  1.00  0.00     0.166 HD
HETATM    6  C9  UNL     1     -24.903  31.453   4.703  1.00  0.00     0.058 C 
HETATM    7  C10 UNL     1     -25.269  32.524   3.742  1.00  0.00     0.072 C 
HETATM    8  C11 UNL     1     -25.639  30.282   4.695  1.00  0.00     0.171 C 
HETATM    9  N5  UNL     1     -25.220  29.104   5.155  1.00  0.00    -0.321 N 
ATOM     10  H5  UNL     1     -25.843  28.321   4.953  1.00  0.00     0.169 HD
HETATM   11  C13 UNL     1     -24.115  28.777   5.840  1.00  0.00     0.116 C 
HETATM   12  C14 UNL     1     -23.247  29.597   6.604  1.00  0.00     0.067 A 
HETATM   13  C15 UNL     1     -22.456  29.091   7.559  1.00  0.00     0.085 A 
HETATM   14  N7  UNL     1     -22.410  27.674   7.897  1.00  0.00    -0.100 NA
ENDROOT
BRANCH   1  15
HETATM   15  C6  UNL     1     -20.709  29.706   9.319  1.00  0.00     0.260 C 
HETATM   16  N3  UNL     1     -20.887  28.644  10.244  1.00  0.00    -0.356 N 
ATOM     17  H3  UNL     1     -21.707  28.045  10.144  1.00  0.00     0.162 HD
HETATM   18  O1  UNL     1     -19.711  30.459   9.419  1.00  0.00    -0.267 OA
BRANCH  16  19
HETATM   19  C5  UNL     1     -19.975  28.375  11.306  1.00  0.00     0.130 C 
BRANCH  19  20
HETATM   20  C4  UNL     1     -20.498  28.912  12.612  1.00  0.00     0.097 C 
BRANCH  20  21
HETATM   21  C3  UNL     1     -19.706  30.090  13.090  1.00  0.00     0.101 A 
HETATM   22  N2  UNL     1     -18.363  29.992  13.152  1.00  0.00    -0.180 N 
HETATM   23  C2  UNL     1     -17.624  31.026  13.575  1.00  0.00     0.681 A 
ATOM     24  H2  UNL     1     -17.906  29.124  12.875  1.00  0.00     0.185 HD
HETATM   25  N9  UNL     1     -18.202  32.181  13.947  1.00  0.00    -0.166 N 
HETATM   26  C16 UNL     1     -19.550  32.255  13.877  1.00  0.00     0.195 A 
ATOM     27  H9  UNL     1     -17.644  32.971  14.271  1.00  0.00     0.186 HD
HETATM   28  N8  UNL     1     -20.298  31.231  13.457  1.00  0.00    -0.321 N 
HETATM   29 CL1  UNL     1     -20.287  33.780  14.371  1.00  0.00    -0.044 Cl
ATOM     30  H8  UNL     1     -21.313  31.319  13.416  1.00  0.00     0.169 HD
BRANCH  23  31
HETATM   31  N1  UNL     1     -16.344  30.884  13.616  1.00  0.00    -0.230 N 
HETATM   32  C1  UNL     1     -15.728  29.590  13.847  1.00  0.00     0.165 C 
ATOM     33  H1  UNL     1     -15.748  31.701  13.483  1.00  0.00     0.177 HD
ENDBRANCH  23  31
ENDBRANCH  20  21
ENDBRANCH  19  20
ENDBRANCH  16  19
ENDBRANCH   1  15
BRANCH  11  34
HETATM   34  N6  UNL     1     -23.783  27.524   5.806  1.00  0.00    -0.385 N 
ATOM     35  H62 UNL     1     -22.870  27.338   5.390  1.00  0.00     0.157 HD
ATOM     36  H61 UNL     1     -24.466  26.875   6.196  1.00  0.00     0.157 HD
ENDBRANCH  11  34
BRANCH   8  37
HETATM   37  O2  UNL     1     -26.897  30.422   4.154  1.00  0.00    -0.272 OA
BRANCH  37  38
HETATM   38  C12 UNL     1     -27.561  29.410   3.430  1.00  0.00     0.506 C 
HETATM   39  F1  UNL     1     -27.034  29.296   2.166  1.00  0.00    -0.184 F 
HETATM   40  F2  UNL     1     -28.914  29.625   3.323  1.00  0.00    -0.184 F 
ENDBRANCH  37  38
ENDBRANCH   8  37
TORSDOF 8
ENDMDL
MODEL 2
REMARK VINA RESULT: -7.277219733      1.870      2.579
REMARK  8 active torsions:
REMARK  status: ('A' for Active; 'I' for Inactive)
REMARK    1  A    between atoms: N1_2  and  C2_4 
REMARK    2  A    between atoms: C3_7  and  C4_8 
REMARK    3  A    between atoms: C4_8  and  C5_9 
REMARK    4  A    between atoms: C5_9  and  N3_10 
REMARK       I    between atoms: N3_10  and  C6_12 
REMARK    5  A    between atoms: C6_12  and  C7_14 
REMARK    6  A    between atoms: C11_21  and  O2_22 
REMARK    7  A    between atoms: O2_22  and  C12_23 
REMARK    8  A    between atoms: C13_28  and  N6_29 
ROOT
HETATM    1  C7  UNL     1     -22.511  30.743   6.469  1.00  0.00     0.100 A 
HETATM    2  S1  UNL     1     -23.103  32.101   5.628  1.00  0.00    -0.064 SA
HETATM    3  C8  UNL     1     -24.496  31.403   4.919  1.00  0.00     0.091 A 
HETATM    4  N4  UNL     1     -25.393  32.044   4.104  1.00  0.00    -0.350 N 
ATOM      5  H4  UNL     1     -25.115  32.973   3.789  1.00  0.00     0.166 HD
HETATM    6  C9  UNL     1     -26.592  31.617   3.662  1.00  0.00     0.058 C 
HETATM    7  C10 UNL     1     -27.226  32.505   2.655  1.00  0.00     0.072 C 
HETATM    8  C11 UNL     1     -27.264  30.470   4.044  1.00  0.00     0.171 C 
HETATM    9  N5  UNL     1     -26.700  29.388   4.579  1.00  0.00    -0.321 N 
ATOM     10  H5  UNL     1     -27.325  28.587   4.680  1.00  0.00     0.169 HD
HETATM   11  C13 UNL     1     -25.447  29.177   5.009  1.00  0.00     0.116 C 
HETATM   12  C14 UNL     1     -24.447  30.111   5.374  1.00  0.00     0.067 A 
HETATM   13  C15 UNL     1     -23.423  29.775   6.171  1.00  0.00     0.085 A 
HETATM   14  N7  UNL     1     -23.243  28.440   6.726  1.00  0.00    -0.100 NA
ENDROOT
BRANCH   1  15
HETATM   15  C6  UNL     1     -21.314  30.675   7.298  1.00  0.00     0.260 C 
HETATM   16  N3  UNL     1     -21.336  30.126   8.606  1.00  0.00    -0.356 N 
ATOM     17  H3  UNL     1     -22.220  29.769   8.969  1.00  0.00     0.162 HD
HETATM   18  O1  UNL     1     -20.241  31.121   6.826  1.00  0.00    -0.267 OA
BRANCH  16  19
HETATM   19  C5  UNL     1     -20.181  30.048   9.437  1.00  0.00     0.130 C 
BRANCH  19  20
HETATM   20  C4  UNL     1     -20.567  29.829  10.876  1.00  0.00     0.097 C 
BRANCH  20  21
HETATM   21  C3  UNL     1     -19.638  30.533  11.818  1.00  0.00     0.101 A 
HETATM   22  N2  UNL     1     -20.156  31.221  12.854  1.00  0.00    -0.180 N 
HETATM   23  C2  UNL     1     -19.355  31.861  13.714  1.00  0.00     0.681 A 
ATOM     24  H2  UNL     1     -21.167  31.255  12.983  1.00  0.00     0.185 HD
HETATM   25  N9  UNL     1     -18.019  31.834  13.565  1.00  0.00    -0.166 N 
HETATM   26  C16 UNL     1     -17.523  31.138  12.519  1.00  0.00     0.195 A 
ATOM     27  H9  UNL     1     -17.404  32.321  14.217  1.00  0.00     0.186 HD
HETATM   28  N8  UNL     1     -18.312  30.494  11.654  1.00  0.00    -0.321 N 
HETATM   29 CL1  UNL     1     -15.768  31.114  12.342  1.00  0.00    -0.044 Cl
ATOM     30  H8  UNL     1     -17.906  29.978  10.874  1.00  0.00     0.169 HD
BRANCH  23  31
HETATM   31  N1  UNL     1     -19.898  32.506  14.690  1.00  0.00    -0.230 N 
HETATM   32  C1  UNL     1     -20.828  33.596  14.458  1.00  0.00     0.165 C 
ATOM     33  H1  UNL     1     -19.668  32.244  15.648  1.00  0.00     0.177 HD
ENDBRANCH  23  31
ENDBRANCH  20  21
ENDBRANCH  19  20
ENDBRANCH  16  19
ENDBRANCH   1  15
BRANCH  11  34
HETATM   34  N6  UNL     1     -25.089  27.935   5.108  1.00  0.00    -0.385 N 
ATOM     35  H62 UNL     1     -24.495  27.602   4.349  1.00  0.00     0.157 HD
ATOM     36  H61 UNL     1     -25.440  27.438   5.928  1.00  0.00     0.157 HD
ENDBRANCH  11  34
BRANCH   8  37
HETATM   37  O2  UNL     1     -28.621  30.523   3.822  1.00  0.00    -0.272 OA
BRANCH  37  38
HETATM   38  C12 UNL     1     -29.339  29.558   3.086  1.00  0.00     0.506 C 
HETATM   39  F1  UNL     1     -29.289  29.841   1.743  1.00  0.00    -0.184 F 
HETATM   40  F2  UNL     1     -30.656  29.462   3.466  1.00  0.00    -0.184 F 
ENDBRANCH  37  38
ENDBRANCH   8  37
TORSDOF 8
ENDMDL
MODEL 3
REMARK VINA RESULT: -7.274096116      1.174      1.922
REMARK  8 active torsions:
REMARK  status: ('A' for Active; 'I' for Inactive)
REMARK    1  A    between atoms: N1_2  and  C2_4 
REMARK    2  A    between atoms: C3_7  and  C4_8 
REMARK    3  A    between atoms: C4_8  and  C5_9 
REMARK    4  A    between atoms: C5_9  and  N3_10 
REMARK       I    between atoms: N3_10  and  C6_12 
REMARK    5  A    between atoms: C6_12  and  C7_14 
REMARK    6  A    between atoms: C11_21  and  O2_22 
REMARK    7  A    between atoms: O2_22  and  C12_23 
REMARK    8  A    between atoms: C13_28  and  N6_29 
ROOT
HETATM    1  C7  UNL     1     -21.670  29.883   8.271  1.00  0.00     0.100 A 
HETATM    2  S1  UNL     1     -21.985  31.399   7.562  1.00  0.00    -0.064 SA
HETATM    3  C8  UNL     1     -23.150  30.924   6.399  1.00  0.00     0.091 A 
HETATM    4  N4  UNL     1     -23.780  31.750   5.505  1.00  0.00    -0.350 N 
ATOM      5  H4  UNL     1     -23.409  32.698   5.445  1.00  0.00     0.166 HD
HETATM    6  C9  UNL     1     -24.823  31.484   4.696  1.00  0.00     0.058 C 
HETATM    7  C10 UNL     1     -25.144  32.568   3.733  1.00  0.00     0.072 C 
HETATM    8  C11 UNL     1     -25.596  30.337   4.677  1.00  0.00     0.171 C 
HETATM    9  N5  UNL     1     -25.220  29.146   5.140  1.00  0.00    -0.321 N 
ATOM     10  H5  UNL     1     -25.865  28.383   4.928  1.00  0.00     0.169 HD
HETATM   11  C13 UNL     1     -24.134  28.783   5.838  1.00  0.00     0.116 C 
HETATM   12  C14 UNL     1     -23.250  29.574   6.613  1.00  0.00     0.067 A 
HETATM   13  C15 UNL     1     -22.487  29.042   7.577  1.00  0.00     0.085 A 
HETATM   14  N7  UNL     1     -22.490  27.624   7.913  1.00  0.00    -0.100 NA
ENDROOT
BRANCH   1  15
HETATM   15  C6  UNL     1     -20.743  29.598   9.360  1.00  0.00     0.260 C 
HETATM   16  N3  UNL     1     -20.936  28.506  10.246  1.00  0.00    -0.356 N 
ATOM     17  H3  UNL     1     -21.751  27.908  10.109  1.00  0.00     0.162 HD
HETATM   18  O1  UNL     1     -19.751  30.351   9.504  1.00  0.00    -0.267 OA
BRANCH  16  19
HETATM   19  C5  UNL     1     -20.046  28.207  11.317  1.00  0.00     0.130 C 
BRANCH  19  20
HETATM   20  C4  UNL     1     -20.479  28.895  12.585  1.00  0.00     0.097 C 
BRANCH  20  21
HETATM   21  C3  UNL     1     -19.568  30.029  12.945  1.00  0.00     0.101 A 
HETATM   22  N2  UNL     1     -20.052  31.047  13.684  1.00  0.00    -0.180 N 
HETATM   23  C2  UNL     1     -19.266  32.075  14.023  1.00  0.00     0.681 A 
ATOM     24  H2  UNL     1     -21.026  31.033  13.987  1.00  0.00     0.185 HD
HETATM   25  N9  UNL     1     -17.980  32.119  13.635  1.00  0.00    -0.166 N 
HETATM   26  C16 UNL     1     -17.517  31.088  12.893  1.00  0.00     0.195 A 
ATOM     27  H9  UNL     1     -17.376  32.901  13.889  1.00  0.00     0.186 HD
HETATM   28  N8  UNL     1     -18.292  30.056  12.548  1.00  0.00    -0.321 N 
HETATM   29 CL1  UNL     1     -15.827  31.166  12.394  1.00  0.00    -0.044 Cl
ATOM     30  H8  UNL     1     -17.912  29.293  11.988  1.00  0.00     0.169 HD
BRANCH  23  31
HETATM   31  N1  UNL     1     -19.775  33.024  14.732  1.00  0.00    -0.230 N 
HETATM   32  C1  UNL     1     -21.043  33.639  14.385  1.00  0.00     0.165 C 
ATOM     33  H1  UNL     1     -19.273  33.352  15.557  1.00  0.00     0.177 HD
ENDBRANCH  23  31
ENDBRANCH  20  21
ENDBRANCH  19  20
ENDBRANCH  16  19
ENDBRANCH   1  15
BRANCH  11  34
HETATM   34  N6  UNL     1     -23.841  27.520   5.805  1.00  0.00    -0.385 N 
ATOM     35  H62 UNL     1     -23.461  27.149   6.676  1.00  0.00     0.157 HD
ATOM     36  H61 UNL     1     -24.023  27.047   4.919  1.00  0.00     0.157 HD
ENDBRANCH  11  34
BRANCH   8  37
HETATM   37  O2  UNL     1     -26.842  30.517   4.120  1.00  0.00    -0.272 OA
BRANCH  37  38
HETATM   38  C12 UNL     1     -27.540  29.519   3.409  1.00  0.00     0.506 C 
HETATM   39  F1  UNL     1     -27.090  29.446   2.113  1.00  0.00    -0.184 F 
HETATM   40  F2  UNL     1     -28.899  29.724   3.390  1.00  0.00    -0.184 F 
ENDBRANCH  37  38
ENDBRANCH   8  37
TORSDOF 8
ENDMDL
MODEL 4
REMARK VINA RESULT: -7.179650695      6.007      7.461
REMARK  8 active torsions:
REMARK  status: ('A' for Active; 'I' for Inactive)
REMARK    1  A    between atoms: N1_2  and  C2_4 
REMARK    2  A    between atoms: C3_7  and  C4_8 
REMARK    3  A    between atoms: C4_8  and  C5_9 
REMARK    4  A    between atoms: C5_9  and  N3_10 
REMARK       I    between atoms: N3_10  and  C6_12 
REMARK    5  A    between atoms: C6_12  and  C7_14 
REMARK    6  A    between atoms: C11_21  and  O2_22 
REMARK    7  A    between atoms: O2_22  and  C12_23 
REMARK    8  A    between atoms: C13_28  and  N6_29 
ROOT
HETATM    1  C7  UNL     1     -20.509  31.607  13.065  1.00  0.00     0.100 A 
HETATM    2  S1  UNL     1     -21.184  32.102  14.548  1.00  0.00    -0.064 SA
HETATM    3  C8  UNL     1     -22.540  32.967  13.961  1.00  0.00     0.091 A 
HETATM    4  N4  UNL     1     -23.478  33.612  14.725  1.00  0.00    -0.350 N 
ATOM      5  H4  UNL     1     -23.256  33.693  15.717  1.00  0.00     0.166 HD
HETATM    6  C9  UNL     1     -24.653  34.151  14.347  1.00  0.00     0.058 C 
HETATM    7  C10 UNL     1     -25.344  34.921  15.411  1.00  0.00     0.072 C 
HETATM    8  C11 UNL     1     -25.254  34.059  13.104  1.00  0.00     0.171 C 
HETATM    9  N5  UNL     1     -24.625  33.793  11.960  1.00  0.00    -0.321 N 
ATOM     10  H5  UNL     1     -25.202  33.891  11.124  1.00  0.00     0.169 HD
HETATM   11  C13 UNL     1     -23.359  33.418  11.726  1.00  0.00     0.116 C 
HETATM   12  C14 UNL     1     -22.412  32.833  12.603  1.00  0.00     0.067 A 
HETATM   13  C15 UNL     1     -21.365  32.133  12.146  1.00  0.00     0.085 A 
HETATM   14  N7  UNL     1     -21.104  31.912  10.729  1.00  0.00    -0.100 NA
ENDROOT
BRANCH   1  15
HETATM   15  C6  UNL     1     -19.304  30.809  12.871  1.00  0.00     0.260 C 
HETATM   16  N3  UNL     1     -18.039  31.228  13.361  1.00  0.00    -0.356 N 
ATOM     17  H3  UNL     1     -17.981  32.114  13.863  1.00  0.00     0.162 HD
HETATM   18  O1  UNL     1     -19.405  29.725  12.250  1.00  0.00    -0.267 OA
BRANCH  16  19
HETATM   19  C5  UNL     1     -16.846  30.468  13.184  1.00  0.00     0.130 C 
BRANCH  19  20
HETATM   20  C4  UNL     1     -15.965  31.088  12.132  1.00  0.00     0.097 C 
BRANCH  20  21
HETATM   21  C3  UNL     1     -14.510  30.923  12.452  1.00  0.00     0.101 A 
HETATM   22  N2  UNL     1     -13.593  31.387  11.581  1.00  0.00    -0.180 N 
HETATM   23  C2  UNL     1     -12.285  31.256  11.835  1.00  0.00     0.681 A 
ATOM     24  H2  UNL     1     -13.897  31.842  10.721  1.00  0.00     0.185 HD
HETATM   25  N9  UNL     1     -11.857  30.659  12.961  1.00  0.00    -0.166 N 
HETATM   26  C16 UNL     1     -12.796  30.200  13.819  1.00  0.00     0.195 A 
ATOM     27  H9  UNL     1     -10.862  30.555  13.160  1.00  0.00     0.186 HD
HETATM   28  N8  UNL     1     -14.103  30.326  13.576  1.00  0.00    -0.321 N 
HETATM   29 CL1  UNL     1     -12.212  29.421  15.290  1.00  0.00    -0.044 Cl
ATOM     30  H8  UNL     1     -14.786  29.969  14.244  1.00  0.00     0.169 HD
BRANCH  23  31
HETATM   31  N1  UNL     1     -11.446  31.717  10.972  1.00  0.00    -0.230 N 
HETATM   32  C1  UNL     1     -11.168  33.137  10.864  1.00  0.00     0.165 C 
ATOM     33  H1  UNL     1     -10.966  31.068  10.350  1.00  0.00     0.177 HD
ENDBRANCH  23  31
ENDBRANCH  20  21
ENDBRANCH  19  20
ENDBRANCH  16  19
ENDBRANCH   1  15
BRANCH  11  34
HETATM   34  N6  UNL     1     -22.929  33.615  10.519  1.00  0.00    -0.385 N 
ATOM     35  H62 UNL     1     -23.276  32.948   9.830  1.00  0.00     0.157 HD
ATOM     36  H61 UNL     1     -22.300  34.409  10.398  1.00  0.00     0.157 HD
ENDBRANCH  11  34
BRANCH   8  37
HETATM   37  O2  UNL     1     -26.614  34.270  13.130  1.00  0.00    -0.272 OA
BRANCH  37  38
HETATM   38  C12 UNL     1     -27.494  33.878  12.100  1.00  0.00     0.506 C 
HETATM   39  F1  UNL     1     -28.732  34.445  12.280  1.00  0.00    -0.184 F 
HETATM   40  F2  UNL     1     -27.644  32.515  12.012  1.00  0.00    -0.184 F 
ENDBRANCH  37  38
ENDBRANCH   8  37
TORSDOF 8
ENDMDL
MODEL 5
REMARK VINA RESULT: -7.105881684      1.402      1.687
REMARK  8 active torsions:
REMARK  status: ('A' for Active; 'I' for Inactive)
REMARK    1  A    between atoms: N1_2  and  C2_4 
REMARK    2  A    between atoms: C3_7  and  C4_8 
REMARK    3  A    between atoms: C4_8  and  C5_9 
REMARK    4  A    between atoms: C5_9  and  N3_10 
REMARK       I    between atoms: N3_10  and  C6_12 
REMARK    5  A    between atoms: C6_12  and  C7_14 
REMARK    6  A    between atoms: C11_21  and  O2_22 
REMARK    7  A    between atoms: O2_22  and  C12_23 
REMARK    8  A    between atoms: C13_28  and  N6_29 
ROOT
HETATM    1  C7  UNL     1     -22.465  30.718   6.530  1.00  0.00     0.100 A 
HETATM    2  S1  UNL     1     -23.040  32.071   5.670  1.00  0.00    -0.064 SA
HETATM    3  C8  UNL     1     -24.431  31.375   4.954  1.00  0.00     0.091 A 
HETATM    4  N4  UNL     1     -25.316  32.013   4.125  1.00  0.00    -0.350 N 
ATOM      5  H4  UNL     1     -25.029  32.938   3.803  1.00  0.00     0.166 HD
HETATM    6  C9  UNL     1     -26.513  31.589   3.675  1.00  0.00     0.058 C 
HETATM    7  C10 UNL     1     -27.131  32.471   2.654  1.00  0.00     0.072 C 
HETATM    8  C11 UNL     1     -27.196  30.450   4.062  1.00  0.00     0.171 C 
HETATM    9  N5  UNL     1     -26.644  29.370   4.614  1.00  0.00    -0.321 N 
ATOM     10  H5  UNL     1     -27.275  28.575   4.716  1.00  0.00     0.169 HD
HETATM   11  C13 UNL     1     -25.397  29.156   5.057  1.00  0.00     0.116 C 
HETATM   12  C14 UNL     1     -24.394  30.088   5.423  1.00  0.00     0.067 A 
HETATM   13  C15 UNL     1     -23.380  29.753   6.233  1.00  0.00     0.085 A 
HETATM   14  N7  UNL     1     -23.214  28.422   6.803  1.00  0.00    -0.100 NA
ENDROOT
BRANCH   1  15
HETATM   15  C6  UNL     1     -21.277  30.651   7.371  1.00  0.00     0.260 C 
HETATM   16  N3  UNL     1     -21.311  30.097   8.678  1.00  0.00    -0.356 N 
ATOM     17  H3  UNL     1     -22.197  29.737   9.030  1.00  0.00     0.162 HD
HETATM   18  O1  UNL     1     -20.200  31.102   6.912  1.00  0.00    -0.267 OA
BRANCH  16  19
HETATM   19  C5  UNL     1     -20.164  30.020   9.520  1.00  0.00     0.130 C 
BRANCH  19  20
HETATM   20  C4  UNL     1     -20.561  29.727  10.943  1.00  0.00     0.097 C 
BRANCH  20  21
HETATM   21  C3  UNL     1     -19.756  30.524  11.924  1.00  0.00     0.101 A 
HETATM   22  N2  UNL     1     -18.436  30.277  12.040  1.00  0.00    -0.180 N 
HETATM   23  C2  UNL     1     -17.687  30.970  12.906  1.00  0.00     0.681 A 
ATOM     24  H2  UNL     1     -18.005  29.555  11.463  1.00  0.00     0.185 HD
HETATM   25  N9  UNL     1     -18.232  31.925  13.680  1.00  0.00    -0.166 N 
HETATM   26  C16 UNL     1     -19.557  32.155  13.546  1.00  0.00     0.195 A 
ATOM     27  H9  UNL     1     -17.667  32.456  14.342  1.00  0.00     0.186 HD
HETATM   28  N8  UNL     1     -20.315  31.470  12.685  1.00  0.00    -0.321 N 
HETATM   29 CL1  UNL     1     -20.251  33.413  14.570  1.00  0.00    -0.044 Cl
ATOM     30  H8  UNL     1     -21.313  31.668  12.609  1.00  0.00     0.169 HD
BRANCH  23  31
HETATM   31  N1  UNL     1     -16.430  30.698  12.981  1.00  0.00    -0.230 N 
HETATM   32  C1  UNL     1     -15.924  29.676  13.879  1.00  0.00     0.165 C 
ATOM     33  H1  UNL     1     -15.774  31.212  12.394  1.00  0.00     0.177 HD
ENDBRANCH  23  31
ENDBRANCH  20  21
ENDBRANCH  19  20
ENDBRANCH  16  19
ENDBRANCH   1  15
BRANCH  11  34
HETATM   34  N6  UNL     1     -25.048  27.913   5.173  1.00  0.00    -0.385 N 
ATOM     35  H62 UNL     1     -24.765  27.636   6.113  1.00  0.00     0.157 HD
ATOM     36  H61 UNL     1     -25.097  27.358   4.318  1.00  0.00     0.157 HD
ENDBRANCH  11  34
BRANCH   8  37
HETATM   37  O2  UNL     1     -28.550  30.510   3.827  1.00  0.00    -0.272 OA
BRANCH  37  38
HETATM   38  C12 UNL     1     -29.265  29.547   3.084  1.00  0.00     0.506 C 
HETATM   39  F1  UNL     1     -29.195  29.825   1.740  1.00  0.00    -0.184 F 
HETATM   40  F2  UNL     1     -30.588  29.463   3.446  1.00  0.00    -0.184 F 
ENDBRANCH  37  38
ENDBRANCH   8  37
TORSDOF 8
ENDMDL
