MODEL 1
REMARK VINA RESULT: -7.827186714      0.000      0.000
REMARK  9 active torsions:
REMARK  status: ('A' for Active; 'I' for Inactive)
REMARK    1  A    between atoms: N1_2  and  C3_4 
REMARK    2  A    between atoms: C4_7  and  N3_8 
REMARK    3  A    between atoms: C7_17  and  N6_18 
REMARK    4  A    between atoms: N6_18  and  C8_20 
REMARK    5  A    between atoms: C8_20  and  C9_21 
REMARK    6  A    between atoms: C9_21  and  N7_22 
REMARK    7  A    between atoms: C9_21  and  C10_26 
REMARK    8  A    between atoms: C10_26  and  S1_27 
REMARK    9  A    between atoms: S1_27  and  C11_28 
ROOT
HETATM    1  C11 UNL     1      37.836  -1.874 -13.562  1.00  0.00     0.061 A 
HETATM    2  C12 UNL     1      39.076  -1.924 -13.996  1.00  0.00     0.139 A 
HETATM    3  C13 UNL     1      39.897  -3.085 -14.175  1.00  0.00     0.107 C 
HETATM    4  N8  UNL     1      40.555  -4.007 -14.337  1.00  0.00    -0.191 NA
HETATM    5  C14 UNL     1      39.560  -0.569 -14.364  1.00  0.00     0.310 A 
HETATM    6  O1  UNL     1      40.683  -0.244 -14.808  1.00  0.00    -0.258 OA
HETATM    7  O2  UNL     1      38.508   0.269 -14.113  1.00  0.00    -0.273 OA
HETATM    8  C15 UNL     1      37.429  -0.449 -13.628  1.00  0.00     0.100 A 
HETATM    9  C16 UNL     1      36.244   0.006 -13.276  1.00  0.00    -0.044 A 
HETATM   10  C17 UNL     1      34.857  -0.120 -12.767  1.00  0.00     0.041 A 
HETATM   11  C18 UNL     1      35.323   1.209 -13.128  1.00  0.00     0.041 A 
ENDROOT
BRANCH   1  12
HETATM   12  S1  UNL     1      36.762  -3.138 -13.060  1.00  0.00    -0.123 SA
BRANCH  12  13
HETATM   13  C10 UNL     1      36.231  -3.244 -11.393  1.00  0.00     0.114 C 
BRANCH  13  14
HETATM   14  C9  UNL     1      37.070  -2.415 -10.479  1.00  0.00     0.210 C 
BRANCH  14  15
HETATM   15  C8  UNL     1      36.582  -2.513  -9.023  1.00  0.00     0.154 C 
BRANCH  15  16
HETATM   16  N6  UNL     1      35.569  -3.551  -9.012  1.00  0.00    -0.373 N 
ATOM     17  H6  UNL     1      34.722  -3.395  -9.559  1.00  0.00     0.161 HD
BRANCH  16  18
HETATM   18  C7  UNL     1      35.664  -4.640  -8.368  1.00  0.00     0.117 A 
HETATM   19  C6  UNL     1      34.828  -5.692  -8.662  1.00  0.00     0.138 A 
HETATM   20  N5  UNL     1      34.912  -6.874  -7.983  1.00  0.00    -0.346 N 
HETATM   21  C5  UNL     1      35.826  -7.017  -7.011  1.00  0.00     0.151 A 
ATOM     22  H5  UNL     1      34.284  -7.644  -8.213  1.00  0.00     0.167 HD
HETATM   23  N4  UNL     1      35.948  -8.160  -6.316  1.00  0.00    -0.174 N 
HETATM   24  C19 UNL     1      36.664  -5.980  -6.708  1.00  0.00     0.123 A 
HETATM   25  C4  UNL     1      36.862  -8.304  -5.342  1.00  0.00     0.679 A 
ATOM     26  H4  UNL     1      35.329  -8.941  -6.534  1.00  0.00     0.186 HD
HETATM   27  N2  UNL     1      37.685  -7.287  -5.044  1.00  0.00    -0.175 N 
HETATM   28  C3  UNL     1      37.606  -6.129  -5.705  1.00  0.00     0.149 A 
ATOM     29  H2  UNL     1      38.379  -7.399  -4.306  1.00  0.00     0.186 HD
HETATM   30  N9  UNL     1      36.569  -4.805  -7.394  1.00  0.00    -0.336 N 
ATOM     31  H9  UNL     1      37.198  -4.036  -7.160  1.00  0.00     0.168 HD
BRANCH  25  32
HETATM   32  N3  UNL     1      36.963  -9.424  -4.677  1.00  0.00    -0.234 N 
ATOM     33  H32 UNL     1      36.450  -9.565  -3.807  1.00  0.00     0.174 HD
ATOM     34  H31 UNL     1      37.564 -10.166  -5.037  1.00  0.00     0.174 HD
ENDBRANCH  25  32
BRANCH  28  35
HETATM   35  N1  UNL     1      38.460  -5.028  -5.418  1.00  0.00    -0.374 N 
HETATM   36  C1  UNL     1      37.977  -3.876  -4.699  1.00  0.00     0.150 C 
HETATM   37  C2  UNL     1      39.832  -5.079  -5.864  1.00  0.00     0.150 C 
ENDBRANCH  28  35
ENDBRANCH  16  18
ENDBRANCH  15  16
ENDBRANCH  14  15
BRANCH  14  38
HETATM   38  N7  UNL     1      38.461  -2.638 -10.500  1.00  0.00    -0.073 N 
ATOM     39  H73 UNL     1      38.942  -2.188  -9.721  1.00  0.00     0.274 HD
ATOM     40  H72 UNL     1      38.707  -3.602 -10.277  1.00  0.00     0.274 HD
ATOM     41  H71 UNL     1      38.823  -2.341 -11.406  1.00  0.00     0.274 HD
ENDBRANCH  14  38
ENDBRANCH  13  14
ENDBRANCH  12  13
ENDBRANCH   1  12
TORSDOF 9
ENDMDL
MODEL 2
REMARK VINA RESULT: -7.687843466      1.550      3.007
REMARK  9 active torsions:
REMARK  status: ('A' for Active; 'I' for Inactive)
REMARK    1  A    between atoms: N1_2  and  C3_4 
REMARK    2  A    between atoms: C4_7  and  N3_8 
REMARK    3  A    between atoms: C7_17  and  N6_18 
REMARK    4  A    between atoms: N6_18  and  C8_20 
REMARK    5  A    between atoms: C8_20  and  C9_21 
REMARK    6  A    between atoms: C9_21  and  N7_22 
REMARK    7  A    between atoms: C9_21  and  C10_26 
REMARK    8  A    between atoms: C10_26  and  S1_27 
REMARK    9  A    between atoms: S1_27  and  C11_28 
ROOT
HETATM    1  C11 UNL     1      38.880  -2.096 -13.406  1.00  0.00     0.061 A 
HETATM    2  C12 UNL     1      38.500  -0.872 -13.701  1.00  0.00     0.139 A 
HETATM    3  C13 UNL     1      37.262  -0.233 -13.365  1.00  0.00     0.107 C 
HETATM    4  N8  UNL     1      36.284   0.292 -13.088  1.00  0.00    -0.191 NA
HETATM    5  C14 UNL     1      39.577  -0.145 -14.419  1.00  0.00     0.310 A 
HETATM    6  O1  UNL     1      39.562   1.028 -14.851  1.00  0.00    -0.258 OA
HETATM    7  O2  UNL     1      40.610  -1.037 -14.515  1.00  0.00    -0.273 OA
HETATM    8  C15 UNL     1      40.263  -2.238 -13.923  1.00  0.00     0.100 A 
HETATM    9  C16 UNL     1      40.991  -3.331 -13.816  1.00  0.00    -0.044 A 
HETATM   10  C17 UNL     1      41.255  -4.731 -13.403  1.00  0.00     0.041 A 
HETATM   11  C18 UNL     1      42.316  -4.023 -14.104  1.00  0.00     0.041 A 
ENDROOT
BRANCH   1  12
HETATM   12  S1  UNL     1      38.067  -3.353 -12.534  1.00  0.00    -0.123 SA
BRANCH  12  13
HETATM   13  C10 UNL     1      36.352  -3.629 -12.764  1.00  0.00     0.114 C 
BRANCH  13  14
HETATM   14  C9  UNL     1      35.548  -3.212 -11.578  1.00  0.00     0.210 C 
BRANCH  14  15
HETATM   15  C8  UNL     1      36.451  -2.863 -10.382  1.00  0.00     0.154 C 
BRANCH  15  16
HETATM   16  N6  UNL     1      35.670  -3.158  -9.195  1.00  0.00    -0.373 N 
ATOM     17  H6  UNL     1      35.039  -2.436  -8.849  1.00  0.00     0.161 HD
BRANCH  16  18
HETATM   18  C7  UNL     1      35.719  -4.256  -8.559  1.00  0.00     0.117 A 
HETATM   19  C6  UNL     1      34.860  -5.280  -8.882  1.00  0.00     0.138 A 
HETATM   20  N5  UNL     1      34.894  -6.470  -8.212  1.00  0.00    -0.346 N 
HETATM   21  C5  UNL     1      35.781  -6.648  -7.221  1.00  0.00     0.151 A 
ATOM     22  H5  UNL     1      34.249  -7.219  -8.463  1.00  0.00     0.167 HD
HETATM   23  N4  UNL     1      35.854  -7.800  -6.534  1.00  0.00    -0.174 N 
HETATM   24  C19 UNL     1      36.642  -5.638  -6.890  1.00  0.00     0.123 A 
HETATM   25  C4  UNL     1      36.742  -7.979  -5.541  1.00  0.00     0.679 A 
ATOM     26  H4  UNL     1      35.218  -8.560  -6.773  1.00  0.00     0.186 HD
HETATM   27  N2  UNL     1      37.587  -6.989  -5.216  1.00  0.00    -0.175 N 
HETATM   28  C3  UNL     1      37.557  -5.824  -5.868  1.00  0.00     0.149 A 
ATOM     29  H2  UNL     1      38.261  -7.128  -4.463  1.00  0.00     0.186 HD
HETATM   30  N9  UNL     1      36.597  -4.455  -7.567  1.00  0.00    -0.336 N 
ATOM     31  H9  UNL     1      37.242  -3.707  -7.312  1.00  0.00     0.168 HD
BRANCH  25  32
HETATM   32  N3  UNL     1      36.796  -9.107  -4.885  1.00  0.00    -0.234 N 
ATOM     33  H32 UNL     1      37.247  -9.927  -5.290  1.00  0.00     0.174 HD
ATOM     34  H31 UNL     1      36.381  -9.164  -3.955  1.00  0.00     0.174 HD
ENDBRANCH  25  32
BRANCH  28  35
HETATM   35  N1  UNL     1      38.436  -4.750  -5.552  1.00  0.00    -0.374 N 
HETATM   36  C1  UNL     1      38.021  -3.676  -4.684  1.00  0.00     0.150 C 
HETATM   37  C2  UNL     1      39.763  -4.750  -6.119  1.00  0.00     0.150 C 
ENDBRANCH  28  35
ENDBRANCH  16  18
ENDBRANCH  15  16
ENDBRANCH  14  15
BRANCH  14  38
HETATM   38  N7  UNL     1      34.624  -2.164 -11.761  1.00  0.00    -0.073 N 
ATOM     39  H73 UNL     1      33.854  -2.200 -11.092  1.00  0.00     0.274 HD
ATOM     40  H72 UNL     1      35.002  -1.257 -11.490  1.00  0.00     0.274 HD
ATOM     41  H71 UNL     1      34.302  -2.182 -12.729  1.00  0.00     0.274 HD
ENDBRANCH  14  38
ENDBRANCH  13  14
ENDBRANCH  12  13
ENDBRANCH   1  12
TORSDOF 9
ENDMDL
MODEL 3
REMARK VINA RESULT: -7.208380441      1.568      2.279
REMARK  9 active torsions:
REMARK  status: ('A' for Active; 'I' for Inactive)
REMARK    1  A    between atoms: N1_2  and  C3_4 
REMARK    2  A    between atoms: C4_7  and  N3_8 
REMARK    3  A    between atoms: C7_17  and  N6_18 
REMARK    4  A    between atoms: N6_18  and  C8_20 
REMARK    5  A    between atoms: C8_20  and  C9_21 
REMARK    6  A    between atoms: C9_21  and  N7_22 
REMARK    7  A    between atoms: C9_21  and  C10_26 
REMARK    8  A    between atoms: C10_26  and  S1_27 
REMARK    9  A    between atoms: S1_27  and  C11_28 
ROOT
HETATM    1  C11 UNL     1      39.890  -3.094 -13.168  1.00  0.00     0.061 A 
HETATM    2  C12 UNL     1      40.852  -3.948 -13.439  1.00  0.00     0.139 A 
HETATM    3  C13 UNL     1      41.118  -5.203 -12.799  1.00  0.00     0.107 C 
HETATM    4  N8  UNL     1      41.328  -6.213 -12.306  1.00  0.00    -0.191 NA
HETATM    5  C14 UNL     1      41.662  -3.481 -14.593  1.00  0.00     0.310 A 
HETATM    6  O1  UNL     1      42.651  -4.037 -15.118  1.00  0.00    -0.258 OA
HETATM    7  O2  UNL     1      41.096  -2.294 -14.972  1.00  0.00    -0.273 OA
HETATM    8  C15 UNL     1      40.018  -1.996 -14.157  1.00  0.00     0.100 A 
HETATM    9  C16 UNL     1      39.225  -0.945 -14.212  1.00  0.00    -0.044 A 
HETATM   10  C17 UNL     1      38.090  -0.098 -13.772  1.00  0.00     0.041 A 
HETATM   11  C18 UNL     1      38.877   0.364 -14.905  1.00  0.00     0.041 A 
ENDROOT
BRANCH   1  12
HETATM   12  S1  UNL     1      38.627  -3.152 -11.984  1.00  0.00    -0.123 SA
BRANCH  12  13
HETATM   13  C10 UNL     1      36.956  -3.346 -12.475  1.00  0.00     0.114 C 
BRANCH  13  14
HETATM   14  C9  UNL     1      36.002  -2.818 -11.456  1.00  0.00     0.210 C 
BRANCH  14  15
HETATM   15  C8  UNL     1      36.674  -2.670 -10.080  1.00  0.00     0.154 C 
BRANCH  15  16
HETATM   16  N6  UNL     1      35.693  -3.113  -9.108  1.00  0.00    -0.373 N 
ATOM     17  H6  UNL     1      34.912  -2.490  -8.903  1.00  0.00     0.161 HD
BRANCH  16  18
HETATM   18  C7  UNL     1      35.740  -4.224  -8.496  1.00  0.00     0.117 A 
HETATM   19  C6  UNL     1      34.880  -5.239  -8.841  1.00  0.00     0.138 A 
HETATM   20  N5  UNL     1      34.912  -6.444  -8.198  1.00  0.00    -0.346 N 
HETATM   21  C5  UNL     1      35.797  -6.645  -7.210  1.00  0.00     0.151 A 
ATOM     22  H5  UNL     1      34.266  -7.187  -8.466  1.00  0.00     0.167 HD
HETATM   23  N4  UNL     1      35.868  -7.812  -6.548  1.00  0.00    -0.174 N 
HETATM   24  C19 UNL     1      36.660  -5.644  -6.856  1.00  0.00     0.123 A 
HETATM   25  C4  UNL     1      36.755  -8.014  -5.559  1.00  0.00     0.679 A 
ATOM     26  H4  UNL     1      35.231  -8.566  -6.805  1.00  0.00     0.186 HD
HETATM   27  N2  UNL     1      37.601  -7.032  -5.212  1.00  0.00    -0.175 N 
HETATM   28  C3  UNL     1      37.573  -5.853  -5.837  1.00  0.00     0.149 A 
ATOM     29  H2  UNL     1      38.274  -7.188  -4.461  1.00  0.00     0.186 HD
HETATM   30  N9  UNL     1      36.616  -4.446  -7.507  1.00  0.00    -0.336 N 
ATOM     31  H9  UNL     1      37.263  -3.705  -7.236  1.00  0.00     0.168 HD
BRANCH  25  32
HETATM   32  N3  UNL     1      36.806  -9.156  -4.928  1.00  0.00    -0.234 N 
ATOM     33  H32 UNL     1      36.419  -9.254  -3.989  1.00  0.00     0.174 HD
ATOM     34  H31 UNL     1      37.240  -9.959  -5.383  1.00  0.00     0.174 HD
ENDBRANCH  25  32
BRANCH  28  35
HETATM   35  N1  UNL     1      38.453  -4.788  -5.497  1.00  0.00    -0.374 N 
HETATM   36  C1  UNL     1      39.786  -4.719  -6.041  1.00  0.00     0.150 C 
HETATM   37  C2  UNL     1      37.989  -3.767  -4.589  1.00  0.00     0.150 C 
ENDBRANCH  28  35
ENDBRANCH  16  18
ENDBRANCH  15  16
ENDBRANCH  14  15
BRANCH  14  38
HETATM   38  N7  UNL     1      35.335  -1.614 -11.758  1.00  0.00    -0.073 N 
ATOM     39  H73 UNL     1      34.333  -1.664 -11.573  1.00  0.00     0.274 HD
ATOM     40  H72 UNL     1      35.561  -0.866 -11.103  1.00  0.00     0.274 HD
ATOM     41  H71 UNL     1      35.541  -1.364 -12.726  1.00  0.00     0.274 HD
ENDBRANCH  14  38
ENDBRANCH  13  14
ENDBRANCH  12  13
ENDBRANCH   1  12
TORSDOF 9
ENDMDL
MODEL 4
REMARK VINA RESULT: -7.205167375      4.211      9.063
REMARK  9 active torsions:
REMARK  status: ('A' for Active; 'I' for Inactive)
REMARK    1  A    between atoms: N1_2  and  C3_4 
REMARK    2  A    between atoms: C4_7  and  N3_8 
REMARK    3  A    between atoms: C7_17  and  N6_18 
REMARK    4  A    between atoms: N6_18  and  C8_20 
REMARK    5  A    between atoms: C8_20  and  C9_21 
REMARK    6  A    between atoms: C9_21  and  N7_22 
REMARK    7  A    between atoms: C9_21  and  C10_26 
REMARK    8  A    between atoms: C10_26  and  S1_27 
REMARK    9  A    between atoms: S1_27  and  C11_28 
ROOT
HETATM    1  C11 UNL     1      37.826  -7.022  -5.389  1.00  0.00     0.061 A 
HETATM    2  C12 UNL     1      36.673  -7.059  -6.022  1.00  0.00     0.139 A 
HETATM    3  C13 UNL     1      36.132  -6.080  -6.917  1.00  0.00     0.107 C 
HETATM    4  N8  UNL     1      35.699  -5.312  -7.647  1.00  0.00    -0.191 NA
HETATM    5  C14 UNL     1      35.960  -8.331  -5.742  1.00  0.00     0.310 A 
HETATM    6  O1  UNL     1      34.844  -8.701  -6.171  1.00  0.00    -0.258 OA
HETATM    7  O2  UNL     1      36.785  -9.030  -4.904  1.00  0.00    -0.273 OA
HETATM    8  C15 UNL     1      37.933  -8.302  -4.647  1.00  0.00     0.100 A 
HETATM    9  C16 UNL     1      38.957  -8.642  -3.890  1.00  0.00    -0.044 A 
HETATM   10  C17 UNL     1      40.282  -8.436  -3.256  1.00  0.00     0.041 A 
HETATM   11  C18 UNL     1      39.589  -9.685  -2.980  1.00  0.00     0.041 A 
ENDROOT
BRANCH   1  12
HETATM   12  S1  UNL     1      39.081  -5.828  -5.394  1.00  0.00    -0.123 SA
BRANCH  12  13
HETATM   13  C10 UNL     1      38.715  -4.153  -5.033  1.00  0.00     0.114 C 
BRANCH  13  14
HETATM   14  C9  UNL     1      39.846  -3.241  -5.375  1.00  0.00     0.210 C 
BRANCH  14  15
HETATM   15  C8  UNL     1      39.410  -2.153  -6.371  1.00  0.00     0.154 C 
BRANCH  15  16
HETATM   16  N6  UNL     1      39.493  -2.760  -7.686  1.00  0.00    -0.373 N 
ATOM     17  H6  UNL     1      40.341  -3.277  -7.918  1.00  0.00     0.161 HD
BRANCH  16  18
HETATM   18  C7  UNL     1      38.582  -2.690  -8.567  1.00  0.00     0.117 A 
HETATM   19  C6  UNL     1      37.260  -2.649  -8.190  1.00  0.00     0.138 A 
HETATM   20  N5  UNL     1      36.262  -2.573  -9.119  1.00  0.00    -0.346 N 
HETATM   21  C5  UNL     1      36.572  -2.539 -10.424  1.00  0.00     0.151 A 
ATOM     22  H5  UNL     1      35.286  -2.544  -8.823  1.00  0.00     0.167 HD
HETATM   23  N4  UNL     1      35.626  -2.464 -11.376  1.00  0.00    -0.174 N 
HETATM   24  C19 UNL     1      37.882  -2.580 -10.814  1.00  0.00     0.123 A 
HETATM   25  C4  UNL     1      35.935  -2.430 -12.683  1.00  0.00     0.679 A 
ATOM     26  H4  UNL     1      34.645  -2.431 -11.097  1.00  0.00     0.186 HD
HETATM   27  N2  UNL     1      37.221  -2.469 -13.065  1.00  0.00    -0.175 N 
HETATM   28  C3  UNL     1      38.200  -2.544 -12.160  1.00  0.00     0.149 A 
ATOM     29  H2  UNL     1      37.453  -2.442 -14.057  1.00  0.00     0.186 HD
HETATM   30  N9  UNL     1      38.869  -2.655  -9.875  1.00  0.00    -0.336 N 
ATOM     31  H9  UNL     1      39.843  -2.686 -10.174  1.00  0.00     0.168 HD
BRANCH  25  32
HETATM   32  N3  UNL     1      35.000  -2.358 -13.591  1.00  0.00    -0.234 N 
ATOM     33  H32 UNL     1      35.049  -1.667 -14.341  1.00  0.00     0.174 HD
ATOM     34  H31 UNL     1      34.211  -3.003 -13.549  1.00  0.00     0.174 HD
ENDBRANCH  25  32
BRANCH  28  35
HETATM   35  N1  UNL     1      39.574  -2.588 -12.526  1.00  0.00    -0.374 N 
HETATM   36  C1  UNL     1      40.250  -3.844 -12.739  1.00  0.00     0.150 C 
HETATM   37  C2  UNL     1      40.291  -1.346 -12.682  1.00  0.00     0.150 C 
ENDBRANCH  28  35
ENDBRANCH  16  18
ENDBRANCH  15  16
ENDBRANCH  14  15
BRANCH  14  38
HETATM   38  N7  UNL     1      40.524  -2.623  -4.306  1.00  0.00    -0.073 N 
ATOM     39  H73 UNL     1      41.134  -1.866  -4.614  1.00  0.00     0.274 HD
ATOM     40  H72 UNL     1      39.902  -2.070  -3.716  1.00  0.00     0.274 HD
ATOM     41  H71 UNL     1      41.025  -3.341  -3.782  1.00  0.00     0.274 HD
ENDBRANCH  14  38
ENDBRANCH  13  14
ENDBRANCH  12  13
ENDBRANCH   1  12
TORSDOF 9
ENDMDL
MODEL 5
REMARK VINA RESULT: -6.976221556      4.012      9.060
REMARK  9 active torsions:
REMARK  status: ('A' for Active; 'I' for Inactive)
REMARK    1  A    between atoms: N1_2  and  C3_4 
REMARK    2  A    between atoms: C4_7  and  N3_8 
REMARK    3  A    between atoms: C7_17  and  N6_18 
REMARK    4  A    between atoms: N6_18  and  C8_20 
REMARK    5  A    between atoms: C8_20  and  C9_21 
REMARK    6  A    between atoms: C9_21  and  N7_22 
REMARK    7  A    between atoms: C9_21  and  C10_26 
REMARK    8  A    between atoms: C10_26  and  S1_27 
REMARK    9  A    between atoms: S1_27  and  C11_28 
ROOT
HETATM    1  C11 UNL     1      37.825  -6.275  -5.678  1.00  0.00     0.061 A 
HETATM    2  C12 UNL     1      36.804  -6.176  -6.502  1.00  0.00     0.139 A 
HETATM    3  C13 UNL     1      36.419  -5.042  -7.289  1.00  0.00     0.107 C 
HETATM    4  N8  UNL     1      36.112  -4.149  -7.934  1.00  0.00    -0.191 NA
HETATM    5  C14 UNL     1      36.070  -7.464  -6.585  1.00  0.00     0.310 A 
HETATM    6  O1  UNL     1      35.054  -7.730  -7.265  1.00  0.00    -0.258 OA
HETATM    7  O2  UNL     1      36.742  -8.316  -5.753  1.00  0.00    -0.273 OA
HETATM    8  C15 UNL     1      37.816  -7.668  -5.170  1.00  0.00     0.100 A 
HETATM    9  C16 UNL     1      38.694  -8.157  -4.317  1.00  0.00    -0.044 A 
HETATM   10  C17 UNL     1      39.881  -8.093  -3.431  1.00  0.00     0.041 A 
HETATM   11  C18 UNL     1      39.168  -9.358  -3.511  1.00  0.00     0.041 A 
ENDROOT
BRANCH   1  12
HETATM   12  S1  UNL     1      39.045  -5.122  -5.246  1.00  0.00    -0.123 SA
BRANCH  12  13
HETATM   13  C10 UNL     1      38.599  -3.553  -4.607  1.00  0.00     0.114 C 
BRANCH  13  14
HETATM   14  C9  UNL     1      38.763  -2.465  -5.615  1.00  0.00     0.210 C 
BRANCH  14  15
HETATM   15  C8  UNL     1      39.729  -2.880  -6.738  1.00  0.00     0.154 C 
BRANCH  15  16
HETATM   16  N6  UNL     1      39.051  -2.567  -7.982  1.00  0.00    -0.373 N 
ATOM     17  H6  UNL     1      38.085  -2.244  -7.929  1.00  0.00     0.161 HD
BRANCH  16  18
HETATM   18  C7  UNL     1      39.580  -2.669  -9.131  1.00  0.00     0.117 A 
HETATM   19  C6  UNL     1      40.935  -2.868  -9.253  1.00  0.00     0.138 A 
HETATM   20  N5  UNL     1      41.527  -2.981 -10.479  1.00  0.00    -0.346 N 
HETATM   21  C5  UNL     1      40.776  -2.897 -11.588  1.00  0.00     0.151 A 
ATOM     22  H5  UNL     1      42.534  -3.127 -10.552  1.00  0.00     0.167 HD
HETATM   23  N4  UNL     1      41.311  -3.003 -12.816  1.00  0.00    -0.174 N 
HETATM   24  C19 UNL     1      39.426  -2.699 -11.483  1.00  0.00     0.123 A 
HETATM   25  C4  UNL     1      40.560  -2.918 -13.927  1.00  0.00     0.679 A 
ATOM     26  H4  UNL     1      42.316  -3.151 -12.907  1.00  0.00     0.186 HD
HETATM   27  N2  UNL     1      39.236  -2.725 -13.823  1.00  0.00    -0.175 N 
HETATM   28  C3  UNL     1      38.653  -2.613 -12.627  1.00  0.00     0.149 A 
ATOM     29  H2  UNL     1      38.668  -2.663 -14.668  1.00  0.00     0.186 HD
HETATM   30  N9  UNL     1      38.849  -2.588 -10.252  1.00  0.00    -0.336 N 
ATOM     31  H9  UNL     1      37.842  -2.440 -10.182  1.00  0.00     0.168 HD
BRANCH  25  32
HETATM   32  N3  UNL     1      41.100  -3.023 -15.111  1.00  0.00    -0.234 N 
ATOM     33  H32 UNL     1      40.911  -2.331 -15.836  1.00  0.00     0.174 HD
ATOM     34  H31 UNL     1      41.721  -3.808 -15.310  1.00  0.00     0.174 HD
ENDBRANCH  25  32
BRANCH  28  35
HETATM   35  N1  UNL     1      37.254  -2.407 -12.477  1.00  0.00    -0.374 N 
HETATM   36  C1  UNL     1      36.694  -1.079 -12.438  1.00  0.00     0.150 C 
HETATM   37  C2  UNL     1      36.391  -3.559 -12.361  1.00  0.00     0.150 C 
ENDBRANCH  28  35
ENDBRANCH  16  18
ENDBRANCH  15  16
ENDBRANCH  14  15
BRANCH  14  38
HETATM   38  N7  UNL     1      37.592  -1.946  -6.202  1.00  0.00    -0.073 N 
ATOM     39  H73 UNL     1      37.770  -1.493  -7.098  1.00  0.00     0.274 HD
ATOM     40  H72 UNL     1      36.966  -2.678  -6.538  1.00  0.00     0.274 HD
ATOM     41  H71 UNL     1      37.143  -1.323  -5.531  1.00  0.00     0.274 HD
ENDBRANCH  14  38
ENDBRANCH  13  14
ENDBRANCH  12  13
ENDBRANCH   1  12
TORSDOF 9
ENDMDL
