MODEL 1
REMARK VINA RESULT: -6.520151139      0.000      0.000
REMARK  9 active torsions:
REMARK  status: ('A' for Active; 'I' for Inactive)
REMARK    1  A    between atoms: C2_2  and  C3_3 
REMARK    2  A    between atoms: C3_3  and  C4_4 
REMARK    3  A    between atoms: C3_3  and  N1_6 
REMARK    4  A    between atoms: N2_10  and  C8_11 
REMARK    5  A    between atoms: C11_14  and  C12_15 
REMARK    6  A    between atoms: C11_14  and  C19_22 
REMARK    7  A    between atoms: C13_16  and  C14_17 
REMARK    8  A    between atoms: C15_18  and  C16_19 
REMARK    9  A    between atoms: C19_22  and  N3_23 
ROOT
HETATM    1  N1  UNL     1      17.213 -12.456  21.165  1.00  0.00    -0.358 N 
HETATM    2  C6  UNL     1      16.991 -11.089  21.347  1.00  0.00     0.162 C 
HETATM    3  C7  UNL     1      15.734 -10.585  20.719  1.00  0.00     0.258 C 
HETATM    4  O1  UNL     1      15.710  -9.495  20.117  1.00  0.00    -0.267 OA
HETATM    5  N2  UNL     1      14.562 -11.407  20.836  1.00  0.00    -0.344 N 
HETATM    6  C10 UNL     1      14.862 -12.792  21.164  1.00  0.00     0.172 C 
HETATM    7  C11 UNL     1      16.216 -13.168  20.510  1.00  0.00     0.129 C 
ENDROOT
BRANCH   7   8
HETATM    8  C12 UNL     1      16.026 -12.754  19.099  1.00  0.00    -0.057 C 
HETATM    9  C13 UNL     1      15.892 -12.416  17.938  1.00  0.00    -0.012 C 
BRANCH   9  10
HETATM   10  C14 UNL     1      15.761 -12.026  16.586  1.00  0.00    -0.015 C 
HETATM   11  C15 UNL     1      15.670 -11.699  15.423  1.00  0.00    -0.088 C 
BRANCH  11  12
HETATM   12  C16 UNL     1      15.580 -11.314  13.997  1.00  0.00     0.066 A 
HETATM   13  C17 UNL     1      14.780 -10.111  13.691  1.00  0.00     0.018 A 
HETATM   14  C18 UNL     1      16.282 -10.030  13.601  1.00  0.00     0.018 A 
ENDBRANCH  11  12
ENDBRANCH   9  10
ENDBRANCH   7   8
BRANCH   7  15
HETATM   15  C19 UNL     1      16.237 -14.657  20.545  1.00  0.00     0.168 C 
BRANCH  15  16
HETATM   16  N3  UNL     1      15.173 -15.251  21.329  1.00  0.00    -0.364 N 
HETATM   17  C20 UNL     1      15.391 -16.186  22.188  1.00  0.00     0.197 C 
HETATM   18  N4  UNL     1      16.730 -16.628  22.349  1.00  0.00    -0.067 NA
HETATM   19  N5  UNL     1      14.379 -16.783  22.964  1.00  0.00    -0.067 NA
ATOM     20  H3  UNL     1      14.218 -14.917  21.195  1.00  0.00     0.161 HD
ENDBRANCH  15  16
ENDBRANCH   7  15
BRANCH   1  21
HETATM   21  C3  UNL     1      18.408 -13.025  21.541  1.00  0.00     0.085 C 
BRANCH  21  22
HETATM   22  C2  UNL     1      18.430 -13.439  22.995  1.00  0.00     0.021 C 
HETATM   23  C1  UNL     1      19.602 -13.012  23.789  1.00  0.00     0.007 C 
ENDBRANCH  21  22
BRANCH  21  24
HETATM   24  C4  UNL     1      19.693 -12.269  21.211  1.00  0.00     0.021 C 
HETATM   25  C5  UNL     1      20.007 -12.268  19.740  1.00  0.00     0.007 C 
ENDBRANCH  21  24
ENDBRANCH   1  21
BRANCH   5  26
HETATM   26  C8  UNL     1      13.250 -10.863  20.638  1.00  0.00     0.122 C 
HETATM   27  C9  UNL     1      12.737 -10.160  21.894  1.00  0.00     0.026 C 
ENDBRANCH   5  26
TORSDOF 9
ENDMDL
MODEL 2
REMARK VINA RESULT: -6.272791467      2.565      6.737
REMARK  9 active torsions:
REMARK  status: ('A' for Active; 'I' for Inactive)
REMARK    1  A    between atoms: C2_2  and  C3_3 
REMARK    2  A    between atoms: C3_3  and  C4_4 
REMARK    3  A    between atoms: C3_3  and  N1_6 
REMARK    4  A    between atoms: N2_10  and  C8_11 
REMARK    5  A    between atoms: C11_14  and  C12_15 
REMARK    6  A    between atoms: C11_14  and  C19_22 
REMARK    7  A    between atoms: C13_16  and  C14_17 
REMARK    8  A    between atoms: C15_18  and  C16_19 
REMARK    9  A    between atoms: C19_22  and  N3_23 
ROOT
HETATM    1  N1  UNL     1      15.391 -11.139  20.455  1.00  0.00    -0.358 N 
HETATM    2  C6  UNL     1      16.088 -11.227  21.662  1.00  0.00     0.162 C 
HETATM    3  C7  UNL     1      17.309 -12.084  21.602  1.00  0.00     0.258 C 
HETATM    4  O1  UNL     1      17.591 -12.865  22.530  1.00  0.00    -0.267 OA
HETATM    5  N2  UNL     1      18.138 -11.970  20.435  1.00  0.00    -0.344 N 
HETATM    6  C10 UNL     1      17.453 -11.370  19.300  1.00  0.00     0.172 C 
HETATM    7  C11 UNL     1      15.958 -11.777  19.360  1.00  0.00     0.129 C 
ENDROOT
BRANCH   7   8
HETATM    8  C12 UNL     1      16.025 -13.250  19.504  1.00  0.00    -0.057 C 
HETATM    9  C13 UNL     1      16.068 -14.458  19.643  1.00  0.00    -0.012 C 
BRANCH   9  10
HETATM   10  C14 UNL     1      16.104 -15.860  19.824  1.00  0.00    -0.015 C 
HETATM   11  C15 UNL     1      16.133 -17.057  20.002  1.00  0.00    -0.088 C 
BRANCH  11  12
HETATM   12  C16 UNL     1      16.159 -18.517  20.244  1.00  0.00     0.066 A 
HETATM   13  C17 UNL     1      15.994 -18.953  21.646  1.00  0.00     0.018 A 
HETATM   14  C18 UNL     1      14.852 -19.150  20.682  1.00  0.00     0.018 A 
ENDBRANCH  11  12
ENDBRANCH   9  10
ENDBRANCH   7   8
BRANCH   7  15
HETATM   15  C19 UNL     1      15.446 -11.479  17.993  1.00  0.00     0.168 C 
BRANCH  15  16
HETATM   16  N3  UNL     1      16.456 -11.023  17.061  1.00  0.00    -0.364 N 
HETATM   17  C20 UNL     1      16.159 -10.394  15.977  1.00  0.00     0.197 C 
HETATM   18  N4  UNL     1      14.785 -10.156  15.713  1.00  0.00    -0.067 NA
HETATM   19  N5  UNL     1      17.118  -9.938  15.052  1.00  0.00    -0.067 NA
ATOM     20  H3  UNL     1      17.438 -11.206  17.271  1.00  0.00     0.161 HD
ENDBRANCH  15  16
ENDBRANCH   7  15
BRANCH   1  21
HETATM   21  C3  UNL     1      14.160 -10.526  20.403  1.00  0.00     0.085 C 
BRANCH  21  22
HETATM   22  C2  UNL     1      14.117  -9.231  21.184  1.00  0.00     0.021 C 
HETATM   23  C1  UNL     1      13.019  -9.085  22.165  1.00  0.00     0.007 C 
ENDBRANCH  21  22
BRANCH  21  24
HETATM   24  C4  UNL     1      12.930 -11.364  20.745  1.00  0.00     0.021 C 
HETATM   25  C5  UNL     1      13.200 -12.381  21.820  1.00  0.00     0.007 C 
ENDBRANCH  21  24
ENDBRANCH   1  21
BRANCH   5  26
HETATM   26  C8  UNL     1      19.499 -12.419  20.443  1.00  0.00     0.122 C 
HETATM   27  C9  UNL     1      20.343 -11.679  19.406  1.00  0.00     0.026 C 
ENDBRANCH   5  26
TORSDOF 9
ENDMDL
MODEL 3
REMARK VINA RESULT: -6.129745688      3.943      6.135
REMARK  9 active torsions:
REMARK  status: ('A' for Active; 'I' for Inactive)
REMARK    1  A    between atoms: C2_2  and  C3_3 
REMARK    2  A    between atoms: C3_3  and  C4_4 
REMARK    3  A    between atoms: C3_3  and  N1_6 
REMARK    4  A    between atoms: N2_10  and  C8_11 
REMARK    5  A    between atoms: C11_14  and  C12_15 
REMARK    6  A    between atoms: C11_14  and  C19_22 
REMARK    7  A    between atoms: C13_16  and  C14_17 
REMARK    8  A    between atoms: C15_18  and  C16_19 
REMARK    9  A    between atoms: C19_22  and  N3_23 
ROOT
HETATM    1  N1  UNL     1      19.514 -14.378  23.577  1.00  0.00    -0.358 N 
HETATM    2  C6  UNL     1      18.749 -15.446  24.054  1.00  0.00     0.162 C 
HETATM    3  C7  UNL     1      17.702 -15.920  23.102  1.00  0.00     0.258 C 
HETATM    4  O1  UNL     1      16.562 -16.223  23.501  1.00  0.00    -0.267 OA
HETATM    5  N2  UNL     1      18.064 -16.010  21.715  1.00  0.00    -0.344 N 
HETATM    6  C10 UNL     1      19.241 -15.224  21.376  1.00  0.00     0.172 C 
HETATM    7  C11 UNL     1      19.263 -13.963  22.277  1.00  0.00     0.129 C 
ENDROOT
BRANCH   7   8
HETATM    8  C12 UNL     1      17.904 -13.401  22.089  1.00  0.00    -0.057 C 
HETATM    9  C13 UNL     1      16.792 -12.938  21.914  1.00  0.00    -0.012 C 
BRANCH   9  10
HETATM   10  C14 UNL     1      15.505 -12.400  21.685  1.00  0.00    -0.015 C 
HETATM   11  C15 UNL     1      14.403 -11.948  21.468  1.00  0.00    -0.088 C 
BRANCH  11  12
HETATM   12  C16 UNL     1      13.054 -11.411  21.181  1.00  0.00     0.066 A 
HETATM   13  C17 UNL     1      11.981 -11.797  22.119  1.00  0.00     0.018 A 
HETATM   14  C18 UNL     1      12.514 -10.388  22.162  1.00  0.00     0.018 A 
ENDBRANCH  11  12
ENDBRANCH   9  10
ENDBRANCH   7   8
BRANCH   7  15
HETATM   15  C19 UNL     1      20.226 -13.050  21.601  1.00  0.00     0.168 C 
BRANCH  15  16
HETATM   16  N3  UNL     1      19.947 -12.817  20.199  1.00  0.00    -0.364 N 
HETATM   17  C20 UNL     1      20.342 -11.756  19.585  1.00  0.00     0.197 C 
HETATM   18  N4  UNL     1      21.074 -10.799  20.336  1.00  0.00    -0.067 NA
HETATM   19  N5  UNL     1      20.087 -11.501  18.223  1.00  0.00    -0.067 NA
ATOM     20  H3  UNL     1      19.419 -13.519  19.679  1.00  0.00     0.161 HD
ENDBRANCH  15  16
ENDBRANCH   7  15
BRANCH   1  21
HETATM   21  C3  UNL     1      20.399 -13.728  24.408  1.00  0.00     0.085 C 
BRANCH  21  22
HETATM   22  C2  UNL     1      21.336 -14.676  25.123  1.00  0.00     0.021 C 
HETATM   23  C1  UNL     1      22.558 -15.076  24.392  1.00  0.00     0.007 C 
ENDBRANCH  21  22
BRANCH  21  24
HETATM   24  C4  UNL     1      19.832 -12.726  25.411  1.00  0.00     0.021 C 
HETATM   25  C5  UNL     1      20.871 -12.211  26.370  1.00  0.00     0.007 C 
ENDBRANCH  21  24
ENDBRANCH   1  21
BRANCH   5  26
HETATM   26  C8  UNL     1      17.305 -16.811  20.799  1.00  0.00     0.122 C 
HETATM   27  C9  UNL     1      16.280 -15.973  20.036  1.00  0.00     0.026 C 
ENDBRANCH   5  26
TORSDOF 9
ENDMDL
MODEL 4
REMARK VINA RESULT: -6.003308117      3.680      5.678
REMARK  9 active torsions:
REMARK  status: ('A' for Active; 'I' for Inactive)
REMARK    1  A    between atoms: C2_2  and  C3_3 
REMARK    2  A    between atoms: C3_3  and  C4_4 
REMARK    3  A    between atoms: C3_3  and  N1_6 
REMARK    4  A    between atoms: N2_10  and  C8_11 
REMARK    5  A    between atoms: C11_14  and  C12_15 
REMARK    6  A    between atoms: C11_14  and  C19_22 
REMARK    7  A    between atoms: C13_16  and  C14_17 
REMARK    8  A    between atoms: C15_18  and  C16_19 
REMARK    9  A    between atoms: C19_22  and  N3_23 
ROOT
HETATM    1  N1  UNL     1      19.457 -15.921  23.140  1.00  0.00    -0.358 N 
HETATM    2  C6  UNL     1      20.561 -15.234  22.631  1.00  0.00     0.162 C 
HETATM    3  C7  UNL     1      20.576 -13.776  22.953  1.00  0.00     0.258 C 
HETATM    4  O1  UNL     1      20.914 -12.934  22.099  1.00  0.00    -0.267 OA
HETATM    5  N2  UNL     1      20.185 -13.389  24.279  1.00  0.00    -0.344 N 
HETATM    6  C10 UNL     1      19.423 -14.415  24.976  1.00  0.00     0.172 C 
HETATM    7  C11 UNL     1      18.579 -15.192  23.932  1.00  0.00     0.129 C 
ENDROOT
BRANCH   7   8
HETATM    8  C12 UNL     1      17.885 -14.107  23.198  1.00  0.00    -0.057 C 
HETATM    9  C13 UNL     1      17.301 -13.232  22.586  1.00  0.00    -0.012 C 
BRANCH   9  10
HETATM   10  C14 UNL     1      16.606 -12.233  21.867  1.00  0.00    -0.015 C 
HETATM   11  C15 UNL     1      15.993 -11.390  21.251  1.00  0.00    -0.088 C 
BRANCH  11  12
HETATM   12  C16 UNL     1      15.221 -10.372  20.503  1.00  0.00     0.066 A 
HETATM   13  C17 UNL     1      13.846 -10.746  20.116  1.00  0.00     0.018 A 
HETATM   14  C18 UNL     1      14.044  -9.752  21.231  1.00  0.00     0.018 A 
ENDBRANCH  11  12
ENDBRANCH   9  10
ENDBRANCH   7   8
BRANCH   7  15
HETATM   15  C19 UNL     1      17.561 -15.910  24.748  1.00  0.00     0.168 C 
BRANCH  15  16
HETATM   16  N3  UNL     1      16.285 -16.091  24.088  1.00  0.00    -0.364 N 
HETATM   17  C20 UNL     1      15.695 -17.235  24.032  1.00  0.00     0.197 C 
HETATM   18  N4  UNL     1      16.344 -18.337  24.648  1.00  0.00    -0.067 NA
HETATM   19  N5  UNL     1      14.454 -17.443  23.398  1.00  0.00    -0.067 NA
ATOM     20  H3  UNL     1      15.837 -15.284  23.652  1.00  0.00     0.161 HD
ENDBRANCH  15  16
ENDBRANCH   7  15
BRANCH   1  21
HETATM   21  C3  UNL     1      19.223 -17.229  22.781  1.00  0.00     0.085 C 
BRANCH  21  22
HETATM   22  C2  UNL     1      20.280 -18.177  23.301  1.00  0.00     0.021 C 
HETATM   23  C1  UNL     1      20.288 -18.426  24.759  1.00  0.00     0.007 C 
ENDBRANCH  21  22
BRANCH  21  24
HETATM   24  C4  UNL     1      18.955 -17.528  21.308  1.00  0.00     0.021 C 
HETATM   25  C5  UNL     1      17.614 -17.025  20.846  1.00  0.00     0.007 C 
ENDBRANCH  21  24
ENDBRANCH   1  21
BRANCH   5  26
HETATM   26  C8  UNL     1      20.537 -12.107  24.814  1.00  0.00     0.122 C 
HETATM   27  C9  UNL     1      20.805 -12.178  26.317  1.00  0.00     0.026 C 
ENDBRANCH   5  26
TORSDOF 9
ENDMDL
MODEL 5
REMARK VINA RESULT: -6.001429335      2.171      6.926
REMARK  9 active torsions:
REMARK  status: ('A' for Active; 'I' for Inactive)
REMARK    1  A    between atoms: C2_2  and  C3_3 
REMARK    2  A    between atoms: C3_3  and  C4_4 
REMARK    3  A    between atoms: C3_3  and  N1_6 
REMARK    4  A    between atoms: N2_10  and  C8_11 
REMARK    5  A    between atoms: C11_14  and  C12_15 
REMARK    6  A    between atoms: C11_14  and  C19_22 
REMARK    7  A    between atoms: C13_16  and  C14_17 
REMARK    8  A    between atoms: C15_18  and  C16_19 
REMARK    9  A    between atoms: C19_22  and  N3_23 
ROOT
HETATM    1  N1  UNL     1      15.778 -13.078  19.897  1.00  0.00    -0.358 N 
HETATM    2  C6  UNL     1      16.248 -14.339  19.521  1.00  0.00     0.162 C 
HETATM    3  C7  UNL     1      16.373 -15.306  20.652  1.00  0.00     0.258 C 
HETATM    4  O1  UNL     1      17.356 -16.065  20.740  1.00  0.00    -0.267 OA
HETATM    5  N2  UNL     1      15.319 -15.321  21.627  1.00  0.00    -0.344 N 
HETATM    6  C10 UNL     1      14.509 -14.112  21.617  1.00  0.00     0.172 C 
HETATM    7  C11 UNL     1      15.418 -12.918  21.229  1.00  0.00     0.129 C 
ENDROOT
BRANCH   7   8
HETATM    8  C12 UNL     1      16.557 -13.052  22.168  1.00  0.00    -0.057 C 
HETATM    9  C13 UNL     1      17.495 -13.140  22.938  1.00  0.00    -0.012 C 
BRANCH   9  10
HETATM   10  C14 UNL     1      18.587 -13.218  23.833  1.00  0.00    -0.015 C 
HETATM   11  C15 UNL     1      19.527 -13.262  24.595  1.00  0.00    -0.088 C 
BRANCH  11  12
HETATM   12  C16 UNL     1      20.677 -13.290  25.525  1.00  0.00     0.066 A 
HETATM   13  C17 UNL     1      21.770 -12.336  25.247  1.00  0.00     0.018 A 
HETATM   14  C18 UNL     1      20.854 -12.074  26.414  1.00  0.00     0.018 A 
ENDBRANCH  11  12
ENDBRANCH   9  10
ENDBRANCH   7   8
BRANCH   7  15
HETATM   15  C19 UNL     1      14.635 -11.718  21.636  1.00  0.00     0.168 C 
BRANCH  15  16
HETATM   16  N3  UNL     1      13.254 -11.991  21.974  1.00  0.00    -0.364 N 
HETATM   17  C20 UNL     1      12.448 -11.069  22.374  1.00  0.00     0.197 C 
HETATM   18  N4  UNL     1      12.961  -9.750  22.478  1.00  0.00    -0.067 NA
HETATM   19  N5  UNL     1      11.100 -11.304  22.710  1.00  0.00    -0.067 NA
ATOM     20  H3  UNL     1      12.907 -12.947  21.892  1.00  0.00     0.161 HD
ENDBRANCH  15  16
ENDBRANCH   7  15
BRANCH   1  21
HETATM   21  C3  UNL     1      15.773 -12.038  18.995  1.00  0.00     0.085 C 
BRANCH  21  22
HETATM   22  C2  UNL     1      15.756 -12.509  17.558  1.00  0.00     0.021 C 
HETATM   23  C1  UNL     1      15.704 -11.459  16.517  1.00  0.00     0.007 C 
ENDBRANCH  21  22
BRANCH  21  24
HETATM   24  C4  UNL     1      16.829 -10.947  19.158  1.00  0.00     0.021 C 
HETATM   25  C5  UNL     1      18.211 -11.502  19.370  1.00  0.00     0.007 C 
ENDBRANCH  21  24
ENDBRANCH   1  21
BRANCH   5  26
HETATM   26  C8  UNL     1      15.129 -16.443  22.499  1.00  0.00     0.122 C 
HETATM   27  C9  UNL     1      14.237 -17.507  21.861  1.00  0.00     0.026 C 
ENDBRANCH   5  26
TORSDOF 9
ENDMDL
