MODEL 1
REMARK VINA RESULT: -7.211056133      0.000      0.000
REMARK  7 active torsions:
REMARK  status: ('A' for Active; 'I' for Inactive)
REMARK    1  A    between atoms: C2_2  and  C3_3 
REMARK    2  A    between atoms: C3_3  and  N1_4 
REMARK    3  A    between atoms: N1_4  and  C4_5 
REMARK    4  A    between atoms: C4_5  and  C5_6 
REMARK    5  A    between atoms: C6_7  and  C7_8 
REMARK    6  A    between atoms: C8_9  and  O1_10 
REMARK    7  A    between atoms: N3_14  and  C9_15 
ROOT
HETATM    1  C7  UNL     1      17.417 -12.741  20.937  1.00  0.00     0.159 C 
HETATM    2  C8  UNL     1      16.183 -12.495  21.817  1.00  0.00     0.259 C 
HETATM    3  N2  UNL     1      15.867 -11.092  21.877  1.00  0.00    -0.307 N 
ATOM      4  H2  UNL     1      16.371 -10.447  22.484  1.00  0.00     0.183 HD
HETATM    5  N3  UNL     1      14.841 -10.680  21.062  1.00  0.00    -0.317 N 
HETATM    6  C12 UNL     1      14.888 -11.142  19.712  1.00  0.00     0.245 C 
HETATM    7  C13 UNL     1      16.293 -11.137  19.253  1.00  0.00     0.239 C 
HETATM    8  O2  UNL     1      16.594 -10.410  18.279  1.00  0.00    -0.271 OA
HETATM    9  N4  UNL     1      17.378 -11.869  19.783  1.00  0.00    -0.343 N 
HETATM   10  C14 UNL     1      18.630 -11.735  19.084  1.00  0.00     0.153 C 
ENDROOT
BRANCH   1  11
HETATM   11  C6  UNL     1      18.636 -12.425  21.723  1.00  0.00     0.000 C 
HETATM   12  C5  UNL     1      19.544 -13.348  22.031  1.00  0.00    -0.001 C 
BRANCH  12  13
HETATM   13  C4  UNL     1      20.753 -13.055  22.805  1.00  0.00     0.264 C 
BRANCH  13  14
HETATM   14  N1  UNL     1      20.954 -13.940  23.949  1.00  0.00    -0.064 N 
HETATM   15  C15 UNL     1      21.754 -15.065  23.490  1.00  0.00     0.238 C 
HETATM   16  C16 UNL     1      22.074 -16.019  24.614  1.00  0.00     0.028 C 
HETATM   17  C17 UNL     1      20.965 -16.221  25.587  1.00  0.00     0.003 C 
HETATM   18  C18 UNL     1      19.665 -15.754  25.041  1.00  0.00     0.028 C 
HETATM   19  C19 UNL     1      19.680 -14.451  24.327  1.00  0.00     0.238 C 
BRANCH  14  20
HETATM   20  C3  UNL     1      21.705 -13.236  24.916  1.00  0.00     0.237 C 
BRANCH  20  21
HETATM   21  C2  UNL     1      21.167 -11.936  25.392  1.00  0.00     0.023 C 
HETATM   22  C1  UNL     1      20.788 -12.048  26.857  1.00  0.00     0.007 C 
ENDBRANCH  20  21
ENDBRANCH  14  20
ENDBRANCH  13  14
ENDBRANCH  12  13
ENDBRANCH   1  11
BRANCH   2  23
HETATM   23  O1  UNL     1      16.556 -12.901  23.100  1.00  0.00    -0.373 OA
ATOM     24  H1  UNL     1      16.993 -13.737  22.982  1.00  0.00     0.212 HD
ENDBRANCH   2  23
BRANCH   5  25
HETATM   25  C9  UNL     1      13.564 -10.608  21.651  1.00  0.00     0.094 C 
HETATM   26  C10 UNL     1      12.583 -11.661  21.130  1.00  0.00     0.033 C 
HETATM   27  C11 UNL     1      12.887  -9.277  21.573  1.00  0.00     0.033 C 
ENDBRANCH   5  25
TORSDOF 7
ENDMDL
MODEL 2
REMARK VINA RESULT: -7.196512291      1.170      2.358
REMARK  7 active torsions:
REMARK  status: ('A' for Active; 'I' for Inactive)
REMARK    1  A    between atoms: C2_2  and  C3_3 
REMARK    2  A    between atoms: C3_3  and  N1_4 
REMARK    3  A    between atoms: N1_4  and  C4_5 
REMARK    4  A    between atoms: C4_5  and  C5_6 
REMARK    5  A    between atoms: C6_7  and  C7_8 
REMARK    6  A    between atoms: C8_9  and  O1_10 
REMARK    7  A    between atoms: N3_14  and  C9_15 
ROOT
HETATM    1  C7  UNL     1      16.462 -12.662  20.549  1.00  0.00     0.159 C 
HETATM    2  C8  UNL     1      15.488 -12.423  21.713  1.00  0.00     0.259 C 
HETATM    3  N2  UNL     1      15.123 -11.034  21.800  1.00  0.00    -0.307 N 
ATOM      4  H2  UNL     1      15.732 -10.337  22.227  1.00  0.00     0.183 HD
HETATM    5  N3  UNL     1      13.899 -10.708  21.268  1.00  0.00    -0.317 N 
HETATM    6  C12 UNL     1      13.618 -11.236  19.972  1.00  0.00     0.245 C 
HETATM    7  C13 UNL     1      14.852 -11.196  19.159  1.00  0.00     0.239 C 
HETATM    8  O2  UNL     1      14.849 -10.507  18.113  1.00  0.00    -0.271 OA
HETATM    9  N4  UNL     1      16.076 -11.853  19.413  1.00  0.00    -0.343 N 
HETATM   10  C14 UNL     1      17.093 -11.702  18.405  1.00  0.00     0.153 C 
ENDROOT
BRANCH   1  11
HETATM   11  C6  UNL     1      17.825 -12.255  20.974  1.00  0.00     0.000 C 
HETATM   12  C5  UNL     1      18.746 -13.137  21.354  1.00  0.00    -0.001 C 
BRANCH  12  13
HETATM   13  C4  UNL     1      20.095 -12.753  21.776  1.00  0.00     0.264 C 
BRANCH  13  14
HETATM   14  N1  UNL     1      20.440 -13.188  23.126  1.00  0.00    -0.064 N 
HETATM   15  C15 UNL     1      19.654 -12.387  24.052  1.00  0.00     0.238 C 
HETATM   16  C16 UNL     1      19.889 -12.797  25.485  1.00  0.00     0.028 C 
HETATM   17  C17 UNL     1      21.299 -13.158  25.801  1.00  0.00     0.003 C 
HETATM   18  C18 UNL     1      22.236 -12.671  24.755  1.00  0.00     0.028 C 
HETATM   19  C19 UNL     1      21.810 -12.866  23.346  1.00  0.00     0.238 C 
BRANCH  14  20
HETATM   20  C3  UNL     1      20.040 -14.535  23.266  1.00  0.00     0.237 C 
BRANCH  20  21
HETATM   21  C2  UNL     1      21.042 -15.585  22.954  1.00  0.00     0.023 C 
HETATM   22  C1  UNL     1      21.198 -16.509  24.148  1.00  0.00     0.007 C 
ENDBRANCH  20  21
ENDBRANCH  14  20
ENDBRANCH  13  14
ENDBRANCH  12  13
ENDBRANCH   1  11
BRANCH   2  23
HETATM   23  O1  UNL     1      16.205 -12.747  22.866  1.00  0.00    -0.373 OA
ATOM     24  H1  UNL     1      15.779 -13.519  23.219  1.00  0.00     0.212 HD
ENDBRANCH   2  23
BRANCH   5  25
HETATM   25  C9  UNL     1      12.818 -10.660  22.169  1.00  0.00     0.094 C 
HETATM   26  C10 UNL     1      11.854 -11.842  22.039  1.00  0.00     0.033 C 
HETATM   27  C11 UNL     1      12.006  -9.404  22.143  1.00  0.00     0.033 C 
ENDBRANCH   5  25
TORSDOF 7
ENDMDL
MODEL 3
REMARK VINA RESULT: -6.766327170      1.412      2.595
REMARK  7 active torsions:
REMARK  status: ('A' for Active; 'I' for Inactive)
REMARK    1  A    between atoms: C2_2  and  C3_3 
REMARK    2  A    between atoms: C3_3  and  N1_4 
REMARK    3  A    between atoms: N1_4  and  C4_5 
REMARK    4  A    between atoms: C4_5  and  C5_6 
REMARK    5  A    between atoms: C6_7  and  C7_8 
REMARK    6  A    between atoms: C8_9  and  O1_10 
REMARK    7  A    between atoms: N3_14  and  C9_15 
ROOT
HETATM    1  C7  UNL     1      16.872 -13.891  20.688  1.00  0.00     0.159 C 
HETATM    2  C8  UNL     1      15.404 -13.598  21.030  1.00  0.00     0.259 C 
HETATM    3  N2  UNL     1      15.302 -12.500  21.955  1.00  0.00    -0.307 N 
ATOM      4  H2  UNL     1      15.464 -12.615  22.955  1.00  0.00     0.183 HD
HETATM    5  N3  UNL     1      14.973 -11.287  21.401  1.00  0.00    -0.317 N 
HETATM    6  C12 UNL     1      15.703 -10.912  20.233  1.00  0.00     0.245 C 
HETATM    7  C13 UNL     1      17.109 -11.336  20.390  1.00  0.00     0.239 C 
HETATM    8  O2  UNL     1      17.998 -10.454  20.377  1.00  0.00    -0.271 OA
HETATM    9  N4  UNL     1      17.603 -12.650  20.555  1.00  0.00    -0.343 N 
HETATM   10  C14 UNL     1      19.036 -12.784  20.602  1.00  0.00     0.153 C 
ENDROOT
BRANCH   1  11
HETATM   11  C6  UNL     1      17.474 -14.675  21.796  1.00  0.00     0.000 C 
HETATM   12  C5  UNL     1      18.058 -14.095  22.842  1.00  0.00    -0.001 C 
BRANCH  12  13
HETATM   13  C4  UNL     1      18.657 -14.852  23.945  1.00  0.00     0.264 C 
BRANCH  13  14
HETATM   14  N1  UNL     1      19.866 -14.245  24.493  1.00  0.00    -0.064 N 
HETATM   15  C15 UNL     1      19.476 -12.991  25.119  1.00  0.00     0.238 C 
HETATM   16  C16 UNL     1      20.649 -12.304  25.774  1.00  0.00     0.028 C 
HETATM   17  C17 UNL     1      21.928 -12.411  25.019  1.00  0.00     0.003 C 
HETATM   18  C18 UNL     1      21.700 -12.828  23.612  1.00  0.00     0.028 C 
HETATM   19  C19 UNL     1      20.721 -13.925  23.400  1.00  0.00     0.238 C 
BRANCH  14  20
HETATM   20  C3  UNL     1      20.364 -15.100  25.501  1.00  0.00     0.237 C 
BRANCH  20  21
HETATM   21  C2  UNL     1      21.310 -16.168  25.092  1.00  0.00     0.023 C 
HETATM   22  C1  UNL     1      22.597 -16.039  25.886  1.00  0.00     0.007 C 
ENDBRANCH  20  21
ENDBRANCH  14  20
ENDBRANCH  13  14
ENDBRANCH  12  13
ENDBRANCH   1  11
BRANCH   2  23
HETATM   23  O1  UNL     1      14.939 -14.743  21.678  1.00  0.00    -0.373 OA
ATOM     24  H1  UNL     1      14.577 -14.437  22.502  1.00  0.00     0.212 HD
ENDBRANCH   2  23
BRANCH   5  25
HETATM   25  C9  UNL     1      13.609 -10.938  21.422  1.00  0.00     0.094 C 
HETATM   26  C10 UNL     1      13.341  -9.523  21.939  1.00  0.00     0.033 C 
HETATM   27  C11 UNL     1      12.710 -11.874  22.167  1.00  0.00     0.033 C 
ENDBRANCH   5  25
TORSDOF 7
ENDMDL
MODEL 4
REMARK VINA RESULT: -6.649536274      2.035      3.456
REMARK  7 active torsions:
REMARK  status: ('A' for Active; 'I' for Inactive)
REMARK    1  A    between atoms: C2_2  and  C3_3 
REMARK    2  A    between atoms: C3_3  and  N1_4 
REMARK    3  A    between atoms: N1_4  and  C4_5 
REMARK    4  A    between atoms: C4_5  and  C5_6 
REMARK    5  A    between atoms: C6_7  and  C7_8 
REMARK    6  A    between atoms: C8_9  and  O1_10 
REMARK    7  A    between atoms: N3_14  and  C9_15 
ROOT
HETATM    1  C7  UNL     1      14.647 -12.166  20.521  1.00  0.00     0.159 C 
HETATM    2  C8  UNL     1      13.387 -12.151  21.398  1.00  0.00     0.259 C 
HETATM    3  N2  UNL     1      13.520 -11.202  22.472  1.00  0.00    -0.307 N 
ATOM      4  H2  UNL     1      14.050 -11.409  23.318  1.00  0.00     0.183 HD
HETATM    5  N3  UNL     1      12.887  -9.997  22.282  1.00  0.00    -0.317 N 
HETATM    6  C12 UNL     1      13.092  -9.375  21.014  1.00  0.00     0.245 C 
HETATM    7  C13 UNL     1      14.493  -9.588  20.596  1.00  0.00     0.239 C 
HETATM    8  O2  UNL     1      15.219  -8.582  20.424  1.00  0.00    -0.271 OA
HETATM    9  N4  UNL     1      15.146 -10.818  20.355  1.00  0.00    -0.343 N 
HETATM   10  C14 UNL     1      16.500 -10.729  19.875  1.00  0.00     0.153 C 
ENDROOT
BRANCH   1  11
HETATM   11  C6  UNL     1      15.693 -12.972  21.201  1.00  0.00     0.000 C 
HETATM   12  C5  UNL     1      16.690 -13.551  20.536  1.00  0.00    -0.001 C 
BRANCH  12  13
HETATM   13  C4  UNL     1      17.730 -14.350  21.190  1.00  0.00     0.264 C 
BRANCH  13  14
HETATM   14  N1  UNL     1      18.613 -13.577  22.059  1.00  0.00    -0.064 N 
HETATM   15  C15 UNL     1      19.762 -14.415  22.363  1.00  0.00     0.238 C 
HETATM   16  C16 UNL     1      20.775 -13.688  23.213  1.00  0.00     0.028 C 
HETATM   17  C17 UNL     1      20.186 -12.800  24.252  1.00  0.00     0.003 C 
HETATM   18  C18 UNL     1      18.752 -13.109  24.489  1.00  0.00     0.028 C 
HETATM   19  C19 UNL     1      17.921 -13.346  23.281  1.00  0.00     0.238 C 
BRANCH  14  20
HETATM   20  C3  UNL     1      19.071 -12.458  21.328  1.00  0.00     0.237 C 
BRANCH  20  21
HETATM   21  C2  UNL     1      19.985 -12.710  20.187  1.00  0.00     0.023 C 
HETATM   22  C1  UNL     1      20.449 -11.387  19.604  1.00  0.00     0.007 C 
ENDBRANCH  20  21
ENDBRANCH  14  20
ENDBRANCH  13  14
ENDBRANCH  12  13
ENDBRANCH   1  11
BRANCH   2  23
HETATM   23  O1  UNL     1      13.314 -13.424  21.965  1.00  0.00    -0.373 OA
ATOM     24  H1  UNL     1      14.002 -13.927  21.543  1.00  0.00     0.212 HD
ENDBRANCH   2  23
BRANCH   5  25
HETATM   25  C9  UNL     1      11.598  -9.873  22.836  1.00  0.00     0.094 C 
HETATM   26  C10 UNL     1      11.456  -8.702  23.811  1.00  0.00     0.033 C 
HETATM   27  C11 UNL     1      11.060 -11.096  23.509  1.00  0.00     0.033 C 
ENDBRANCH   5  25
TORSDOF 7
ENDMDL
MODEL 5
REMARK VINA RESULT: -6.568153239      0.856      1.935
REMARK  7 active torsions:
REMARK  status: ('A' for Active; 'I' for Inactive)
REMARK    1  A    between atoms: C2_2  and  C3_3 
REMARK    2  A    between atoms: C3_3  and  N1_4 
REMARK    3  A    between atoms: N1_4  and  C4_5 
REMARK    4  A    between atoms: C4_5  and  C5_6 
REMARK    5  A    between atoms: C6_7  and  C7_8 
REMARK    6  A    between atoms: C8_9  and  O1_10 
REMARK    7  A    between atoms: N3_14  and  C9_15 
ROOT
HETATM    1  C7  UNL     1      17.312 -12.518  20.781  1.00  0.00     0.159 C 
HETATM    2  C8  UNL     1      15.995 -12.286  21.537  1.00  0.00     0.259 C 
HETATM    3  N2  UNL     1      15.595 -10.906  21.460  1.00  0.00    -0.307 N 
ATOM      4  H2  UNL     1      16.008 -10.187  22.053  1.00  0.00     0.183 HD
HETATM    5  N3  UNL     1      14.620 -10.622  20.535  1.00  0.00    -0.317 N 
HETATM    6  C12 UNL     1      14.809 -11.178  19.234  1.00  0.00     0.245 C 
HETATM    7  C13 UNL     1      16.245 -11.117  18.891  1.00  0.00     0.239 C 
HETATM    8  O2  UNL     1      16.586 -10.446  17.890  1.00  0.00    -0.271 OA
HETATM    9  N4  UNL     1      17.322 -11.737  19.563  1.00  0.00    -0.343 N 
HETATM   10  C14 UNL     1      18.619 -11.576  18.959  1.00  0.00     0.153 C 
ENDROOT
BRANCH   1  11
HETATM   11  C6  UNL     1      18.439 -12.067  21.636  1.00  0.00     0.000 C 
HETATM   12  C5  UNL     1      19.478 -12.851  21.916  1.00  0.00    -0.001 C 
BRANCH  12  13
HETATM   13  C4  UNL     1      20.599 -12.423  22.757  1.00  0.00     0.264 C 
BRANCH  13  14
HETATM   14  N1  UNL     1      20.713 -13.160  24.012  1.00  0.00    -0.064 N 
HETATM   15  C15 UNL     1      21.433 -12.310  24.948  1.00  0.00     0.238 C 
HETATM   16  C16 UNL     1      21.556 -12.953  26.307  1.00  0.00     0.028 C 
HETATM   17  C17 UNL     1      21.796 -14.423  26.275  1.00  0.00     0.003 C 
HETATM   18  C18 UNL     1      22.247 -14.875  24.934  1.00  0.00     0.028 C 
HETATM   19  C19 UNL     1      21.525 -14.304  23.768  1.00  0.00     0.238 C 
BRANCH  14  20
HETATM   20  C3  UNL     1      19.410 -13.360  24.519  1.00  0.00     0.237 C 
BRANCH  20  21
HETATM   21  C2  UNL     1      18.793 -14.696  24.319  1.00  0.00     0.023 C 
HETATM   22  C1  UNL     1      17.782 -14.959  25.420  1.00  0.00     0.007 C 
ENDBRANCH  20  21
ENDBRANCH  14  20
ENDBRANCH  13  14
ENDBRANCH  12  13
ENDBRANCH   1  11
BRANCH   2  23
HETATM   23  O1  UNL     1      16.280 -12.572  22.873  1.00  0.00    -0.373 OA
ATOM     24  H1  UNL     1      15.788 -13.360  23.073  1.00  0.00     0.212 HD
ENDBRANCH   2  23
BRANCH   5  25
HETATM   25  C9  UNL     1      13.295 -10.588  21.011  1.00  0.00     0.094 C 
HETATM   26  C10 UNL     1      13.048  -9.511  22.071  1.00  0.00     0.033 C 
HETATM   27  C11 UNL     1      12.762 -11.881  21.541  1.00  0.00     0.033 C 
ENDBRANCH   5  25
TORSDOF 7
ENDMDL
