MODEL 1
REMARK VINA RESULT: -8.201282689      0.000      0.000
REMARK  4 active torsions:
REMARK  status: ('A' for Active; 'I' for Inactive)
REMARK    1  A    between atoms: N2_9  and  C6_10 
REMARK    2  A    between atoms: C6_10  and  C7_11 
REMARK    3  A    between atoms: N3_21  and  C16_22 
REMARK    4  A    between atoms: C16_22  and  C17_23 
ROOT
HETATM    1  O1  UNL     1      33.152  -7.805  -8.669  1.00  0.00    -0.247 OA
HETATM    2  C1  UNL     1      31.987  -7.537  -8.245  1.00  0.00     0.326 A 
HETATM    3  N1  UNL     1      31.308  -6.289  -8.260  1.00  0.00    -0.324 N 
ATOM      4  H1  UNL     1      31.704  -5.417  -8.611  1.00  0.00     0.165 HD
HETATM    5  C2  UNL     1      29.991  -6.425  -7.714  1.00  0.00     0.117 A 
HETATM    6  C3  UNL     1      29.772  -5.604  -6.477  1.00  0.00     0.042 C 
HETATM    7  C4  UNL     1      29.551  -4.153  -6.754  1.00  0.00     0.023 C 
HETATM    8  C5  UNL     1      28.246  -3.926  -7.536  1.00  0.00     0.122 C 
HETATM    9  N2  UNL     1      28.447  -3.870  -8.915  1.00  0.00    -0.393 N 
HETATM   10  C13 UNL     1      29.104  -4.960  -9.551  1.00  0.00     0.125 C 
HETATM   11  C14 UNL     1      28.919  -6.208  -8.759  1.00  0.00     0.061 C 
HETATM   12  C15 UNL     1      29.931  -7.851  -7.306  1.00  0.00     0.256 A 
HETATM   13  O2  UNL     1      28.910  -8.346  -6.730  1.00  0.00    -0.270 OA
HETATM   14  N3  UNL     1      31.135  -8.494  -7.657  1.00  0.00    -0.264 N 
ENDROOT
BRANCH  14  15
HETATM   15  C16 UNL     1      31.399  -9.901  -7.430  1.00  0.00     0.178 C 
BRANCH  15  16
HETATM   16  C17 UNL     1      30.967 -10.716  -8.607  1.00  0.00    -0.006 A 
HETATM   17  C18 UNL     1      29.702 -11.062  -9.005  1.00  0.00     0.117 A 
HETATM   18  N4  UNL     1      29.841 -11.794 -10.108  1.00  0.00    -0.312 N 
HETATM   19  N5  UNL     1      31.097 -11.941 -10.447  1.00  0.00    -0.312 N 
ATOM     20  H4  UNL     1      29.060 -12.193 -10.628  1.00  0.00     0.186 HD
HETATM   21  C19 UNL     1      31.821 -11.279  -9.527  1.00  0.00     0.117 A 
ATOM     22  H5  UNL     1      31.455 -12.457 -11.250  1.00  0.00     0.186 HD
ENDBRANCH  15  16
ENDBRANCH  14  15
BRANCH   9  23
HETATM   23  C6  UNL     1      27.901  -2.897  -9.745  1.00  0.00     0.062 C 
BRANCH  23  24
HETATM   24  C7  UNL     1      26.465  -3.090 -10.116  1.00  0.00     0.024 C 
HETATM   25  C8  UNL     1      25.689  -1.840  -9.709  1.00  0.00     0.010 C 
HETATM   26  C9  UNL     1      24.720  -2.129  -8.582  1.00  0.00     0.001 C 
HETATM   27  C10 UNL     1      23.684  -3.154  -8.994  1.00  0.00     0.000 C 
HETATM   28  C11 UNL     1      24.316  -4.291  -9.763  1.00  0.00     0.001 C 
HETATM   29  C12 UNL     1      25.833  -4.306  -9.525  1.00  0.00     0.010 C 
ENDBRANCH  23  24
ENDBRANCH   9  23
TORSDOF 4
ENDMDL
MODEL 2
REMARK VINA RESULT: -8.197332657      1.254      1.772
REMARK  4 active torsions:
REMARK  status: ('A' for Active; 'I' for Inactive)
REMARK    1  A    between atoms: N2_9  and  C6_10 
REMARK    2  A    between atoms: C6_10  and  C7_11 
REMARK    3  A    between atoms: N3_21  and  C16_22 
REMARK    4  A    between atoms: C16_22  and  C17_23 
ROOT
HETATM    1  O1  UNL     1      33.152  -8.137 -11.042  1.00  0.00    -0.247 OA
HETATM    2  C1  UNL     1      32.463  -7.706 -10.067  1.00  0.00     0.326 A 
HETATM    3  N1  UNL     1      31.842  -6.437  -9.918  1.00  0.00    -0.324 N 
ATOM      4  H1  UNL     1      31.897  -5.680 -10.600  1.00  0.00     0.165 HD
HETATM    5  C2  UNL     1      31.128  -6.368  -8.678  1.00  0.00     0.117 A 
HETATM    6  C3  UNL     1      31.651  -5.311  -7.749  1.00  0.00     0.042 C 
HETATM    7  C4  UNL     1      31.225  -3.928  -8.118  1.00  0.00     0.023 C 
HETATM    8  C5  UNL     1      29.702  -3.758  -7.987  1.00  0.00     0.122 C 
HETATM    9  N2  UNL     1      29.030  -3.983  -9.188  1.00  0.00    -0.393 N 
HETATM   10  C13 UNL     1      29.234  -5.219  -9.861  1.00  0.00     0.125 C 
HETATM   11  C14 UNL     1      29.633  -6.276  -8.889  1.00  0.00     0.061 C 
HETATM   12  C15 UNL     1      31.407  -7.682  -8.044  1.00  0.00     0.256 A 
HETATM   13  O2  UNL     1      30.968  -7.980  -6.888  1.00  0.00    -0.270 OA
HETATM   14  N3  UNL     1      32.192  -8.467  -8.912  1.00  0.00    -0.264 N 
ENDROOT
BRANCH  14  15
HETATM   15  C16 UNL     1      32.619  -9.820  -8.616  1.00  0.00     0.178 C 
BRANCH  15  16
HETATM   16  C17 UNL     1      31.692 -10.814  -9.238  1.00  0.00    -0.006 A 
HETATM   17  C18 UNL     1      31.971 -11.835 -10.108  1.00  0.00     0.117 A 
HETATM   18  N4  UNL     1      30.812 -12.434 -10.373  1.00  0.00    -0.312 N 
HETATM   19  N5  UNL     1      29.813 -11.875  -9.739  1.00  0.00    -0.312 N 
ATOM     20  H4  UNL     1      30.715 -13.234 -10.998  1.00  0.00     0.186 HD
HETATM   21  C19 UNL     1      30.333 -10.861  -9.023  1.00  0.00     0.117 A 
ATOM     22  H5  UNL     1      28.833 -12.154  -9.779  1.00  0.00     0.186 HD
ENDBRANCH  15  16
ENDBRANCH  14  15
BRANCH   9  23
HETATM   23  C6  UNL     1      28.040  -3.149  -9.697  1.00  0.00     0.062 C 
BRANCH  23  24
HETATM   24  C7  UNL     1      26.768  -3.094  -8.911  1.00  0.00     0.024 C 
HETATM   25  C8  UNL     1      25.957  -4.351  -9.217  1.00  0.00     0.010 C 
HETATM   26  C9  UNL     1      24.691  -4.023  -9.980  1.00  0.00     0.001 C 
HETATM   27  C10 UNL     1      23.781  -3.117  -9.177  1.00  0.00     0.000 C 
HETATM   28  C11 UNL     1      24.565  -2.018  -8.497  1.00  0.00     0.001 C 
HETATM   29  C12 UNL     1      25.945  -1.874  -9.156  1.00  0.00     0.010 C 
ENDBRANCH  23  24
ENDBRANCH   9  23
TORSDOF 4
ENDMDL
MODEL 3
REMARK VINA RESULT: -8.158144650      3.297      3.909
REMARK  4 active torsions:
REMARK  status: ('A' for Active; 'I' for Inactive)
REMARK    1  A    between atoms: N2_9  and  C6_10 
REMARK    2  A    between atoms: C6_10  and  C7_11 
REMARK    3  A    between atoms: N3_21  and  C16_22 
REMARK    4  A    between atoms: C16_22  and  C17_23 
ROOT
HETATM    1  O1  UNL     1      32.228  -3.713 -13.437  1.00  0.00    -0.247 OA
HETATM    2  C1  UNL     1      31.845  -4.267 -12.361  1.00  0.00     0.326 A 
HETATM    3  N1  UNL     1      31.139  -3.689 -11.273  1.00  0.00    -0.324 N 
ATOM      4  H1  UNL     1      30.863  -2.708 -11.216  1.00  0.00     0.165 HD
HETATM    5  C2  UNL     1      30.869  -4.673 -10.267  1.00  0.00     0.117 A 
HETATM    6  C3  UNL     1      31.518  -4.368  -8.948  1.00  0.00     0.042 C 
HETATM    7  C4  UNL     1      30.809  -3.312  -8.164  1.00  0.00     0.023 C 
HETATM    8  C5  UNL     1      29.405  -3.778  -7.742  1.00  0.00     0.122 C 
HETATM    9  N2  UNL     1      28.414  -3.381  -8.638  1.00  0.00    -0.393 N 
HETATM   10  C13 UNL     1      28.553  -3.737 -10.008  1.00  0.00     0.125 C 
HETATM   11  C14 UNL     1      29.391  -4.962 -10.140  1.00  0.00     0.061 C 
HETATM   12  C15 UNL     1      31.518  -5.898 -10.799  1.00  0.00     0.256 A 
HETATM   13  O2  UNL     1      31.528  -6.992 -10.149  1.00  0.00    -0.270 OA
HETATM   14  N3  UNL     1      32.075  -5.626 -12.064  1.00  0.00    -0.264 N 
ENDROOT
BRANCH  14  15
HETATM   15  C16 UNL     1      32.757  -6.613 -12.878  1.00  0.00     0.178 C 
BRANCH  15  16
HETATM   16  C17 UNL     1      31.772  -7.519 -13.544  1.00  0.00    -0.006 A 
HETATM   17  C18 UNL     1      31.480  -8.831 -13.276  1.00  0.00     0.117 A 
HETATM   18  N4  UNL     1      30.537  -9.194 -14.143  1.00  0.00    -0.312 N 
HETATM   19  N5  UNL     1      30.203  -8.215 -14.944  1.00  0.00    -0.312 N 
ATOM     20  H4  UNL     1      30.124 -10.125 -14.178  1.00  0.00     0.186 HD
HETATM   21  C19 UNL     1      30.958  -7.158 -14.594  1.00  0.00     0.117 A 
ATOM     22  H5  UNL     1      29.506  -8.246 -15.688  1.00  0.00     0.186 HD
ENDBRANCH  15  16
ENDBRANCH  14  15
BRANCH   9  23
HETATM   23  C6  UNL     1      27.208  -2.800  -8.262  1.00  0.00     0.062 C 
BRANCH  23  24
HETATM   24  C7  UNL     1      26.096  -2.905  -9.258  1.00  0.00     0.024 C 
HETATM   25  C8  UNL     1      24.958  -1.992  -8.809  1.00  0.00     0.010 C 
HETATM   26  C9  UNL     1      23.738  -2.787  -8.397  1.00  0.00     0.001 C 
HETATM   27  C10 UNL     1      23.194  -3.603  -9.551  1.00  0.00     0.000 C 
HETATM   28  C11 UNL     1      24.311  -4.270 -10.322  1.00  0.00     0.001 C 
HETATM   29  C12 UNL     1      25.592  -4.292  -9.475  1.00  0.00     0.010 C 
ENDBRANCH  23  24
ENDBRANCH   9  23
TORSDOF 4
ENDMDL
MODEL 4
REMARK VINA RESULT: -8.122566820      2.022      3.113
REMARK  4 active torsions:
REMARK  status: ('A' for Active; 'I' for Inactive)
REMARK    1  A    between atoms: N2_9  and  C6_10 
REMARK    2  A    between atoms: C6_10  and  C7_11 
REMARK    3  A    between atoms: N3_21  and  C16_22 
REMARK    4  A    between atoms: C16_22  and  C17_23 
ROOT
HETATM    1  O1  UNL     1      29.926  -9.909  -8.572  1.00  0.00    -0.247 OA
HETATM    2  C1  UNL     1      30.278  -8.698  -8.427  1.00  0.00     0.326 A 
HETATM    3  N1  UNL     1      29.846  -7.560  -9.159  1.00  0.00    -0.324 N 
ATOM      4  H1  UNL     1      29.187  -7.586  -9.938  1.00  0.00     0.165 HD
HETATM    5  C2  UNL     1      30.463  -6.370  -8.652  1.00  0.00     0.117 A 
HETATM    6  C3  UNL     1      31.331  -5.675  -9.660  1.00  0.00     0.042 C 
HETATM    7  C4  UNL     1      30.561  -4.893 -10.673  1.00  0.00     0.023 C 
HETATM    8  C5  UNL     1      29.809  -3.720 -10.020  1.00  0.00     0.122 C 
HETATM    9  N2  UNL     1      28.495  -4.043  -9.684  1.00  0.00    -0.393 N 
HETATM   10  C13 UNL     1      28.264  -5.174  -8.851  1.00  0.00     0.125 C 
HETATM   11  C14 UNL     1      29.459  -5.443  -8.004  1.00  0.00     0.061 C 
HETATM   12  C15 UNL     1      31.359  -6.875  -7.581  1.00  0.00     0.256 A 
HETATM   13  O2  UNL     1      32.119  -6.100  -6.917  1.00  0.00    -0.270 OA
HETATM   14  N3  UNL     1      31.208  -8.270  -7.458  1.00  0.00    -0.264 N 
ENDROOT
BRANCH  14  15
HETATM   15  C16 UNL     1      31.914  -9.078  -6.483  1.00  0.00     0.178 C 
BRANCH  15  16
HETATM   16  C17 UNL     1      33.357  -9.211  -6.853  1.00  0.00    -0.006 A 
HETATM   17  C18 UNL     1      33.926  -9.897  -7.894  1.00  0.00     0.117 A 
HETATM   18  N4  UNL     1      35.240  -9.712  -7.795  1.00  0.00    -0.312 N 
HETATM   19  N5  UNL     1      35.556  -8.960  -6.772  1.00  0.00    -0.312 N 
ATOM     20  H4  UNL     1      35.921 -10.110  -8.441  1.00  0.00     0.186 HD
HETATM   21  C19 UNL     1      34.399  -8.633  -6.166  1.00  0.00     0.117 A 
ATOM     22  H5  UNL     1      36.494  -8.676  -6.489  1.00  0.00     0.186 HD
ENDBRANCH  15  16
ENDBRANCH  14  15
BRANCH   9  23
HETATM   23  C6  UNL     1      27.396  -3.240  -9.968  1.00  0.00     0.062 C 
BRANCH  23  24
HETATM   24  C7  UNL     1      26.094  -3.688  -9.383  1.00  0.00     0.024 C 
HETATM   25  C8  UNL     1      25.441  -4.670 -10.353  1.00  0.00     0.010 C 
HETATM   26  C9  UNL     1      24.180  -4.095 -10.961  1.00  0.00     0.001 C 
HETATM   27  C10 UNL     1      23.141  -3.796  -9.899  1.00  0.00     0.000 C 
HETATM   28  C11 UNL     1      23.769  -3.142  -8.690  1.00  0.00     0.001 C 
HETATM   29  C12 UNL     1      25.151  -2.579  -9.056  1.00  0.00     0.010 C 
ENDBRANCH  23  24
ENDBRANCH   9  23
TORSDOF 4
ENDMDL
MODEL 5
REMARK VINA RESULT: -8.074054257      2.141      3.017
REMARK  4 active torsions:
REMARK  status: ('A' for Active; 'I' for Inactive)
REMARK    1  A    between atoms: N2_9  and  C6_10 
REMARK    2  A    between atoms: C6_10  and  C7_11 
REMARK    3  A    between atoms: N3_21  and  C16_22 
REMARK    4  A    between atoms: C16_22  and  C17_23 
ROOT
HETATM    1  O1  UNL     1      29.493  -9.611  -7.060  1.00  0.00    -0.247 OA
HETATM    2  C1  UNL     1      29.974  -8.437  -7.111  1.00  0.00     0.326 A 
HETATM    3  N1  UNL     1      29.449  -7.297  -7.777  1.00  0.00    -0.324 N 
ATOM      4  H1  UNL     1      28.595  -7.293  -8.336  1.00  0.00     0.165 HD
HETATM    5  C2  UNL     1      30.285  -6.155  -7.555  1.00  0.00     0.117 A 
HETATM    6  C3  UNL     1      30.884  -5.603  -8.816  1.00  0.00     0.042 C 
HETATM    7  C4  UNL     1      29.926  -4.795  -9.629  1.00  0.00     0.023 C 
HETATM    8  C5  UNL     1      29.496  -3.521  -8.882  1.00  0.00     0.122 C 
HETATM    9  N2  UNL     1      28.311  -3.689  -8.167  1.00  0.00    -0.393 N 
HETATM   10  C13 UNL     1      28.232  -4.748  -7.220  1.00  0.00     0.125 C 
HETATM   11  C14 UNL     1      29.592  -5.099  -6.724  1.00  0.00     0.061 C 
HETATM   12  C15 UNL     1      31.404  -6.697  -6.743  1.00  0.00     0.256 A 
HETATM   13  O2  UNL     1      32.386  -5.974  -6.380  1.00  0.00    -0.270 OA
HETATM   14  N3  UNL     1      31.176  -8.061  -6.477  1.00  0.00    -0.264 N 
ENDROOT
BRANCH  14  15
HETATM   15  C16 UNL     1      32.059  -8.890  -5.681  1.00  0.00     0.178 C 
BRANCH  15  16
HETATM   16  C17 UNL     1      33.361  -9.103  -6.386  1.00  0.00    -0.006 A 
HETATM   17  C18 UNL     1      33.620  -9.799  -7.538  1.00  0.00     0.117 A 
HETATM   18  N4  UNL     1      34.929  -9.697  -7.755  1.00  0.00    -0.312 N 
HETATM   19  N5  UNL     1      35.527  -8.988  -6.831  1.00  0.00    -0.312 N 
ATOM     20  H4  UNL     1      35.410 -10.122  -8.547  1.00  0.00     0.186 HD
HETATM   21  C19 UNL     1      34.572  -8.605  -5.964  1.00  0.00     0.117 A 
ATOM     22  H5  UNL     1      36.522  -8.769  -6.779  1.00  0.00     0.186 HD
ENDBRANCH  15  16
ENDBRANCH  14  15
BRANCH   9  23
HETATM   23  C6  UNL     1      27.249  -2.791  -8.192  1.00  0.00     0.062 C 
BRANCH  23  24
HETATM   24  C7  UNL     1      26.296  -2.942  -9.336  1.00  0.00     0.024 C 
HETATM   25  C8  UNL     1      24.993  -2.232  -8.975  1.00  0.00     0.010 C 
HETATM   26  C9  UNL     1      23.856  -3.215  -8.796  1.00  0.00     0.001 C 
HETATM   27  C10 UNL     1      23.581  -3.980 -10.075  1.00  0.00     0.000 C 
HETATM   28  C11 UNL     1      24.867  -4.418 -10.737  1.00  0.00     0.001 C 
HETATM   29  C12 UNL     1      26.024  -4.356  -9.728  1.00  0.00     0.010 C 
ENDBRANCH  23  24
ENDBRANCH   9  23
TORSDOF 4
ENDMDL
