MODEL 1
REMARK VINA RESULT: -7.236535010      0.000      0.000
REMARK  7 active torsions:
REMARK  status: ('A' for Active; 'I' for Inactive)
REMARK    1  A    between atoms: O1_2  and  C2_3 
REMARK    2  A    between atoms: C2_3  and  C3_5 
REMARK    3  A    between atoms: C3_5  and  N1_6 
REMARK    4  A    between atoms: N1_6  and  C4_8 
REMARK    5  A    between atoms: C4_8  and  N2_10 
REMARK    6  A    between atoms: N2_10  and  C5_12 
REMARK    7  A    between atoms: N3_15  and  C8_16 
ROOT
HETATM    1  C5  UNL     1      30.395  -7.411  -8.048  1.00  0.00     0.093 C 
HETATM    2  C6  UNL     1      30.444  -8.403  -6.893  1.00  0.00     0.070 C 
HETATM    3  C7  UNL     1      29.002  -8.741  -6.586  1.00  0.00     0.066 C 
HETATM    4  N3  UNL     1      28.416  -7.645  -5.942  1.00  0.00    -0.364 N 
HETATM    5  C18 UNL     1      28.717  -6.385  -6.460  1.00  0.00     0.066 C 
HETATM    6  C19 UNL     1      29.375  -6.335  -7.795  1.00  0.00     0.070 C 
ENDROOT
BRANCH   1   7
HETATM    7  N2  UNL     1      29.983  -8.159  -9.214  1.00  0.00    -0.362 N 
ATOM      8  H2  UNL     1      28.986  -8.353  -9.312  1.00  0.00     0.162 HD
BRANCH   7   9
HETATM    9  C4  UNL     1      30.831  -8.644 -10.227  1.00  0.00     0.168 C 
HETATM   10  S1  UNL     1      31.992  -7.664 -10.847  1.00  0.00    -0.041 SA
BRANCH   9  11
HETATM   11  N1  UNL     1      30.698  -9.966 -10.703  1.00  0.00    -0.358 N 
ATOM     12  H1  UNL     1      29.818 -10.256 -11.128  1.00  0.00     0.162 HD
BRANCH  11  13
HETATM   13  C3  UNL     1      31.794 -10.931 -10.603  1.00  0.00     0.233 C 
BRANCH  13  14
HETATM   14  C2  UNL     1      32.074 -11.145  -9.169  1.00  0.00     0.276 C 
HETATM   15  O2  UNL     1      31.229 -11.541  -8.336  1.00  0.00    -0.263 OA
BRANCH  14  16
HETATM   16  O1  UNL     1      33.358 -10.888  -8.725  1.00  0.00    -0.325 OA
HETATM   17  C1  UNL     1      33.712  -9.729  -7.970  1.00  0.00     0.213 C 
ENDBRANCH  14  16
ENDBRANCH  13  14
ENDBRANCH  11  13
ENDBRANCH   9  11
ENDBRANCH   7   9
ENDBRANCH   1   7
BRANCH   4  18
HETATM   18  C8  UNL     1      27.777  -7.788  -4.710  1.00  0.00     0.036 C 
HETATM   19  C9  UNL     1      28.577  -8.721  -3.798  1.00  0.00     0.036 C 
HETATM   20  C10 UNL     1      27.883  -8.906  -2.480  1.00  0.00    -0.012 C 
HETATM   21  C11 UNL     1      27.628  -7.594  -1.774  1.00  0.00     0.009 C 
HETATM   22  C15 UNL     1      26.530  -9.548  -2.727  1.00  0.00     0.009 C 
HETATM   23  C12 UNL     1      26.816  -6.700  -2.686  1.00  0.00    -0.012 C 
HETATM   24  C13 UNL     1      25.463  -7.296  -2.978  1.00  0.00     0.009 C 
HETATM   25  C17 UNL     1      27.624  -6.488  -3.939  1.00  0.00     0.036 C 
HETATM   26  C14 UNL     1      25.689  -8.651  -3.597  1.00  0.00    -0.012 C 
HETATM   27  C16 UNL     1      26.434  -8.473  -4.904  1.00  0.00     0.036 C 
ENDBRANCH   4  18
TORSDOF 7
ENDMDL
MODEL 2
REMARK VINA RESULT: -7.205663745      0.290      1.501
REMARK  7 active torsions:
REMARK  status: ('A' for Active; 'I' for Inactive)
REMARK    1  A    between atoms: O1_2  and  C2_3 
REMARK    2  A    between atoms: C2_3  and  C3_5 
REMARK    3  A    between atoms: C3_5  and  N1_6 
REMARK    4  A    between atoms: N1_6  and  C4_8 
REMARK    5  A    between atoms: C4_8  and  N2_10 
REMARK    6  A    between atoms: N2_10  and  C5_12 
REMARK    7  A    between atoms: N3_15  and  C8_16 
ROOT
HETATM    1  C5  UNL     1      30.299  -7.312  -8.401  1.00  0.00     0.093 C 
HETATM    2  C6  UNL     1      30.472  -8.266  -7.227  1.00  0.00     0.070 C 
HETATM    3  C7  UNL     1      29.077  -8.738  -6.880  1.00  0.00     0.066 C 
HETATM    4  N3  UNL     1      28.398  -7.691  -6.245  1.00  0.00    -0.364 N 
HETATM    5  C18 UNL     1      28.560  -6.421  -6.798  1.00  0.00     0.066 C 
HETATM    6  C19 UNL     1      29.183  -6.336  -8.148  1.00  0.00     0.070 C 
ENDROOT
BRANCH   1   7
HETATM    7  N2  UNL     1      29.939  -8.124  -9.542  1.00  0.00    -0.362 N 
ATOM      8  H2  UNL     1      28.943  -8.253  -9.723  1.00  0.00     0.162 HD
BRANCH   7   9
HETATM    9  C4  UNL     1      30.836  -8.754 -10.424  1.00  0.00     0.168 C 
HETATM   10  S1  UNL     1      32.064  -7.886 -11.083  1.00  0.00    -0.041 SA
BRANCH   9  11
HETATM   11  N1  UNL     1      30.697 -10.123 -10.736  1.00  0.00    -0.358 N 
ATOM     12  H1  UNL     1      29.802 -10.465 -11.086  1.00  0.00     0.162 HD
BRANCH  11  13
HETATM   13  C3  UNL     1      31.804 -11.065 -10.570  1.00  0.00     0.233 C 
BRANCH  13  14
HETATM   14  C2  UNL     1      32.093 -11.168  -9.125  1.00  0.00     0.276 C 
HETATM   15  O2  UNL     1      31.254 -11.504  -8.260  1.00  0.00    -0.263 OA
BRANCH  14  16
HETATM   16  O1  UNL     1      33.378 -10.871  -8.709  1.00  0.00    -0.325 OA
HETATM   17  C1  UNL     1      33.723  -9.672  -8.016  1.00  0.00     0.213 C 
ENDBRANCH  14  16
ENDBRANCH  13  14
ENDBRANCH  11  13
ENDBRANCH   9  11
ENDBRANCH   7   9
ENDBRANCH   1   7
BRANCH   4  18
HETATM   18  C8  UNL     1      27.803  -7.868  -4.996  1.00  0.00     0.036 C 
HETATM   19  C9  UNL     1      27.679  -6.528  -4.267  1.00  0.00     0.036 C 
HETATM   20  C10 UNL     1      27.066  -6.712  -2.909  1.00  0.00    -0.012 C 
HETATM   21  C11 UNL     1      25.716  -7.388  -2.973  1.00  0.00     0.009 C 
HETATM   22  C15 UNL     1      27.972  -7.606  -2.082  1.00  0.00     0.009 C 
HETATM   23  C12 UNL     1      25.870  -8.720  -3.675  1.00  0.00    -0.012 C 
HETATM   24  C13 UNL     1      26.774  -9.647  -2.905  1.00  0.00     0.009 C 
HETATM   25  C17 UNL     1      26.395  -8.437  -5.058  1.00  0.00     0.036 C 
HETATM   26  C14 UNL     1      28.102  -8.954  -2.744  1.00  0.00    -0.012 C 
HETATM   27  C16 UNL     1      28.702  -8.721  -4.115  1.00  0.00     0.036 C 
ENDBRANCH   4  18
TORSDOF 7
ENDMDL
MODEL 3
REMARK VINA RESULT: -7.196137294      0.105      1.480
REMARK  7 active torsions:
REMARK  status: ('A' for Active; 'I' for Inactive)
REMARK    1  A    between atoms: O1_2  and  C2_3 
REMARK    2  A    between atoms: C2_3  and  C3_5 
REMARK    3  A    between atoms: C3_5  and  N1_6 
REMARK    4  A    between atoms: N1_6  and  C4_8 
REMARK    5  A    between atoms: C4_8  and  N2_10 
REMARK    6  A    between atoms: N2_10  and  C5_12 
REMARK    7  A    between atoms: N3_15  and  C8_16 
ROOT
HETATM    1  C5  UNL     1      30.343  -7.457  -8.107  1.00  0.00     0.093 C 
HETATM    2  C6  UNL     1      30.456  -8.421  -6.933  1.00  0.00     0.070 C 
HETATM    3  C7  UNL     1      29.036  -8.826  -6.603  1.00  0.00     0.066 C 
HETATM    4  N3  UNL     1      28.400  -7.749  -5.974  1.00  0.00    -0.364 N 
HETATM    5  C18 UNL     1      28.630  -6.487  -6.521  1.00  0.00     0.066 C 
HETATM    6  C19 UNL     1      29.271  -6.430  -7.864  1.00  0.00     0.070 C 
ENDROOT
BRANCH   1   7
HETATM    7  N2  UNL     1      29.958  -8.249  -9.253  1.00  0.00    -0.362 N 
ATOM      8  H2  UNL     1      28.971  -8.491  -9.339  1.00  0.00     0.162 HD
BRANCH   7   9
HETATM    9  C4  UNL     1      30.821  -8.717 -10.262  1.00  0.00     0.168 C 
HETATM   10  S1  UNL     1      31.964  -7.712 -10.878  1.00  0.00    -0.041 SA
BRANCH   9  11
HETATM   11  N1  UNL     1      30.720 -10.042 -10.737  1.00  0.00    -0.358 N 
ATOM     12  H1  UNL     1      29.853 -10.347 -11.179  1.00  0.00     0.162 HD
BRANCH  11  13
HETATM   13  C3  UNL     1      31.829 -10.989 -10.611  1.00  0.00     0.233 C 
BRANCH  13  14
HETATM   14  C2  UNL     1      32.108 -11.164  -9.172  1.00  0.00     0.276 C 
HETATM   15  O2  UNL     1      31.267 -11.549  -8.330  1.00  0.00    -0.263 OA
BRANCH  14  16
HETATM   16  O1  UNL     1      33.389 -10.879  -8.732  1.00  0.00    -0.325 OA
HETATM   17  C1  UNL     1      33.716  -9.725  -7.958  1.00  0.00     0.213 C 
ENDBRANCH  14  16
ENDBRANCH  13  14
ENDBRANCH  11  13
ENDBRANCH   9  11
ENDBRANCH   7   9
ENDBRANCH   1   7
BRANCH   4  18
HETATM   18  C8  UNL     1      27.782  -7.900  -4.733  1.00  0.00     0.036 C 
HETATM   19  C9  UNL     1      26.382  -8.493  -4.901  1.00  0.00     0.036 C 
HETATM   20  C10 UNL     1      25.697  -8.633  -3.572  1.00  0.00    -0.012 C 
HETATM   21  C11 UNL     1      26.494  -9.469  -2.598  1.00  0.00     0.009 C 
HETATM   22  C15 UNL     1      25.545  -7.254  -2.954  1.00  0.00     0.009 C 
HETATM   23  C12 UNL     1      27.865  -8.849  -2.431  1.00  0.00    -0.012 C 
HETATM   24  C13 UNL     1      27.775  -7.469  -1.833  1.00  0.00     0.009 C 
HETATM   25  C17 UNL     1      28.517  -8.837  -3.788  1.00  0.00     0.036 C 
HETATM   26  C14 UNL     1      26.903  -6.639  -2.739  1.00  0.00    -0.012 C 
HETATM   27  C16 UNL     1      27.566  -6.537  -4.097  1.00  0.00     0.036 C 
ENDBRANCH   4  18
TORSDOF 7
ENDMDL
MODEL 4
REMARK VINA RESULT: -7.090479813      1.203      2.064
REMARK  7 active torsions:
REMARK  status: ('A' for Active; 'I' for Inactive)
REMARK    1  A    between atoms: O1_2  and  C2_3 
REMARK    2  A    between atoms: C2_3  and  C3_5 
REMARK    3  A    between atoms: C3_5  and  N1_6 
REMARK    4  A    between atoms: N1_6  and  C4_8 
REMARK    5  A    between atoms: C4_8  and  N2_10 
REMARK    6  A    between atoms: N2_10  and  C5_12 
REMARK    7  A    between atoms: N3_15  and  C8_16 
ROOT
HETATM    1  C5  UNL     1      30.820  -7.131  -7.620  1.00  0.00     0.093 C 
HETATM    2  C6  UNL     1      31.048  -7.625  -6.198  1.00  0.00     0.070 C 
HETATM    3  C7  UNL     1      29.895  -8.558  -5.902  1.00  0.00     0.066 C 
HETATM    4  N3  UNL     1      28.740  -7.790  -5.711  1.00  0.00    -0.364 N 
HETATM    5  C18 UNL     1      28.541  -6.735  -6.601  1.00  0.00     0.066 C 
HETATM    6  C19 UNL     1      29.393  -6.701  -7.822  1.00  0.00     0.070 C 
ENDROOT
BRANCH   1   7
HETATM    7  N2  UNL     1      31.080  -8.255  -8.492  1.00  0.00    -0.362 N 
ATOM      8  H2  UNL     1      31.527  -9.072  -8.075  1.00  0.00     0.162 HD
BRANCH   7   9
HETATM    9  C4  UNL     1      30.773  -8.325  -9.864  1.00  0.00     0.168 C 
HETATM   10  S1  UNL     1      31.585  -7.371 -10.924  1.00  0.00    -0.041 SA
BRANCH   9  11
HETATM   11  N1  UNL     1      29.784  -9.216 -10.334  1.00  0.00    -0.358 N 
ATOM     12  H1  UNL     1      29.483  -9.156 -11.307  1.00  0.00     0.162 HD
BRANCH  11  13
HETATM   13  C3  UNL     1      29.181 -10.223  -9.462  1.00  0.00     0.233 C 
BRANCH  13  14
HETATM   14  C2  UNL     1      30.198 -11.263  -9.207  1.00  0.00     0.276 C 
HETATM   15  O2  UNL     1      30.848 -11.372  -8.143  1.00  0.00    -0.263 OA
BRANCH  14  16
HETATM   16  O1  UNL     1      30.445 -12.175 -10.218  1.00  0.00    -0.325 OA
HETATM   17  C1  UNL     1      31.702 -12.825 -10.402  1.00  0.00     0.213 C 
ENDBRANCH  14  16
ENDBRANCH  13  14
ENDBRANCH  11  13
ENDBRANCH   9  11
ENDBRANCH   7   9
ENDBRANCH   1   7
BRANCH   4  18
HETATM   18  C8  UNL     1      27.972  -7.917  -4.553  1.00  0.00     0.036 C 
HETATM   19  C9  UNL     1      26.590  -8.483  -4.887  1.00  0.00     0.036 C 
HETATM   20  C10 UNL     1      25.745  -8.597  -3.651  1.00  0.00    -0.012 C 
HETATM   21  C11 UNL     1      26.399  -9.440  -2.582  1.00  0.00     0.009 C 
HETATM   22  C15 UNL     1      25.548  -7.210  -3.066  1.00  0.00     0.009 C 
HETATM   23  C12 UNL     1      27.751  -8.846  -2.252  1.00  0.00    -0.012 C 
HETATM   24  C13 UNL     1      27.618  -7.459  -1.679  1.00  0.00     0.009 C 
HETATM   25  C17 UNL     1      28.565  -8.860  -3.519  1.00  0.00     0.036 C 
HETATM   26  C14 UNL     1      26.882  -6.619  -2.691  1.00  0.00    -0.012 C 
HETATM   27  C16 UNL     1      27.708  -6.544  -3.958  1.00  0.00     0.036 C 
ENDBRANCH   4  18
TORSDOF 7
ENDMDL
MODEL 5
REMARK VINA RESULT: -6.942703314      1.101      2.088
REMARK  7 active torsions:
REMARK  status: ('A' for Active; 'I' for Inactive)
REMARK    1  A    between atoms: O1_2  and  C2_3 
REMARK    2  A    between atoms: C2_3  and  C3_5 
REMARK    3  A    between atoms: C3_5  and  N1_6 
REMARK    4  A    between atoms: N1_6  and  C4_8 
REMARK    5  A    between atoms: C4_8  and  N2_10 
REMARK    6  A    between atoms: N2_10  and  C5_12 
REMARK    7  A    between atoms: N3_15  and  C8_16 
ROOT
HETATM    1  C5  UNL     1      30.990  -7.273  -7.530  1.00  0.00     0.093 C 
HETATM    2  C6  UNL     1      31.080  -7.956  -6.171  1.00  0.00     0.070 C 
HETATM    3  C7  UNL     1      29.775  -8.700  -6.003  1.00  0.00     0.066 C 
HETATM    4  N3  UNL     1      28.762  -7.768  -5.742  1.00  0.00    -0.364 N 
HETATM    5  C18 UNL     1      28.779  -6.602  -6.506  1.00  0.00     0.066 C 
HETATM    6  C19 UNL     1      29.666  -6.580  -7.701  1.00  0.00     0.070 C 
ENDROOT
BRANCH   1   7
HETATM    7  N2  UNL     1      31.084  -8.320  -8.523  1.00  0.00    -0.362 N 
ATOM      8  H2  UNL     1      30.320  -8.995  -8.557  1.00  0.00     0.162 HD
BRANCH   7   9
HETATM    9  C4  UNL     1      32.132  -8.492  -9.446  1.00  0.00     0.168 C 
HETATM   10  S1  UNL     1      32.750  -7.183 -10.221  1.00  0.00    -0.041 SA
BRANCH   9  11
HETATM   11  N1  UNL     1      32.664  -9.775  -9.699  1.00  0.00    -0.358 N 
ATOM     12  H1  UNL     1      33.533 -10.052  -9.243  1.00  0.00     0.162 HD
BRANCH  11  13
HETATM   13  C3  UNL     1      31.998 -10.716 -10.599  1.00  0.00     0.233 C 
BRANCH  13  14
HETATM   14  C2  UNL     1      31.397 -11.781  -9.771  1.00  0.00     0.276 C 
HETATM   15  O2  UNL     1      31.715 -12.989  -9.833  1.00  0.00    -0.263 OA
BRANCH  14  16
HETATM   16  O1  UNL     1      30.416 -11.410  -8.869  1.00  0.00    -0.325 OA
HETATM   17  C1  UNL     1      29.097 -11.026  -9.256  1.00  0.00     0.213 C 
ENDBRANCH  14  16
ENDBRANCH  13  14
ENDBRANCH  11  13
ENDBRANCH   9  11
ENDBRANCH   7   9
ENDBRANCH   1   7
BRANCH   4  18
HETATM   18  C8  UNL     1      27.943  -7.889  -4.618  1.00  0.00     0.036 C 
HETATM   19  C9  UNL     1      27.676  -6.514  -4.002  1.00  0.00     0.036 C 
HETATM   20  C10 UNL     1      26.819  -6.636  -2.775  1.00  0.00    -0.012 C 
HETATM   21  C11 UNL     1      25.510  -7.336  -3.054  1.00  0.00     0.009 C 
HETATM   22  C15 UNL     1      27.558  -7.469  -1.744  1.00  0.00     0.009 C 
HETATM   23  C12 UNL     1      25.801  -8.701  -3.639  1.00  0.00    -0.012 C 
HETATM   24  C13 UNL     1      26.550  -9.570  -2.662  1.00  0.00     0.009 C 
HETATM   25  C17 UNL     1      26.576  -8.483  -4.913  1.00  0.00     0.036 C 
HETATM   26  C14 UNL     1      27.820  -8.847  -2.293  1.00  0.00    -0.012 C 
HETATM   27  C16 UNL     1      28.665  -8.678  -3.538  1.00  0.00     0.036 C 
ENDBRANCH   4  18
TORSDOF 7
ENDMDL
