MODEL 1
REMARK VINA RESULT: -6.972966249      0.000      0.000
REMARK  3 active torsions:
REMARK  status: ('A' for Active; 'I' for Inactive)
REMARK    1  A    between atoms: C2_2  and  C4_4 
REMARK    2  A    between atoms: C4_4  and  N1_5 
REMARK       I    between atoms: N1_5  and  C5_7 
REMARK       I    between atoms: C5_7  and  N2_9 
REMARK    3  A    between atoms: N2_9  and  C6_11 
ROOT
HETATM    1  C6  UNL     1       2.014   0.106 -16.664  1.00  0.00     0.104 A 
HETATM    2  S1  UNL     1       2.959  -1.163 -16.021  1.00  0.00    -0.049 SA
HETATM    3  C7  UNL     1       4.384  -0.296 -15.671  1.00  0.00     0.130 A 
HETATM    4  N3  UNL     1       5.661  -0.344 -15.172  1.00  0.00    -0.233 N 
ATOM      5  H3  UNL     1       6.156  -1.156 -14.802  1.00  0.00     0.197 HD
HETATM    6  O2  UNL     1       6.094   0.863 -15.276  1.00  0.00    -0.155 OA
HETATM    7  N4  UNL     1       5.220   1.666 -15.787  1.00  0.00    -0.237 N 
ATOM      8  H4  UNL     1       5.359   2.662 -15.955  1.00  0.00     0.197 HD
HETATM    9  C8  UNL     1       4.077   0.968 -16.069  1.00  0.00     0.117 A 
HETATM   10  C9  UNL     1       2.849   1.185 -16.585  1.00  0.00     0.099 A 
HETATM   11 CL1  UNL     1       2.265   2.771 -17.161  1.00  0.00    -0.079 Cl
ENDROOT
BRANCH   1  12
HETATM   12  N2  UNL     1       0.664   0.033 -17.163  1.00  0.00    -0.301 N 
HETATM   13  C5  UNL     1      -0.391  -0.005 -16.191  1.00  0.00     0.321 C 
HETATM   14  N1  UNL     1      -1.730  -0.075 -16.638  1.00  0.00    -0.343 N 
HETATM   15  O1  UNL     1      -0.150   0.025 -14.972  1.00  0.00    -0.247 OA
ATOM     16  H1  UNL     1      -1.930  -0.099 -17.638  1.00  0.00     0.164 HD
ATOM     17  H2  UNL     1       0.467   0.009 -18.163  1.00  0.00     0.171 HD
BRANCH  14  18
HETATM   18  C4  UNL     1      -2.824  -0.115 -15.683  1.00  0.00     0.128 C 
BRANCH  18  19
HETATM   19  C2  UNL     1      -4.026  -0.758 -16.313  1.00  0.00    -0.005 C 
HETATM   20  C1  UNL     1      -4.729  -1.606 -15.284  1.00  0.00     0.011 C 
HETATM   21  C3  UNL     1      -4.947   0.311 -16.822  1.00  0.00     0.011 C 
ENDBRANCH  18  19
ENDBRANCH  14  18
ENDBRANCH   1  12
TORSDOF 3
ENDMDL
MODEL 2
REMARK VINA RESULT: -6.856698178      3.198      7.705
REMARK  3 active torsions:
REMARK  status: ('A' for Active; 'I' for Inactive)
REMARK    1  A    between atoms: C2_2  and  C4_4 
REMARK    2  A    between atoms: C4_4  and  N1_5 
REMARK       I    between atoms: N1_5  and  C5_7 
REMARK       I    between atoms: C5_7  and  N2_9 
REMARK    3  A    between atoms: N2_9  and  C6_11 
ROOT
HETATM    1  C6  UNL     1      -2.013  -0.051 -16.620  1.00  0.00     0.104 A 
HETATM    2  S1  UNL     1      -2.975   1.210 -15.990  1.00  0.00    -0.049 SA
HETATM    3  C7  UNL     1      -4.412   0.340 -15.695  1.00  0.00     0.130 A 
HETATM    4  N3  UNL     1      -5.703   0.383 -15.235  1.00  0.00    -0.233 N 
ATOM      5  H3  UNL     1      -6.209   1.190 -14.869  1.00  0.00     0.197 HD
HETATM    6  O2  UNL     1      -6.135  -0.822 -15.369  1.00  0.00    -0.155 OA
HETATM    7  N4  UNL     1      -5.246  -1.619 -15.865  1.00  0.00    -0.237 N 
ATOM      8  H4  UNL     1      -5.381  -2.612 -16.051  1.00  0.00     0.197 HD
HETATM    9  C8  UNL     1      -4.094  -0.919 -16.101  1.00  0.00     0.117 A 
HETATM   10  C9  UNL     1      -2.851  -1.130 -16.583  1.00  0.00     0.099 A 
HETATM   11 CL1  UNL     1      -2.252  -2.709 -17.163  1.00  0.00    -0.079 Cl
ENDROOT
BRANCH   1  12
HETATM   12  N2  UNL     1      -0.648   0.027 -17.077  1.00  0.00    -0.301 N 
HETATM   13  C5  UNL     1       0.376   0.058 -16.073  1.00  0.00     0.321 C 
HETATM   14  N1  UNL     1       1.728   0.133 -16.477  1.00  0.00    -0.343 N 
HETATM   15  O1  UNL     1       0.098   0.019 -14.862  1.00  0.00    -0.247 OA
ATOM     16  H1  UNL     1       1.959   0.164 -17.470  1.00  0.00     0.164 HD
ATOM     17  H2  UNL     1      -0.420   0.058 -18.070  1.00  0.00     0.171 HD
BRANCH  14  18
HETATM   18  C4  UNL     1       2.792   0.166 -15.488  1.00  0.00     0.128 C 
BRANCH  18  19
HETATM   19  C2  UNL     1       4.073   0.613 -16.134  1.00  0.00    -0.005 C 
HETATM   20  C1  UNL     1       4.242   2.096 -15.921  1.00  0.00     0.011 C 
HETATM   21  C3  UNL     1       5.220  -0.134 -15.522  1.00  0.00     0.011 C 
ENDBRANCH  18  19
ENDBRANCH  14  18
ENDBRANCH   1  12
TORSDOF 3
ENDMDL
MODEL 3
REMARK VINA RESULT: -6.413011844      9.790     10.777
REMARK  3 active torsions:
REMARK  status: ('A' for Active; 'I' for Inactive)
REMARK    1  A    between atoms: C2_2  and  C4_4 
REMARK    2  A    between atoms: C4_4  and  N1_5 
REMARK       I    between atoms: N1_5  and  C5_7 
REMARK       I    between atoms: C5_7  and  N2_9 
REMARK    3  A    between atoms: N2_9  and  C6_11 
ROOT
HETATM    1  C6  UNL     1      -0.658  -0.791  -7.896  1.00  0.00     0.104 A 
HETATM    2  S1  UNL     1      -0.921   0.858  -8.249  1.00  0.00    -0.049 SA
HETATM    3  C7  UNL     1      -0.568   0.844  -9.916  1.00  0.00     0.130 A 
HETATM    4  N3  UNL     1      -0.474   1.573 -11.074  1.00  0.00    -0.233 N 
ATOM      5  H3  UNL     1      -0.651   2.570 -11.200  1.00  0.00     0.197 HD
HETATM    6  O2  UNL     1      -0.111   0.719 -11.966  1.00  0.00    -0.155 OA
HETATM    7  N4  UNL     1       0.032  -0.474 -11.487  1.00  0.00    -0.237 N 
ATOM      8  H4  UNL     1       0.312  -1.295 -12.023  1.00  0.00     0.197 HD
HETATM    9  C8  UNL     1      -0.252  -0.460 -10.149  1.00  0.00     0.117 A 
HETATM   10  C9  UNL     1      -0.297  -1.314  -9.105  1.00  0.00     0.099 A 
HETATM   11 CL1  UNL     1       0.083  -3.055  -9.214  1.00  0.00    -0.079 Cl
ENDROOT
BRANCH   1  12
HETATM   12  N2  UNL     1      -0.791  -1.451  -6.621  1.00  0.00    -0.301 N 
HETATM   13  C5  UNL     1       0.035  -0.975  -5.550  1.00  0.00     0.321 C 
HETATM   14  N1  UNL     1      -0.064  -1.593  -4.283  1.00  0.00    -0.343 N 
HETATM   15  O1  UNL     1       0.830  -0.034  -5.714  1.00  0.00    -0.247 OA
ATOM     16  H1  UNL     1      -0.717  -2.365  -4.145  1.00  0.00     0.164 HD
ATOM     17  H2  UNL     1      -1.444  -2.223  -6.487  1.00  0.00     0.171 HD
BRANCH  14  18
HETATM   18  C4  UNL     1       0.757  -1.138  -3.174  1.00  0.00     0.128 C 
BRANCH  18  19
HETATM   19  C2  UNL     1       1.749  -2.204  -2.805  1.00  0.00    -0.005 C 
HETATM   20  C1  UNL     1       3.143  -1.692  -3.066  1.00  0.00     0.011 C 
HETATM   21  C3  UNL     1       1.585  -2.548  -1.355  1.00  0.00     0.011 C 
ENDBRANCH  18  19
ENDBRANCH  14  18
ENDBRANCH   1  12
TORSDOF 3
ENDMDL
MODEL 4
REMARK VINA RESULT: -6.402250733      9.614     10.182
REMARK  3 active torsions:
REMARK  status: ('A' for Active; 'I' for Inactive)
REMARK    1  A    between atoms: C2_2  and  C4_4 
REMARK    2  A    between atoms: C4_4  and  N1_5 
REMARK       I    between atoms: N1_5  and  C5_7 
REMARK       I    between atoms: C5_7  and  N2_9 
REMARK    3  A    between atoms: N2_9  and  C6_11 
ROOT
HETATM    1  C6  UNL     1       0.682   0.785  -7.902  1.00  0.00     0.104 A 
HETATM    2  S1  UNL     1       0.957  -0.862  -8.258  1.00  0.00    -0.049 SA
HETATM    3  C7  UNL     1       0.582  -0.852  -9.921  1.00  0.00     0.130 A 
HETATM    4  N3  UNL     1       0.480  -1.583 -11.077  1.00  0.00    -0.233 N 
ATOM      5  H3  UNL     1       0.666  -2.578 -11.205  1.00  0.00     0.197 HD
HETATM    6  O2  UNL     1       0.097  -0.733 -11.964  1.00  0.00    -0.155 OA
HETATM    7  N4  UNL     1      -0.051   0.458 -11.485  1.00  0.00    -0.237 N 
ATOM      8  H4  UNL     1      -0.347   1.277 -12.017  1.00  0.00     0.197 HD
HETATM    9  C8  UNL     1       0.250   0.448 -10.150  1.00  0.00     0.117 A 
HETATM   10  C9  UNL     1       0.300   1.303  -9.108  1.00  0.00     0.099 A 
HETATM   11 CL1  UNL     1      -0.099   3.041  -9.212  1.00  0.00    -0.079 Cl
ENDROOT
BRANCH   1  12
HETATM   12  N2  UNL     1       0.825   1.447  -6.630  1.00  0.00    -0.301 N 
HETATM   13  C5  UNL     1      -0.010   0.988  -5.558  1.00  0.00     0.321 C 
HETATM   14  N1  UNL     1       0.099   1.609  -4.293  1.00  0.00    -0.343 N 
HETATM   15  O1  UNL     1      -0.820   0.059  -5.719  1.00  0.00    -0.247 OA
ATOM     16  H1  UNL     1       0.764   2.371  -4.158  1.00  0.00     0.164 HD
ATOM     17  H2  UNL     1       1.490   2.209  -6.498  1.00  0.00     0.171 HD
BRANCH  14  18
HETATM   18  C4  UNL     1      -0.730   1.171  -3.183  1.00  0.00     0.128 C 
BRANCH  18  19
HETATM   19  C2  UNL     1      -1.697   2.259  -2.810  1.00  0.00    -0.005 C 
HETATM   20  C1  UNL     1      -3.092   1.829  -3.186  1.00  0.00     0.011 C 
HETATM   21  C3  UNL     1      -1.610   2.510  -1.334  1.00  0.00     0.011 C 
ENDBRANCH  18  19
ENDBRANCH  14  18
ENDBRANCH   1  12
TORSDOF 3
ENDMDL
MODEL 5
REMARK VINA RESULT: -6.313221533      9.909     10.516
REMARK  3 active torsions:
REMARK  status: ('A' for Active; 'I' for Inactive)
REMARK    1  A    between atoms: C2_2  and  C4_4 
REMARK    2  A    between atoms: C4_4  and  N1_5 
REMARK       I    between atoms: N1_5  and  C5_7 
REMARK       I    between atoms: C5_7  and  N2_9 
REMARK    3  A    between atoms: N2_9  and  C6_11 
ROOT
HETATM    1  C6  UNL     1      -0.604  -0.173  -8.165  1.00  0.00     0.104 A 
HETATM    2  S1  UNL     1       0.506   0.299  -9.373  1.00  0.00    -0.049 SA
HETATM    3  C7  UNL     1       0.829  -1.226 -10.062  1.00  0.00     0.130 A 
HETATM    4  N3  UNL     1       1.519  -1.930 -11.016  1.00  0.00    -0.233 N 
ATOM      5  H3  UNL     1       2.173  -1.565 -11.710  1.00  0.00     0.197 HD
HETATM    6  O2  UNL     1       1.159  -3.153 -10.841  1.00  0.00    -0.155 OA
HETATM    7  N4  UNL     1       0.312  -3.290  -9.874  1.00  0.00    -0.237 N 
ATOM      8  H4  UNL     1      -0.099  -4.173  -9.571  1.00  0.00     0.197 HD
HETATM    9  C8  UNL     1       0.054  -2.065  -9.322  1.00  0.00     0.117 A 
HETATM   10  C9  UNL     1      -0.692  -1.526  -8.336  1.00  0.00     0.099 A 
HETATM   11 CL1  UNL     1      -1.768  -2.463  -7.262  1.00  0.00    -0.079 Cl
ENDROOT
BRANCH   1  12
HETATM   12  N2  UNL     1      -1.274   0.670  -7.207  1.00  0.00    -0.301 N 
HETATM   13  C5  UNL     1      -0.733   0.708  -5.879  1.00  0.00     0.321 C 
HETATM   14  N1  UNL     1      -1.358   1.523  -4.909  1.00  0.00    -0.343 N 
HETATM   15  O1  UNL     1       0.271   0.043  -5.569  1.00  0.00    -0.247 OA
ATOM     16  H1  UNL     1      -2.181   2.070  -5.161  1.00  0.00     0.164 HD
ATOM     17  H2  UNL     1      -2.097   1.216  -7.462  1.00  0.00     0.171 HD
BRANCH  14  18
HETATM   18  C4  UNL     1      -0.838   1.586  -3.554  1.00  0.00     0.128 C 
BRANCH  18  19
HETATM   19  C2  UNL     1      -1.762   2.398  -2.691  1.00  0.00    -0.005 C 
HETATM   20  C1  UNL     1      -3.166   1.866  -2.834  1.00  0.00     0.011 C 
HETATM   21  C3  UNL     1      -1.313   2.304  -1.264  1.00  0.00     0.011 C 
ENDBRANCH  18  19
ENDBRANCH  14  18
ENDBRANCH   1  12
TORSDOF 3
ENDMDL
