MODEL 1
REMARK VINA RESULT: -6.708811460      0.000      0.000
REMARK  4 active torsions:
REMARK  status: ('A' for Active; 'I' for Inactive)
REMARK    1  A    between atoms: C2_2  and  C3_3 
REMARK    2  A    between atoms: C3_3  and  C6_6 
REMARK    3  A    between atoms: C6_6  and  N1_7 
REMARK    4  A    between atoms: C11_18  and  N5_19 
ROOT
HETATM    1  N1  UNL     1       0.421  -0.117  -8.033  1.00  0.00    -0.306 N 
HETATM    2  C7  UNL     1      -0.277  -1.129  -7.423  1.00  0.00     0.183 A 
HETATM    3 CL1  UNL     1      -0.935  -2.603  -8.148  1.00  0.00    -0.044 Cl
HETATM    4  N2  UNL     1      -0.336  -0.801  -6.132  1.00  0.00    -0.327 N 
ATOM      5  H2  UNL     1      -0.797  -1.361  -5.416  1.00  0.00     0.168 HD
HETATM    6  C8  UNL     1       0.281   0.345  -5.902  1.00  0.00     0.118 A 
HETATM    7  C9  UNL     1       0.532   1.127  -4.786  1.00  0.00     0.160 A 
HETATM    8  C10 UNL     1      -0.004   0.614  -3.537  1.00  0.00     0.120 C 
HETATM    9  N3  UNL     1      -0.426   0.221  -2.536  1.00  0.00    -0.190 NA
HETATM   10  N4  UNL     1       1.220   2.278  -4.838  1.00  0.00    -0.180 N 
ATOM     11  H4  UNL     1       1.382   2.822  -3.990  1.00  0.00     0.185 HD
HETATM   12  C11 UNL     1       1.694   2.704  -6.025  1.00  0.00     0.678 A 
HETATM   13  N6  UNL     1       1.455   1.956  -7.104  1.00  0.00    -0.174 N 
ATOM     14  H6  UNL     1       1.821   2.294  -7.993  1.00  0.00     0.186 HD
HETATM   15  C12 UNL     1       0.778   0.802  -7.122  1.00  0.00     0.155 A 
ENDROOT
BRANCH  12  16
HETATM   16  N5  UNL     1       2.363   3.820  -6.087  1.00  0.00    -0.234 N 
ATOM     17  H52 UNL     1       2.692   4.209  -6.971  1.00  0.00     0.174 HD
ATOM     18  H51 UNL     1       2.571   4.331  -5.229  1.00  0.00     0.174 HD
ENDBRANCH  12  16
BRANCH   1  19
HETATM   19  C6  UNL     1       0.693  -0.127  -9.426  1.00  0.00     0.142 C 
BRANCH  19  20
HETATM   20  C3  UNL     1      -0.118   0.659 -10.374  1.00  0.00    -0.031 C 
HETATM   21  C4  UNL     1      -1.585   0.740  -9.899  1.00  0.00     0.016 C 
HETATM   22  C5  UNL     1      -0.135  -0.019 -11.717  1.00  0.00     0.016 C 
BRANCH  20  23
HETATM   23  C2  UNL     1       0.285   2.100 -10.568  1.00  0.00     0.006 C 
HETATM   24  C1  UNL     1      -0.566   3.085  -9.827  1.00  0.00     0.006 C 
ENDBRANCH  20  23
ENDBRANCH  19  20
ENDBRANCH   1  19
TORSDOF 4
ENDMDL
MODEL 2
REMARK VINA RESULT: -6.705917363      2.171      3.970
REMARK  4 active torsions:
REMARK  status: ('A' for Active; 'I' for Inactive)
REMARK    1  A    between atoms: C2_2  and  C3_3 
REMARK    2  A    between atoms: C3_3  and  C6_6 
REMARK    3  A    between atoms: C6_6  and  N1_7 
REMARK    4  A    between atoms: C11_18  and  N5_19 
ROOT
HETATM    1  N1  UNL     1      -0.418   0.131  -8.009  1.00  0.00    -0.306 N 
HETATM    2  C7  UNL     1       0.276   1.142  -7.391  1.00  0.00     0.183 A 
HETATM    3 CL1  UNL     1       0.930   2.623  -8.105  1.00  0.00    -0.044 Cl
HETATM    4  N2  UNL     1       0.334   0.806  -6.102  1.00  0.00    -0.327 N 
ATOM      5  H2  UNL     1       0.792   1.363  -5.381  1.00  0.00     0.168 HD
HETATM    6  C8  UNL     1      -0.280  -0.344  -5.881  1.00  0.00     0.118 A 
HETATM    7  C9  UNL     1      -0.531  -1.134  -4.770  1.00  0.00     0.160 A 
HETATM    8  C10 UNL     1       0.002  -0.628  -3.517  1.00  0.00     0.120 C 
HETATM    9  N3  UNL     1       0.420  -0.240  -2.512  1.00  0.00    -0.190 NA
HETATM   10  N4  UNL     1      -1.215  -2.286  -4.831  1.00  0.00    -0.180 N 
ATOM     11  H4  UNL     1      -1.376  -2.837  -3.987  1.00  0.00     0.185 HD
HETATM   12  C11 UNL     1      -1.686  -2.706  -6.022  1.00  0.00     0.678 A 
HETATM   13  N6  UNL     1      -1.447  -1.950  -7.095  1.00  0.00    -0.174 N 
ATOM     14  H6  UNL     1      -1.811  -2.283  -7.988  1.00  0.00     0.186 HD
HETATM   15  C12 UNL     1      -0.774  -0.794  -7.104  1.00  0.00     0.155 A 
ENDROOT
BRANCH  12  16
HETATM   16  N5  UNL     1      -2.351  -3.824  -6.093  1.00  0.00    -0.234 N 
ATOM     17  H52 UNL     1      -1.965  -4.661  -6.530  1.00  0.00     0.174 HD
ATOM     18  H51 UNL     1      -3.291  -3.876  -5.699  1.00  0.00     0.174 HD
ENDBRANCH  12  16
BRANCH   1  19
HETATM   19  C6  UNL     1      -0.688   0.151  -9.403  1.00  0.00     0.142 C 
BRANCH  19  20
HETATM   20  C3  UNL     1       0.114  -0.643 -10.352  1.00  0.00    -0.031 C 
HETATM   21  C4  UNL     1       1.585  -0.721  -9.889  1.00  0.00     0.016 C 
HETATM   22  C5  UNL     1       0.120   0.026 -11.699  1.00  0.00     0.016 C 
BRANCH  20  23
HETATM   23  C2  UNL     1      -0.290  -2.085 -10.532  1.00  0.00     0.006 C 
HETATM   24  C1  UNL     1       0.628  -3.072  -9.878  1.00  0.00     0.006 C 
ENDBRANCH  20  23
ENDBRANCH  19  20
ENDBRANCH   1  19
TORSDOF 4
ENDMDL
MODEL 3
REMARK VINA RESULT: -6.700597969      2.111      5.300
REMARK  4 active torsions:
REMARK  status: ('A' for Active; 'I' for Inactive)
REMARK    1  A    between atoms: C2_2  and  C3_3 
REMARK    2  A    between atoms: C3_3  and  C6_6 
REMARK    3  A    between atoms: C6_6  and  N1_7 
REMARK    4  A    between atoms: C11_18  and  N5_19 
ROOT
HETATM    1  N1  UNL     1      -0.867   0.141  -6.444  1.00  0.00    -0.306 N 
HETATM    2  C7  UNL     1      -0.717  -1.224  -6.435  1.00  0.00     0.183 A 
HETATM    3 CL1  UNL     1      -1.067  -2.359  -5.124  1.00  0.00    -0.044 Cl
HETATM    4  N2  UNL     1      -0.280  -1.549  -7.652  1.00  0.00    -0.327 N 
ATOM      5  H2  UNL     1      -0.072  -2.500  -7.955  1.00  0.00     0.168 HD
HETATM    6  C8  UNL     1      -0.151  -0.477  -8.415  1.00  0.00     0.118 A 
HETATM    7  C9  UNL     1       0.237  -0.233  -9.722  1.00  0.00     0.160 A 
HETATM    8  C10 UNL     1       0.622  -1.409 -10.483  1.00  0.00     0.120 C 
HETATM    9  N3  UNL     1       0.933  -2.334 -11.102  1.00  0.00    -0.190 NA
HETATM   10  N4  UNL     1       0.262   0.995 -10.262  1.00  0.00    -0.180 N 
ATOM     11  H4  UNL     1       0.556   1.128 -11.230  1.00  0.00     0.185 HD
HETATM   12  C11 UNL     1      -0.106   2.049  -9.508  1.00  0.00     0.678 A 
HETATM   13  N6  UNL     1      -0.481   1.822  -8.248  1.00  0.00    -0.174 N 
ATOM     14  H6  UNL     1      -0.756   2.631  -7.692  1.00  0.00     0.186 HD
HETATM   15  C12 UNL     1      -0.528   0.626  -7.649  1.00  0.00     0.155 A 
ENDROOT
BRANCH  12  16
HETATM   16  N5  UNL     1      -0.085   3.246 -10.022  1.00  0.00    -0.234 N 
ATOM     17  H52 UNL     1      -0.938   3.735 -10.298  1.00  0.00     0.174 HD
ATOM     18  H51 UNL     1       0.808   3.721 -10.158  1.00  0.00     0.174 HD
ENDBRANCH  12  16
BRANCH   1  19
HETATM   19  C6  UNL     1      -1.331   0.852  -5.307  1.00  0.00     0.142 C 
BRANCH  19  20
HETATM   20  C3  UNL     1      -0.417   1.239  -4.216  1.00  0.00    -0.031 C 
HETATM   21  C4  UNL     1      -1.078   2.292  -3.300  1.00  0.00     0.016 C 
HETATM   22  C5  UNL     1       0.819   1.877  -4.788  1.00  0.00     0.016 C 
BRANCH  20  23
HETATM   23  C2  UNL     1       0.001   0.141  -3.269  1.00  0.00     0.006 C 
HETATM   24  C1  UNL     1       1.342  -0.456  -3.568  1.00  0.00     0.006 C 
ENDBRANCH  20  23
ENDBRANCH  19  20
ENDBRANCH   1  19
TORSDOF 4
ENDMDL
MODEL 4
REMARK VINA RESULT: -6.689086326      2.485      5.878
REMARK  4 active torsions:
REMARK  status: ('A' for Active; 'I' for Inactive)
REMARK    1  A    between atoms: C2_2  and  C3_3 
REMARK    2  A    between atoms: C3_3  and  C6_6 
REMARK    3  A    between atoms: C6_6  and  N1_7 
REMARK    4  A    between atoms: C11_18  and  N5_19 
ROOT
HETATM    1  N1  UNL     1       0.834  -0.087  -6.472  1.00  0.00    -0.306 N 
HETATM    2  C7  UNL     1       0.698   1.279  -6.424  1.00  0.00     0.183 A 
HETATM    3 CL1  UNL     1       1.075   2.374  -5.086  1.00  0.00    -0.044 Cl
HETATM    4  N2  UNL     1       0.251   1.640  -7.627  1.00  0.00    -0.327 N 
ATOM      5  H2  UNL     1       0.049   2.601  -7.901  1.00  0.00     0.168 HD
HETATM    6  C8  UNL     1       0.103   0.591  -8.416  1.00  0.00     0.118 A 
HETATM    7  C9  UNL     1      -0.303   0.387  -9.726  1.00  0.00     0.160 A 
HETATM    8  C10 UNL     1      -0.685   1.588 -10.449  1.00  0.00     0.120 C 
HETATM    9  N3  UNL     1      -0.993   2.532 -11.039  1.00  0.00    -0.190 NA
HETATM   10  N4  UNL     1      -0.347  -0.825 -10.299  1.00  0.00    -0.180 N 
ATOM     11  H4  UNL     1      -0.653  -0.929 -11.267  1.00  0.00     0.185 HD
HETATM   12  C11 UNL     1       0.019  -1.903  -9.578  1.00  0.00     0.678 A 
HETATM   13  N6  UNL     1       0.410  -1.714  -8.317  1.00  0.00    -0.174 N 
ATOM     14  H6  UNL     1       0.684  -2.541  -7.786  1.00  0.00     0.186 HD
HETATM   15  C12 UNL     1       0.476  -0.536  -7.686  1.00  0.00     0.155 A 
ENDROOT
BRANCH  12  16
HETATM   16  N5  UNL     1      -0.019  -3.085 -10.124  1.00  0.00    -0.234 N 
ATOM     17  H52 UNL     1      -0.507  -3.264 -11.003  1.00  0.00     0.174 HD
ATOM     18  H51 UNL     1       0.451  -3.867  -9.667  1.00  0.00     0.174 HD
ENDBRANCH  12  16
BRANCH   1  19
HETATM   19  C6  UNL     1       1.304  -0.833  -5.360  1.00  0.00     0.142 C 
BRANCH  19  20
HETATM   20  C3  UNL     1       0.403  -1.224  -4.260  1.00  0.00    -0.031 C 
HETATM   21  C4  UNL     1       1.066  -2.296  -3.368  1.00  0.00     0.016 C 
HETATM   22  C5  UNL     1      -0.849  -1.840  -4.819  1.00  0.00     0.016 C 
BRANCH  20  23
HETATM   23  C2  UNL     1       0.013  -0.133  -3.293  1.00  0.00     0.006 C 
HETATM   24  C1  UNL     1      -1.333   0.472  -3.553  1.00  0.00     0.006 C 
ENDBRANCH  20  23
ENDBRANCH  19  20
ENDBRANCH   1  19
TORSDOF 4
ENDMDL
MODEL 5
REMARK VINA RESULT: -6.574242558      2.106      5.302
REMARK  4 active torsions:
REMARK  status: ('A' for Active; 'I' for Inactive)
REMARK    1  A    between atoms: C2_2  and  C3_3 
REMARK    2  A    between atoms: C3_3  and  C6_6 
REMARK    3  A    between atoms: C6_6  and  N1_7 
REMARK    4  A    between atoms: C11_18  and  N5_19 
ROOT
HETATM    1  N1  UNL     1      -0.831   0.180  -6.396  1.00  0.00    -0.306 N 
HETATM    2  C7  UNL     1      -0.645  -1.180  -6.361  1.00  0.00     0.183 A 
HETATM    3 CL1  UNL     1      -0.963  -2.299  -5.029  1.00  0.00    -0.044 Cl
HETATM    4  N2  UNL     1      -0.201  -1.515  -7.573  1.00  0.00    -0.327 N 
ATOM      5  H2  UNL     1       0.032  -2.466  -7.859  1.00  0.00     0.168 HD
HETATM    6  C8  UNL     1      -0.102  -0.454  -8.355  1.00  0.00     0.118 A 
HETATM    7  C9  UNL     1       0.279  -0.224  -9.668  1.00  0.00     0.160 A 
HETATM    8  C10 UNL     1       0.693  -1.404 -10.408  1.00  0.00     0.120 C 
HETATM    9  N3  UNL     1       1.028  -2.332 -11.010  1.00  0.00    -0.190 NA
HETATM   10  N4  UNL     1       0.271   0.993 -10.231  1.00  0.00    -0.180 N 
ATOM     11  H4  UNL     1       0.560   1.117 -11.201  1.00  0.00     0.185 HD
HETATM   12  C11 UNL     1      -0.124   2.051  -9.495  1.00  0.00     0.678 A 
HETATM   13  N6  UNL     1      -0.491   1.837  -8.231  1.00  0.00    -0.174 N 
ATOM     14  H6  UNL     1      -0.787   2.649  -7.689  1.00  0.00     0.186 HD
HETATM   15  C12 UNL     1      -0.506   0.652  -7.610  1.00  0.00     0.155 A 
ENDROOT
BRANCH  12  16
HETATM   16  N5  UNL     1      -0.135   3.239 -10.031  1.00  0.00    -0.234 N 
ATOM     17  H52 UNL     1       0.303   3.434 -10.932  1.00  0.00     0.174 HD
ATOM     18  H51 UNL     1      -0.595   4.007  -9.543  1.00  0.00     0.174 HD
ENDBRANCH  12  16
BRANCH   1  19
HETATM   19  C6  UNL     1      -1.312   0.900  -5.271  1.00  0.00     0.142 C 
BRANCH  19  20
HETATM   20  C3  UNL     1      -0.400   1.378  -4.216  1.00  0.00    -0.031 C 
HETATM   21  C4  UNL     1       0.914   1.907  -4.831  1.00  0.00     0.016 C 
HETATM   22  C5  UNL     1      -0.025   0.237  -3.309  1.00  0.00     0.016 C 
BRANCH  20  23
HETATM   23  C2  UNL     1      -0.895   2.523  -3.368  1.00  0.00     0.006 C 
HETATM   24  C1  UNL     1      -2.091   2.198  -2.526  1.00  0.00     0.006 C 
ENDBRANCH  20  23
ENDBRANCH  19  20
ENDBRANCH   1  19
TORSDOF 4
ENDMDL
