MODEL 1
REMARK VINA RESULT: -6.421384505      0.000      0.000
REMARK  6 active torsions:
REMARK  status: ('A' for Active; 'I' for Inactive)
REMARK    1  A    between atoms: C2_2  and  O1_3 
REMARK    2  A    between atoms: C2_2  and  C3_6 
REMARK    3  A    between atoms: C3_6  and  C4_7 
REMARK    4  A    between atoms: C4_7  and  C5_8 
REMARK    5  A    between atoms: C5_8  and  C6_9 
REMARK    6  A    between atoms: C6_9  and  N1_10 
ROOT
HETATM    1  C6  UNL     1       0.700  -0.485  -5.749  1.00  0.00     0.273 C 
ENDROOT
BRANCH   1   2
HETATM    2  C5  UNL     1       0.742  -0.075  -4.342  1.00  0.00     0.030 C 
BRANCH   2   3
HETATM    3  C4  UNL     1      -0.044   1.216  -4.050  1.00  0.00     0.006 C 
BRANCH   3   4
HETATM    4  C3  UNL     1      -1.254   0.742  -3.273  1.00  0.00     0.054 C 
BRANCH   4   5
HETATM    5  C2  UNL     1      -1.846   1.756  -2.362  1.00  0.00     0.131 C 
HETATM    6  C1  UNL     1      -1.464   1.421  -0.939  1.00  0.00     0.064 C 
HETATM    7 CL1  UNL     1      -3.623   1.704  -2.504  1.00  0.00    -0.089 Cl
BRANCH   5   8
HETATM    8  O1  UNL     1      -1.432   3.028  -2.732  1.00  0.00    -0.375 OA
ATOM      9  H1  UNL     1      -0.788   3.008  -3.430  1.00  0.00     0.212 HD
ENDBRANCH   5   8
ENDBRANCH   4   5
ENDBRANCH   3   4
ENDBRANCH   2   3
ENDBRANCH   1   2
BRANCH   1  10
HETATM   10  N1  UNL     1       0.135   0.370  -6.705  1.00  0.00     0.097 N 
HETATM   11  C7  UNL     1       1.007   1.030  -7.612  1.00  0.00     0.223 C 
HETATM   12  C8  UNL     1       0.238   1.931  -8.538  1.00  0.00     0.036 C 
HETATM   13  C13 UNL     1       1.627  -0.105  -8.386  1.00  0.00     0.038 C 
HETATM   14  C9  UNL     1      -0.869   1.262  -9.274  1.00  0.00     0.004 C 
HETATM   15  C10 UNL     1      -1.616   0.247  -8.440  1.00  0.00     0.036 C 
HETATM   16  C11 UNL     1      -0.630  -0.495  -7.619  1.00  0.00     0.223 C 
HETATM   17  C12 UNL     1       0.456  -1.078  -8.475  1.00  0.00     0.038 C 
ENDBRANCH   1  10
TORSDOF 6
ENDMDL
MODEL 2
REMARK VINA RESULT: -6.395767923      2.986      3.819
REMARK  6 active torsions:
REMARK  status: ('A' for Active; 'I' for Inactive)
REMARK    1  A    between atoms: C2_2  and  O1_3 
REMARK    2  A    between atoms: C2_2  and  C3_6 
REMARK    3  A    between atoms: C3_6  and  C4_7 
REMARK    4  A    between atoms: C4_7  and  C5_8 
REMARK    5  A    between atoms: C5_8  and  C6_9 
REMARK    6  A    between atoms: C6_9  and  N1_10 
ROOT
HETATM    1  C6  UNL     1      -0.670   0.580  -5.767  1.00  0.00     0.273 C 
ENDROOT
BRANCH   1   2
HETATM    2  C5  UNL     1      -0.557   0.301  -4.333  1.00  0.00     0.030 C 
BRANCH   2   3
HETATM    3  C4  UNL     1       0.049  -1.077  -4.015  1.00  0.00     0.006 C 
BRANCH   3   4
HETATM    4  C3  UNL     1       1.397  -0.754  -3.406  1.00  0.00     0.054 C 
BRANCH   4   5
HETATM    5  C2  UNL     1       1.869  -1.727  -2.386  1.00  0.00     0.131 C 
HETATM    6  C1  UNL     1       1.346  -1.311  -1.031  1.00  0.00     0.064 C 
HETATM    7 CL1  UNL     1       3.652  -1.708  -2.341  1.00  0.00    -0.089 Cl
BRANCH   5   8
HETATM    8  O1  UNL     1       1.471  -3.010  -2.732  1.00  0.00    -0.375 OA
ATOM      9  H1  UNL     1       1.984  -3.365  -3.449  1.00  0.00     0.212 HD
ENDBRANCH   5   8
ENDBRANCH   4   5
ENDBRANCH   3   4
ENDBRANCH   2   3
ENDBRANCH   1   2
BRANCH   1  10
HETATM   10  N1  UNL     1      -0.141  -0.329  -6.695  1.00  0.00     0.097 N 
HETATM   11  C7  UNL     1      -1.042  -0.996  -7.568  1.00  0.00     0.223 C 
HETATM   12  C8  UNL     1      -0.311  -1.956  -8.464  1.00  0.00     0.036 C 
HETATM   13  C13 UNL     1      -1.634   0.127  -8.380  1.00  0.00     0.038 C 
HETATM   14  C9  UNL     1       0.810  -1.350  -9.236  1.00  0.00     0.004 C 
HETATM   15  C10 UNL     1       1.596  -0.328  -8.448  1.00  0.00     0.036 C 
HETATM   16  C11 UNL     1       0.642   0.476  -7.649  1.00  0.00     0.223 C 
HETATM   17  C12 UNL     1      -0.434   1.058  -8.517  1.00  0.00     0.038 C 
ENDBRANCH   1  10
TORSDOF 6
ENDMDL
MODEL 3
REMARK VINA RESULT: -6.371860642      2.988      3.397
REMARK  6 active torsions:
REMARK  status: ('A' for Active; 'I' for Inactive)
REMARK    1  A    between atoms: C2_2  and  O1_3 
REMARK    2  A    between atoms: C2_2  and  C3_6 
REMARK    3  A    between atoms: C3_6  and  C4_7 
REMARK    4  A    between atoms: C4_7  and  C5_8 
REMARK    5  A    between atoms: C5_8  and  C6_9 
REMARK    6  A    between atoms: C6_9  and  N1_10 
ROOT
HETATM    1  C6  UNL     1       0.254  -0.453  -5.973  1.00  0.00     0.273 C 
ENDROOT
BRANCH   1   2
HETATM    2  C5  UNL     1      -0.640  -0.882  -4.894  1.00  0.00     0.030 C 
BRANCH   2   3
HETATM    3  C4  UNL     1      -0.162  -0.468  -3.491  1.00  0.00     0.006 C 
BRANCH   3   4
HETATM    4  C3  UNL     1       1.330  -0.724  -3.521  1.00  0.00     0.054 C 
BRANCH   4   5
HETATM    5  C2  UNL     1       1.822  -1.668  -2.483  1.00  0.00     0.131 C 
HETATM    6  C1  UNL     1       1.281  -1.244  -1.138  1.00  0.00     0.064 C 
HETATM    7 CL1  UNL     1       3.603  -1.601  -2.429  1.00  0.00    -0.089 Cl
BRANCH   5   8
HETATM    8  O1  UNL     1       1.460  -2.966  -2.811  1.00  0.00    -0.375 OA
ATOM      9  H1  UNL     1       2.139  -3.417  -3.299  1.00  0.00     0.212 HD
ENDBRANCH   5   8
ENDBRANCH   4   5
ENDBRANCH   3   4
ENDBRANCH   2   3
ENDBRANCH   1   2
BRANCH   1  10
HETATM   10  N1  UNL     1      -0.255  -0.274  -7.267  1.00  0.00     0.097 N 
HETATM   11  C7  UNL     1      -0.288   1.043  -7.799  1.00  0.00     0.223 C 
HETATM   12  C8  UNL     1      -0.896   1.055  -9.173  1.00  0.00     0.036 C 
HETATM   13  C13 UNL     1       1.169   1.425  -7.870  1.00  0.00     0.038 C 
HETATM   14  C9  UNL     1      -0.257   0.119 -10.139  1.00  0.00     0.004 C 
HETATM   15  C10 UNL     1       0.147  -1.198  -9.520  1.00  0.00     0.036 C 
HETATM   16  C11 UNL     1       0.704  -0.927  -8.174  1.00  0.00     0.223 C 
HETATM   17  C12 UNL     1       1.806   0.089  -8.240  1.00  0.00     0.038 C 
ENDBRANCH   1  10
TORSDOF 6
ENDMDL
MODEL 4
REMARK VINA RESULT: -6.371386375      1.024      1.809
REMARK  6 active torsions:
REMARK  status: ('A' for Active; 'I' for Inactive)
REMARK    1  A    between atoms: C2_2  and  O1_3 
REMARK    2  A    between atoms: C2_2  and  C3_6 
REMARK    3  A    between atoms: C3_6  and  C4_7 
REMARK    4  A    between atoms: C4_7  and  C5_8 
REMARK    5  A    between atoms: C5_8  and  C6_9 
REMARK    6  A    between atoms: C6_9  and  N1_10 
ROOT
HETATM    1  C6  UNL     1       0.378  -0.276  -6.240  1.00  0.00     0.273 C 
ENDROOT
BRANCH   1   2
HETATM    2  C5  UNL     1       0.593   0.979  -5.514  1.00  0.00     0.030 C 
BRANCH   2   3
HETATM    3  C4  UNL     1       0.313   0.877  -4.004  1.00  0.00     0.006 C 
BRANCH   3   4
HETATM    4  C3  UNL     1      -1.194   0.977  -3.902  1.00  0.00     0.054 C 
BRANCH   4   5
HETATM    5  C2  UNL     1      -1.691   1.677  -2.689  1.00  0.00     0.131 C 
HETATM    6  C1  UNL     1      -1.083   1.032  -1.465  1.00  0.00     0.064 C 
HETATM    7 CL1  UNL     1      -3.464   1.509  -2.601  1.00  0.00    -0.089 Cl
BRANCH   5   8
HETATM    8  O1  UNL     1      -1.401   3.031  -2.768  1.00  0.00    -0.375 OA
ATOM      9  H1  UNL     1      -0.649   3.207  -3.322  1.00  0.00     0.212 HD
ENDBRANCH   5   8
ENDBRANCH   4   5
ENDBRANCH   3   4
ENDBRANCH   2   3
ENDBRANCH   1   2
BRANCH   1  10
HETATM   10  N1  UNL     1       0.587  -0.321  -7.626  1.00  0.00     0.097 N 
HETATM   11  C7  UNL     1       0.294  -1.532  -8.310  1.00  0.00     0.223 C 
HETATM   12  C8  UNL     1       0.610  -1.413  -9.774  1.00  0.00     0.036 C 
HETATM   13  C13 UNL     1      -1.192  -1.693  -8.109  1.00  0.00     0.038 C 
HETATM   14  C9  UNL     1      -0.040  -0.261 -10.456  1.00  0.00     0.004 C 
HETATM   15  C10 UNL     1      -0.089   0.988  -9.607  1.00  0.00     0.036 C 
HETATM   16  C11 UNL     1      -0.409   0.591  -8.215  1.00  0.00     0.223 C 
HETATM   17  C12 UNL     1      -1.657  -0.241  -8.164  1.00  0.00     0.038 C 
ENDBRANCH   1  10
TORSDOF 6
ENDMDL
MODEL 5
REMARK VINA RESULT: -6.364528479      3.095      3.618
REMARK  6 active torsions:
REMARK  status: ('A' for Active; 'I' for Inactive)
REMARK    1  A    between atoms: C2_2  and  O1_3 
REMARK    2  A    between atoms: C2_2  and  C3_6 
REMARK    3  A    between atoms: C3_6  and  C4_7 
REMARK    4  A    between atoms: C4_7  and  C5_8 
REMARK    5  A    between atoms: C5_8  and  C6_9 
REMARK    6  A    between atoms: C6_9  and  N1_10 
ROOT
HETATM    1  C6  UNL     1      -0.275   0.427  -6.039  1.00  0.00     0.273 C 
ENDROOT
BRANCH   1   2
HETATM    2  C5  UNL     1       0.598   0.222  -4.880  1.00  0.00     0.030 C 
BRANCH   2   3
HETATM    3  C4  UNL     1       0.285  -1.060  -4.088  1.00  0.00     0.006 C 
BRANCH   3   4
HETATM    4  C3  UNL     1       0.850  -0.787  -2.710  1.00  0.00     0.054 C 
BRANCH   4   5
HETATM    5  C2  UNL     1       1.743  -1.851  -2.181  1.00  0.00     0.131 C 
HETATM    6  C1  UNL     1       1.643  -1.872  -0.673  1.00  0.00     0.064 C 
HETATM    7 CL1  UNL     1       3.427  -1.481  -2.636  1.00  0.00    -0.089 Cl
BRANCH   5   8
HETATM    8  O1  UNL     1       1.414  -3.074  -2.747  1.00  0.00    -0.375 OA
ATOM      9  H1  UNL     1       1.100  -2.985  -3.640  1.00  0.00     0.212 HD
ENDBRANCH   5   8
ENDBRANCH   4   5
ENDBRANCH   3   4
ENDBRANCH   2   3
ENDBRANCH   1   2
BRANCH   1  10
HETATM   10  N1  UNL     1       0.225   0.214  -7.331  1.00  0.00     0.097 N 
HETATM   11  C7  UNL     1       0.241  -1.116  -7.832  1.00  0.00     0.223 C 
HETATM   12  C8  UNL     1       0.841  -1.165  -9.209  1.00  0.00     0.036 C 
HETATM   13  C13 UNL     1      -1.219  -1.485  -7.887  1.00  0.00     0.038 C 
HETATM   14  C9  UNL     1       0.206  -0.246 -10.194  1.00  0.00     0.004 C 
HETATM   15  C10 UNL     1      -0.182   1.089  -9.603  1.00  0.00     0.036 C 
HETATM   16  C11 UNL     1      -0.735   0.855  -8.248  1.00  0.00     0.223 C 
HETATM   17  C12 UNL     1      -1.846  -0.152  -8.284  1.00  0.00     0.038 C 
ENDBRANCH   1  10
TORSDOF 6
ENDMDL
