MODEL 1
REMARK VINA RESULT: -7.123483474      0.000      0.000
REMARK  1 active torsions:
REMARK  status: ('A' for Active; 'I' for Inactive)
REMARK    1  A    between atoms: C2_2  and  C4_4 
ROOT
HETATM    1  C4  UNL     1      -5.523   3.708  13.877  1.00  0.00     0.190 C 
HETATM    2  C5  UNL     1      -5.141   4.877  13.108  1.00  0.00    -0.025 A 
HETATM    3  C6  UNL     1      -6.156   5.713  12.611  1.00  0.00     0.016 A 
HETATM    4  C7  UNL     1      -5.867   6.844  11.880  1.00  0.00    -0.056 A 
HETATM    5  C8  UNL     1      -6.923   7.720  11.360  1.00  0.00     0.049 C 
HETATM    6  C9  UNL     1      -4.544   7.180  11.619  1.00  0.00    -0.056 A 
HETATM    7  C10 UNL     1      -4.275   8.402  10.829  1.00  0.00     0.049 C 
HETATM    8  C11 UNL     1      -3.537   6.372  12.097  1.00  0.00     0.017 A 
HETATM    9  C12 UNL     1      -3.858   5.230  12.836  1.00  0.00    -0.027 A 
HETATM   10  C13 UNL     1      -2.701   4.439  13.287  1.00  0.00     0.122 C 
HETATM   11  C14 UNL     1      -1.401   4.871  12.717  1.00  0.00     0.038 C 
HETATM   12  N1  UNL     1      -2.954   3.026  12.941  1.00  0.00    -0.310 N 
ATOM     13  H1  UNL     1      -2.511   2.456  12.220  1.00  0.00     0.172 HD
HETATM   14  S1  UNL     1      -4.189   2.580  14.062  1.00  0.00     0.239 S 
HETATM   15  O1  UNL     1      -3.546   2.730  15.439  1.00  0.00    -0.205 OA
HETATM   16  O2  UNL     1      -4.615   1.153  13.849  1.00  0.00    -0.205 OA
ENDROOT
BRANCH   1  17
HETATM   17  C2  UNL     1      -6.190   4.027  15.164  1.00  0.00    -0.069 C 
HETATM   18  C1  UNL     1      -6.224   5.256  15.599  1.00  0.00     0.015 C 
HETATM   19  C3  UNL     1      -6.839   2.988  16.004  1.00  0.00     0.044 C 
ENDBRANCH   1  17
TORSDOF 1
ENDMDL
MODEL 2
REMARK VINA RESULT: -6.679322672      2.817      4.488
REMARK  1 active torsions:
REMARK  status: ('A' for Active; 'I' for Inactive)
REMARK    1  A    between atoms: C2_2  and  C4_4 
ROOT
HETATM    1  C4  UNL     1      -3.470   6.287  10.781  1.00  0.00     0.190 C 
HETATM    2  C5  UNL     1      -3.067   6.818  12.069  1.00  0.00    -0.025 A 
HETATM    3  C6  UNL     1      -2.640   8.157  12.138  1.00  0.00     0.016 A 
HETATM    4  C7  UNL     1      -2.251   8.730  13.329  1.00  0.00    -0.056 A 
HETATM    5  C8  UNL     1      -1.806  10.126  13.405  1.00  0.00     0.049 C 
HETATM    6  C9  UNL     1      -2.276   7.981  14.498  1.00  0.00    -0.056 A 
HETATM    7  C10 UNL     1      -1.851   8.633  15.756  1.00  0.00     0.049 C 
HETATM    8  C11 UNL     1      -2.691   6.668  14.449  1.00  0.00     0.017 A 
HETATM    9  C12 UNL     1      -3.080   6.110  13.228  1.00  0.00    -0.027 A 
HETATM   10  C13 UNL     1      -3.495   4.700  13.296  1.00  0.00     0.122 C 
HETATM   11  C14 UNL     1      -3.243   4.047  14.605  1.00  0.00     0.038 C 
HETATM   12  N1  UNL     1      -2.787   3.967  12.227  1.00  0.00    -0.310 N 
ATOM     13  H1  UNL     1      -2.025   3.294  12.311  1.00  0.00     0.172 HD
HETATM   14  S1  UNL     1      -3.574   4.533  10.798  1.00  0.00     0.239 S 
HETATM   15  O1  UNL     1      -5.027   4.084  10.942  1.00  0.00    -0.205 OA
HETATM   16  O2  UNL     1      -2.966   3.913   9.571  1.00  0.00    -0.205 OA
ENDROOT
BRANCH   1  17
HETATM   17  C2  UNL     1      -4.682   6.930  10.217  1.00  0.00    -0.069 C 
HETATM   18  C1  UNL     1      -4.781   7.129   8.931  1.00  0.00     0.015 C 
HETATM   19  C3  UNL     1      -5.819   7.369  11.064  1.00  0.00     0.044 C 
ENDBRANCH   1  17
TORSDOF 1
ENDMDL
MODEL 3
REMARK VINA RESULT: -6.448135879      2.919      3.996
REMARK  1 active torsions:
REMARK  status: ('A' for Active; 'I' for Inactive)
REMARK    1  A    between atoms: C2_2  and  C4_4 
ROOT
HETATM    1  C4  UNL     1      -4.154   5.597  14.129  1.00  0.00     0.190 C 
HETATM    2  C5  UNL     1      -3.445   6.803  13.746  1.00  0.00    -0.025 A 
HETATM    3  C6  UNL     1      -2.637   7.439  14.705  1.00  0.00     0.016 A 
HETATM    4  C7  UNL     1      -1.928   8.583  14.408  1.00  0.00    -0.056 A 
HETATM    5  C8  UNL     1      -1.084   9.249  15.405  1.00  0.00     0.049 C 
HETATM    6  C9  UNL     1      -2.004   9.133  13.135  1.00  0.00    -0.056 A 
HETATM    7  C10 UNL     1      -1.228  10.361  12.857  1.00  0.00     0.049 C 
HETATM    8  C11 UNL     1      -2.791   8.523  12.183  1.00  0.00     0.017 A 
HETATM    9  C12 UNL     1      -3.500   7.364  12.510  1.00  0.00    -0.027 A 
HETATM   10  C13 UNL     1      -4.314   6.807  11.417  1.00  0.00     0.122 C 
HETATM   11  C14 UNL     1      -4.405   7.673  10.215  1.00  0.00     0.038 C 
HETATM   12  N1  UNL     1      -5.666   6.543  11.947  1.00  0.00    -0.310 N 
ATOM     13  H1  UNL     1      -6.535   7.042  11.756  1.00  0.00     0.172 HD
HETATM   14  S1  UNL     1      -5.408   5.177  12.972  1.00  0.00     0.239 S 
HETATM   15  O1  UNL     1      -4.927   4.068  12.039  1.00  0.00    -0.205 OA
HETATM   16  O2  UNL     1      -6.688   4.762  13.643  1.00  0.00    -0.205 OA
ENDROOT
BRANCH   1  17
HETATM   17  C2  UNL     1      -3.266   4.454  14.456  1.00  0.00    -0.069 C 
HETATM   18  C1  UNL     1      -2.008   4.481  14.108  1.00  0.00     0.015 C 
HETATM   19  C3  UNL     1      -3.749   3.250  15.177  1.00  0.00     0.044 C 
ENDBRANCH   1  17
TORSDOF 1
ENDMDL
MODEL 4
REMARK VINA RESULT: -6.419864251      2.445      2.927
REMARK  1 active torsions:
REMARK  status: ('A' for Active; 'I' for Inactive)
REMARK    1  A    between atoms: C2_2  and  C4_4 
ROOT
HETATM    1  C4  UNL     1      -4.564   3.826  13.735  1.00  0.00     0.190 C 
HETATM    2  C5  UNL     1      -3.585   4.896  13.716  1.00  0.00    -0.025 A 
HETATM    3  C6  UNL     1      -3.762   5.983  14.590  1.00  0.00     0.016 A 
HETATM    4  C7  UNL     1      -2.867   7.030  14.631  1.00  0.00    -0.056 A 
HETATM    5  C8  UNL     1      -3.048   8.166  15.541  1.00  0.00     0.049 C 
HETATM    6  C9  UNL     1      -1.758   7.024  13.796  1.00  0.00    -0.056 A 
HETATM    7  C10 UNL     1      -0.820   8.167  13.871  1.00  0.00     0.049 C 
HETATM    8  C11 UNL     1      -1.568   5.967  12.933  1.00  0.00     0.017 A 
HETATM    9  C12 UNL     1      -2.491   4.918  12.911  1.00  0.00    -0.027 A 
HETATM   10  C13 UNL     1      -2.190   3.850  11.944  1.00  0.00     0.122 C 
HETATM   11  C14 UNL     1      -1.073   4.156  11.017  1.00  0.00     0.038 C 
HETATM   12  N1  UNL     1      -3.419   3.577  11.173  1.00  0.00    -0.310 N 
ATOM     13  H1  UNL     1      -3.626   3.802  10.199  1.00  0.00     0.172 HD
HETATM   14  S1  UNL     1      -4.421   2.780  12.332  1.00  0.00     0.239 S 
HETATM   15  O1  UNL     1      -3.669   1.500  12.691  1.00  0.00    -0.205 OA
HETATM   16  O2  UNL     1      -5.759   2.437  11.736  1.00  0.00    -0.205 OA
ENDROOT
BRANCH   1  17
HETATM   17  C2  UNL     1      -4.608   3.072  15.013  1.00  0.00    -0.069 C 
HETATM   18  C1  UNL     1      -5.752   2.813  15.583  1.00  0.00     0.015 C 
HETATM   19  C3  UNL     1      -3.381   2.586  15.693  1.00  0.00     0.044 C 
ENDBRANCH   1  17
TORSDOF 1
ENDMDL
MODEL 5
REMARK VINA RESULT: -6.391549752      2.873      5.172
REMARK  1 active torsions:
REMARK  status: ('A' for Active; 'I' for Inactive)
REMARK    1  A    between atoms: C2_2  and  C4_4 
ROOT
HETATM    1  C4  UNL     1      -2.767   4.275  11.474  1.00  0.00     0.190 C 
HETATM    2  C5  UNL     1      -3.779   4.285  12.513  1.00  0.00    -0.025 A 
HETATM    3  C6  UNL     1      -3.722   3.299  13.514  1.00  0.00     0.016 A 
HETATM    4  C7  UNL     1      -4.646   3.254  14.536  1.00  0.00    -0.056 A 
HETATM    5  C8  UNL     1      -4.590   2.228  15.583  1.00  0.00     0.049 C 
HETATM    6  C9  UNL     1      -5.663   4.198  14.591  1.00  0.00    -0.056 A 
HETATM    7  C10 UNL     1      -6.635   4.115  15.704  1.00  0.00     0.049 C 
HETATM    8  C11 UNL     1      -5.734   5.171  13.619  1.00  0.00     0.017 A 
HETATM    9  C12 UNL     1      -4.785   5.194  12.593  1.00  0.00    -0.027 A 
HETATM   10  C13 UNL     1      -4.967   6.272  11.606  1.00  0.00     0.122 C 
HETATM   11  C14 UNL     1      -6.235   7.029  11.749  1.00  0.00     0.038 C 
HETATM   12  N1  UNL     1      -4.892   5.671  10.260  1.00  0.00    -0.310 N 
ATOM     13  H1  UNL     1      -5.642   5.519   9.585  1.00  0.00     0.172 HD
HETATM   14  S1  UNL     1      -3.214   5.289  10.111  1.00  0.00     0.239 S 
HETATM   15  O1  UNL     1      -2.495   6.634  10.184  1.00  0.00    -0.205 OA
HETATM   16  O2  UNL     1      -2.931   4.628   8.791  1.00  0.00    -0.205 OA
ENDROOT
BRANCH   1  17
HETATM   17  C2  UNL     1      -1.394   4.547  11.969  1.00  0.00    -0.069 C 
HETATM   18  C1  UNL     1      -0.382   3.869  11.502  1.00  0.00     0.015 C 
HETATM   19  C3  UNL     1      -1.108   5.582  12.994  1.00  0.00     0.044 C 
ENDBRANCH   1  17
TORSDOF 1
ENDMDL
