MODEL 1
REMARK VINA RESULT: -6.472134428      0.000      0.000
REMARK  2 active torsions:
REMARK  status: ('A' for Active; 'I' for Inactive)
REMARK       I    between atoms: N2_6  and  C4_8 
REMARK    1  A    between atoms: C4_8  and  C5_10 
REMARK    2  A    between atoms: C11_17  and  C12_18 
ROOT
HETATM    1  C5  UNL     1      -5.930   1.846  16.845  1.00  0.00     0.226 C 
HETATM    2  C6  UNL     1      -4.791   1.068  16.436  1.00  0.00     0.068 C 
HETATM    3  N3  UNL     1      -3.885   0.438  16.124  1.00  0.00    -0.197 NA
ENDROOT
BRANCH   1   4
HETATM    4  C4  UNL     1      -6.318   2.860  15.801  1.00  0.00     0.236 C 
HETATM    5  N2  UNL     1      -5.781   2.790  14.508  1.00  0.00    -0.312 N 
HETATM    6  C3  UNL     1      -4.978   3.660  13.992  1.00  0.00     0.114 A 
ATOM      7  H2  UNL     1      -6.044   1.991  13.931  1.00  0.00     0.170 HD
HETATM    8  N1  UNL     1      -4.593   4.724  14.690  1.00  0.00    -0.345 N 
HETATM    9  C7  UNL     1      -4.529   3.462  12.708  1.00  0.00    -0.011 A 
HETATM   10  C2  UNL     1      -3.744   5.675  14.189  1.00  0.00     0.014 A 
ATOM     11  H1  UNL     1      -4.947   4.838  15.639  1.00  0.00     0.167 HD
HETATM   12  C1  UNL     1      -3.405   6.819  15.028  1.00  0.00     0.068 C 
HETATM   13  C11 UNL     1      -3.277   5.488  12.879  1.00  0.00    -0.022 A 
HETATM   14  C9  UNL     1      -3.660   4.382  12.123  1.00  0.00    -0.043 A 
HETATM   15  C10 UNL     1      -3.216   4.058  10.793  1.00  0.00     0.049 C 
HETATM   16  C8  UNL     1      -5.011   2.235  11.976  1.00  0.00     0.052 C 
HETATM   17  O1  UNL     1      -7.133   3.793  16.070  1.00  0.00    -0.272 OA
BRANCH  13  18
HETATM   18  C12 UNL     1      -2.354   6.464  12.343  1.00  0.00    -0.022 C 
HETATM   19  C13 UNL     1      -3.159   7.511  11.549  1.00  0.00     0.019 C 
HETATM   20  C14 UNL     1      -1.444   5.833  11.241  1.00  0.00     0.019 C 
HETATM   21  C15 UNL     1      -1.354   7.151  13.218  1.00  0.00     0.019 C 
ENDBRANCH  13  18
ENDBRANCH   1   4
TORSDOF 2
ENDMDL
MODEL 2
REMARK VINA RESULT: -6.463473933      2.339      6.078
REMARK  2 active torsions:
REMARK  status: ('A' for Active; 'I' for Inactive)
REMARK       I    between atoms: N2_6  and  C4_8 
REMARK    1  A    between atoms: C4_8  and  C5_10 
REMARK    2  A    between atoms: C11_17  and  C12_18 
ROOT
HETATM    1  C5  UNL     1      -2.531   4.761  11.673  1.00  0.00     0.226 C 
HETATM    2  C6  UNL     1      -1.428   3.848  11.814  1.00  0.00     0.068 C 
HETATM    3  N3  UNL     1      -0.538   3.134  11.926  1.00  0.00    -0.197 NA
ENDROOT
BRANCH   1   4
HETATM    4  C4  UNL     1      -3.857   4.060  11.806  1.00  0.00     0.236 C 
HETATM    5  N2  UNL     1      -4.792   4.485  12.760  1.00  0.00    -0.312 N 
HETATM    6  C3  UNL     1      -5.163   3.798  13.790  1.00  0.00     0.114 A 
ATOM      7  H2  UNL     1      -5.211   5.406  12.633  1.00  0.00     0.170 HD
HETATM    8  N1  UNL     1      -4.655   2.591  14.017  1.00  0.00    -0.345 N 
HETATM    9  C7  UNL     1      -6.091   4.342  14.645  1.00  0.00    -0.011 A 
HETATM   10  C2  UNL     1      -5.013   1.822  15.093  1.00  0.00     0.014 A 
ATOM     11  H1  UNL     1      -3.967   2.220  13.361  1.00  0.00     0.167 HD
HETATM   12  C1  UNL     1      -4.415   0.499  15.236  1.00  0.00     0.068 C 
HETATM   13  C11 UNL     1      -5.961   2.363  15.975  1.00  0.00    -0.022 A 
HETATM   14  C9  UNL     1      -6.511   3.626  15.766  1.00  0.00    -0.043 A 
HETATM   15  C10 UNL     1      -7.452   4.304  16.619  1.00  0.00     0.049 C 
HETATM   16  C8  UNL     1      -6.627   5.713  14.321  1.00  0.00     0.052 C 
HETATM   17  O1  UNL     1      -4.153   3.077  11.062  1.00  0.00    -0.272 OA
BRANCH  13  18
HETATM   18  C12 UNL     1      -6.330   1.581  17.135  1.00  0.00    -0.022 C 
HETATM   19  C13 UNL     1      -7.824   1.223  17.025  1.00  0.00     0.019 C 
HETATM   20  C14 UNL     1      -6.286   2.447  18.434  1.00  0.00     0.019 C 
HETATM   21  C15 UNL     1      -5.548   0.372  17.539  1.00  0.00     0.019 C 
ENDBRANCH  13  18
ENDBRANCH   1   4
TORSDOF 2
ENDMDL
MODEL 3
REMARK VINA RESULT: -6.446418540      0.593      1.131
REMARK  2 active torsions:
REMARK  status: ('A' for Active; 'I' for Inactive)
REMARK       I    between atoms: N2_6  and  C4_8 
REMARK    1  A    between atoms: C4_8  and  C5_10 
REMARK    2  A    between atoms: C11_17  and  C12_18 
ROOT
HETATM    1  C5  UNL     1      -5.837   1.914  16.724  1.00  0.00     0.226 C 
HETATM    2  C6  UNL     1      -4.572   1.306  16.410  1.00  0.00     0.068 C 
HETATM    3  N3  UNL     1      -3.564   0.811  16.175  1.00  0.00    -0.197 NA
ENDROOT
BRANCH   1   4
HETATM    4  C4  UNL     1      -6.243   2.927  15.685  1.00  0.00     0.236 C 
HETATM    5  N2  UNL     1      -5.745   2.843  14.378  1.00  0.00    -0.312 N 
HETATM    6  C3  UNL     1      -4.946   3.700  13.833  1.00  0.00     0.114 A 
ATOM      7  H2  UNL     1      -6.034   2.043  13.814  1.00  0.00     0.170 HD
HETATM    8  N1  UNL     1      -4.529   4.764  14.513  1.00  0.00    -0.345 N 
HETATM    9  C7  UNL     1      -4.537   3.489  12.538  1.00  0.00    -0.011 A 
HETATM   10  C2  UNL     1      -3.683   5.701  13.982  1.00  0.00     0.014 A 
ATOM     11  H1  UNL     1      -4.853   4.887  15.471  1.00  0.00     0.167 HD
HETATM   12  C1  UNL     1      -3.307   6.846  14.804  1.00  0.00     0.068 C 
HETATM   13  C11 UNL     1      -3.257   5.501  12.660  1.00  0.00    -0.022 A 
HETATM   14  C9  UNL     1      -3.675   4.395  11.922  1.00  0.00    -0.043 A 
HETATM   15  C10 UNL     1      -3.273   4.057  10.582  1.00  0.00     0.049 C 
HETATM   16  C8  UNL     1      -5.054   2.264  11.828  1.00  0.00     0.052 C 
HETATM   17  O1  UNL     1      -7.039   3.872  15.972  1.00  0.00    -0.272 OA
BRANCH  13  18
HETATM   18  C12 UNL     1      -2.338   6.462  12.092  1.00  0.00    -0.022 C 
HETATM   19  C13 UNL     1      -0.908   6.077  12.516  1.00  0.00     0.019 C 
HETATM   20  C14 UNL     1      -2.517   7.868  12.749  1.00  0.00     0.019 C 
HETATM   21  C15 UNL     1      -2.362   6.794  10.634  1.00  0.00     0.019 C 
ENDBRANCH  13  18
ENDBRANCH   1   4
TORSDOF 2
ENDMDL
MODEL 4
REMARK VINA RESULT: -6.433401696      2.020      2.766
REMARK  2 active torsions:
REMARK  status: ('A' for Active; 'I' for Inactive)
REMARK       I    between atoms: N2_6  and  C4_8 
REMARK    1  A    between atoms: C4_8  and  C5_10 
REMARK    2  A    between atoms: C11_17  and  C12_18 
ROOT
HETATM    1  C5  UNL     1      -4.485   0.754  15.455  1.00  0.00     0.226 C 
HETATM    2  C6  UNL     1      -5.221   0.427  16.647  1.00  0.00     0.068 C 
HETATM    3  N3  UNL     1      -5.811   0.151  17.591  1.00  0.00    -0.197 NA
ENDROOT
BRANCH   1   4
HETATM    4  C4  UNL     1      -3.910   2.145  15.517  1.00  0.00     0.236 C 
HETATM    5  N2  UNL     1      -4.588   3.220  14.926  1.00  0.00    -0.312 N 
HETATM    6  C3  UNL     1      -4.167   3.889  13.904  1.00  0.00     0.114 A 
ATOM      7  H2  UNL     1      -5.482   3.495  15.334  1.00  0.00     0.170 HD
HETATM    8  N1  UNL     1      -3.011   3.582  13.323  1.00  0.00    -0.345 N 
HETATM    9  C7  UNL     1      -4.939   4.923  13.430  1.00  0.00    -0.011 A 
HETATM   10  C2  UNL     1      -2.521   4.260  12.238  1.00  0.00     0.014 A 
ATOM     11  H1  UNL     1      -2.466   2.809  13.702  1.00  0.00     0.167 HD
HETATM   12  C1  UNL     1      -1.228   3.860  11.692  1.00  0.00     0.068 C 
HETATM   13  C11 UNL     1      -3.297   5.318  11.743  1.00  0.00    -0.022 A 
HETATM   14  C9  UNL     1      -4.514   5.663  12.328  1.00  0.00    -0.043 A 
HETATM   15  C10 UNL     1      -5.416   6.693  11.886  1.00  0.00     0.049 C 
HETATM   16  C8  UNL     1      -6.235   5.216  14.142  1.00  0.00     0.052 C 
HETATM   17  O1  UNL     1      -2.807   2.369  16.100  1.00  0.00    -0.272 OA
BRANCH  13  18
HETATM   18  C12 UNL     1      -2.812   6.026  10.578  1.00  0.00    -0.022 C 
HETATM   19  C13 UNL     1      -2.071   7.291  11.051  1.00  0.00     0.019 C 
HETATM   20  C14 UNL     1      -3.994   6.619   9.748  1.00  0.00     0.019 C 
HETATM   21  C15 UNL     1      -2.008   5.332   9.525  1.00  0.00     0.019 C 
ENDBRANCH  13  18
ENDBRANCH   1   4
TORSDOF 2
ENDMDL
MODEL 5
REMARK VINA RESULT: -6.356936116      2.014      2.812
REMARK  2 active torsions:
REMARK  status: ('A' for Active; 'I' for Inactive)
REMARK       I    between atoms: N2_6  and  C4_8 
REMARK    1  A    between atoms: C4_8  and  C5_10 
REMARK    2  A    between atoms: C11_17  and  C12_18 
ROOT
HETATM    1  C5  UNL     1      -3.759   2.302  15.795  1.00  0.00     0.226 C 
HETATM    2  C6  UNL     1      -4.276   0.993  15.494  1.00  0.00     0.068 C 
HETATM    3  N3  UNL     1      -4.683  -0.055  15.271  1.00  0.00    -0.197 NA
ENDROOT
BRANCH   1   4
HETATM    4  C4  UNL     1      -4.020   3.277  14.676  1.00  0.00     0.236 C 
HETATM    5  N2  UNL     1      -3.008   3.595  13.760  1.00  0.00    -0.312 N 
HETATM    6  C3  UNL     1      -2.450   4.755  13.647  1.00  0.00     0.114 A 
ATOM      7  H2  UNL     1      -2.688   2.855  13.135  1.00  0.00     0.170 HD
HETATM    8  N1  UNL     1      -2.818   5.762  14.432  1.00  0.00    -0.345 N 
HETATM    9  C7  UNL     1      -1.467   4.923  12.701  1.00  0.00    -0.011 A 
HETATM   10  C2  UNL     1      -2.258   7.010  14.353  1.00  0.00     0.014 A 
ATOM     11  H1  UNL     1      -3.551   5.600  15.122  1.00  0.00     0.167 HD
HETATM   12  C1  UNL     1      -2.754   8.055  15.242  1.00  0.00     0.068 C 
HETATM   13  C11 UNL     1      -1.254   7.199  13.391  1.00  0.00    -0.022 A 
HETATM   14  C9  UNL     1      -0.844   6.162  12.556  1.00  0.00    -0.043 A 
HETATM   15  C10 UNL     1       0.201   6.219  11.568  1.00  0.00     0.049 C 
HETATM   16  C8  UNL     1      -1.104   3.737  11.845  1.00  0.00     0.052 C 
HETATM   17  O1  UNL     1      -5.155   3.826  14.543  1.00  0.00    -0.272 OA
BRANCH  13  18
HETATM   18  C12 UNL     1      -0.627   8.500  13.314  1.00  0.00    -0.022 C 
HETATM   19  C13 UNL     1      -1.257   9.274  12.139  1.00  0.00     0.019 C 
HETATM   20  C14 UNL     1       0.867   8.380  12.875  1.00  0.00     0.019 C 
HETATM   21  C15 UNL     1      -0.530   9.390  14.512  1.00  0.00     0.019 C 
ENDBRANCH  13  18
ENDBRANCH   1   4
TORSDOF 2
ENDMDL
