MODEL 1
REMARK VINA RESULT: -7.980300278      0.000      0.000
REMARK  5 active torsions:
REMARK  status: ('A' for Active; 'I' for Inactive)
REMARK    1  A    between atoms: C5_6  and  S1_7 
REMARK    2  A    between atoms: S1_7  and  C6_8 
REMARK    3  A    between atoms: C8_12  and  C9_13 
REMARK    4  A    between atoms: C11_18  and  C12_19 
REMARK       I    between atoms: C12_19  and  N4_21 
REMARK    5  A    between atoms: C15_24  and  C16_26 
ROOT
HETATM    1  N1  UNL     1      28.552  51.147   1.144  1.00  0.00    -0.191 NA
HETATM    2  C1  UNL     1      28.275  50.928   0.043  1.00  0.00     0.100 C 
HETATM    3  C2  UNL     1      27.947  50.653  -1.341  1.00  0.00     0.060 A 
HETATM    4  C3  UNL     1      28.970  50.468  -2.250  1.00  0.00     0.025 A 
HETATM    5  C4  UNL     1      28.681  50.203  -3.582  1.00  0.00     0.020 A 
HETATM    6  C5  UNL     1      27.378  50.122  -4.008  1.00  0.00     0.007 A 
HETATM    7  C10 UNL     1      26.372  50.308  -3.087  1.00  0.00     0.037 A 
HETATM    8  C11 UNL     1      26.640  50.573  -1.758  1.00  0.00     0.054 A 
ENDROOT
BRANCH   8   9
HETATM    9  C12 UNL     1      25.578  50.769  -0.787  1.00  0.00     0.255 C 
HETATM   10  O2  UNL     1      24.958  51.873  -0.848  1.00  0.00    -0.267 OA
HETATM   11  N4  UNL     1      25.229  49.806   0.188  1.00  0.00    -0.348 N 
HETATM   12  C13 UNL     1      25.893  48.528   0.314  1.00  0.00     0.129 C 
HETATM   13  C20 UNL     1      24.152  50.106   1.106  1.00  0.00     0.129 C 
HETATM   14  C14 UNL     1      25.254  47.753   1.460  1.00  0.00     0.064 C 
HETATM   15  C15 UNL     1      23.759  47.702   1.336  1.00  0.00     0.110 C 
HETATM   16  F1  UNL     1      23.451  46.744   0.378  1.00  0.00    -0.242 F 
HETATM   17  C19 UNL     1      23.125  49.005   0.953  1.00  0.00     0.064 C 
BRANCH  15  18
HETATM   18  C16 UNL     1      23.162  47.261   2.661  1.00  0.00     0.025 A 
HETATM   19  C17 UNL     1      24.078  46.660   3.656  1.00  0.00     0.008 A 
HETATM   20  C18 UNL     1      23.108  45.791   2.908  1.00  0.00     0.008 A 
ENDBRANCH  15  18
ENDBRANCH   8   9
BRANCH   6  21
HETATM   21  S1  UNL     1      27.023  49.785  -5.700  1.00  0.00    -0.082 SA
BRANCH  21  22
HETATM   22  C6  UNL     1      25.372  50.320  -6.162  1.00  0.00     0.063 A 
HETATM   23  C7  UNL     1      24.520  49.764  -7.079  1.00  0.00     0.115 A 
HETATM   24  N2  UNL     1      23.366  50.320  -7.254  1.00  0.00    -0.354 N 
HETATM   25  C8  UNL     1      23.041  51.393  -6.553  1.00  0.00     0.141 A 
ATOM     26  H2  UNL     1      22.708  49.932  -7.930  1.00  0.00     0.166 HD
HETATM   27  S2  UNL     1      24.428  51.643  -5.594  1.00  0.00    -0.059 SA
BRANCH  25  28
HETATM   28  C9  UNL     1      21.779  52.128  -6.640  1.00  0.00     0.288 C 
HETATM   29  N3  UNL     1      21.269  52.874  -5.548  1.00  0.00    -0.055 NA
HETATM   30  O1  UNL     1      21.115  52.109  -7.703  1.00  0.00    -0.269 OA
ENDBRANCH  25  28
ENDBRANCH  21  22
ENDBRANCH   6  21
TORSDOF 5
ENDMDL
MODEL 2
REMARK VINA RESULT: -7.778340415      4.946      9.358
REMARK  5 active torsions:
REMARK  status: ('A' for Active; 'I' for Inactive)
REMARK    1  A    between atoms: C5_6  and  S1_7 
REMARK    2  A    between atoms: S1_7  and  C6_8 
REMARK    3  A    between atoms: C8_12  and  C9_13 
REMARK    4  A    between atoms: C11_18  and  C12_19 
REMARK       I    between atoms: C12_19  and  N4_21 
REMARK    5  A    between atoms: C15_24  and  C16_26 
ROOT
HETATM    1  N1  UNL     1      25.145  49.202   0.129  1.00  0.00    -0.191 NA
HETATM    2  C1  UNL     1      26.148  49.765   0.245  1.00  0.00     0.100 C 
HETATM    3  C2  UNL     1      27.403  50.469   0.410  1.00  0.00     0.060 A 
HETATM    4  C3  UNL     1      27.915  50.641   1.682  1.00  0.00     0.025 A 
HETATM    5  C4  UNL     1      29.116  51.312   1.865  1.00  0.00     0.020 A 
HETATM    6  C5  UNL     1      29.806  51.811   0.788  1.00  0.00     0.007 A 
HETATM    7  C10 UNL     1      29.280  51.630  -0.471  1.00  0.00     0.037 A 
HETATM    8  C11 UNL     1      28.086  50.965  -0.674  1.00  0.00     0.054 A 
ENDROOT
BRANCH   8   9
HETATM    9  C12 UNL     1      27.532  50.774  -2.002  1.00  0.00     0.255 C 
HETATM   10  O2  UNL     1      27.951  49.766  -2.647  1.00  0.00    -0.267 OA
HETATM   11  N4  UNL     1      26.578  51.645  -2.579  1.00  0.00    -0.348 N 
HETATM   12  C13 UNL     1      26.058  52.812  -1.901  1.00  0.00     0.129 C 
HETATM   13  C20 UNL     1      26.093  51.360  -3.911  1.00  0.00     0.129 C 
HETATM   14  C14 UNL     1      25.054  53.504  -2.815  1.00  0.00     0.064 C 
HETATM   15  C15 UNL     1      24.028  52.546  -3.346  1.00  0.00     0.110 C 
HETATM   16  F1  UNL     1      23.106  52.317  -2.333  1.00  0.00    -0.242 F 
HETATM   17  C19 UNL     1      24.587  51.236  -3.811  1.00  0.00     0.064 C 
BRANCH  15  18
HETATM   18  C16 UNL     1      23.303  53.189  -4.515  1.00  0.00     0.025 A 
HETATM   19  C17 UNL     1      21.824  53.150  -4.505  1.00  0.00     0.008 A 
HETATM   20  C18 UNL     1      22.591  52.265  -5.444  1.00  0.00     0.008 A 
ENDBRANCH  15  18
ENDBRANCH   8   9
BRANCH   6  21
HETATM   21  S1  UNL     1      31.330  52.661   1.034  1.00  0.00    -0.082 SA
BRANCH  21  22
HETATM   22  C6  UNL     1      31.571  53.129   2.751  1.00  0.00     0.063 A 
HETATM   23  C7  UNL     1      32.533  52.700   3.626  1.00  0.00     0.115 A 
HETATM   24  N2  UNL     1      32.518  53.173   4.829  1.00  0.00    -0.354 N 
HETATM   25  C8  UNL     1      31.589  54.046   5.180  1.00  0.00     0.141 A 
ATOM     26  H2  UNL     1      33.220  52.873   5.505  1.00  0.00     0.166 HD
HETATM   27  S2  UNL     1      30.682  54.217   3.747  1.00  0.00    -0.059 SA
BRANCH  25  28
HETATM   28  C9  UNL     1      31.445  54.666   6.497  1.00  0.00     0.288 C 
HETATM   29  N3  UNL     1      30.535  54.168   7.464  1.00  0.00    -0.055 NA
HETATM   30  O1  UNL     1      32.137  55.666   6.798  1.00  0.00    -0.269 OA
ENDBRANCH  25  28
ENDBRANCH  21  22
ENDBRANCH   6  21
TORSDOF 5
ENDMDL
MODEL 3
REMARK VINA RESULT: -7.750275838      0.993      1.095
REMARK  5 active torsions:
REMARK  status: ('A' for Active; 'I' for Inactive)
REMARK    1  A    between atoms: C5_6  and  S1_7 
REMARK    2  A    between atoms: S1_7  and  C6_8 
REMARK    3  A    between atoms: C8_12  and  C9_13 
REMARK    4  A    between atoms: C11_18  and  C12_19 
REMARK       I    between atoms: C12_19  and  N4_21 
REMARK    5  A    between atoms: C15_24  and  C16_26 
ROOT
HETATM    1  N1  UNL     1      28.424  51.166   1.173  1.00  0.00    -0.191 NA
HETATM    2  C1  UNL     1      28.190  50.938   0.063  1.00  0.00     0.100 C 
HETATM    3  C2  UNL     1      27.917  50.654  -1.330  1.00  0.00     0.060 A 
HETATM    4  C3  UNL     1      28.976  50.471  -2.199  1.00  0.00     0.025 A 
HETATM    5  C4  UNL     1      28.739  50.197  -3.539  1.00  0.00     0.020 A 
HETATM    6  C5  UNL     1      27.455  50.104  -4.014  1.00  0.00     0.007 A 
HETATM    7  C10 UNL     1      26.413  50.288  -3.133  1.00  0.00     0.037 A 
HETATM    8  C11 UNL     1      26.628  50.562  -1.796  1.00  0.00     0.054 A 
ENDROOT
BRANCH   8   9
HETATM    9  C12 UNL     1      25.528  50.757  -0.868  1.00  0.00     0.255 C 
HETATM   10  O2  UNL     1      24.881  51.840  -0.983  1.00  0.00    -0.267 OA
HETATM   11  N4  UNL     1      25.172  49.812   0.123  1.00  0.00    -0.348 N 
HETATM   12  C13 UNL     1      25.866  48.558   0.310  1.00  0.00     0.129 C 
HETATM   13  C20 UNL     1      24.057  50.109   0.995  1.00  0.00     0.129 C 
HETATM   14  C14 UNL     1      25.209  47.799   1.456  1.00  0.00     0.064 C 
HETATM   15  C15 UNL     1      23.721  47.702   1.284  1.00  0.00     0.110 C 
HETATM   16  F1  UNL     1      23.473  46.708   0.345  1.00  0.00    -0.242 F 
HETATM   17  C19 UNL     1      23.066  48.974   0.841  1.00  0.00     0.064 C 
BRANCH  15  18
HETATM   18  C16 UNL     1      23.092  47.283   2.600  1.00  0.00     0.025 A 
HETATM   19  C17 UNL     1      23.992  46.751   3.648  1.00  0.00     0.008 A 
HETATM   20  C18 UNL     1      23.084  45.821   2.897  1.00  0.00     0.008 A 
ENDBRANCH  15  18
ENDBRANCH   8   9
BRANCH   6  21
HETATM   21  S1  UNL     1      27.167  49.755  -5.717  1.00  0.00    -0.082 SA
BRANCH  21  22
HETATM   22  C6  UNL     1      25.740  50.640  -6.354  1.00  0.00     0.063 A 
HETATM   23  C7  UNL     1      25.579  51.989  -6.527  1.00  0.00     0.115 A 
HETATM   24  N2  UNL     1      24.455  52.413  -7.005  1.00  0.00    -0.354 N 
HETATM   25  C8  UNL     1      23.504  51.547  -7.312  1.00  0.00     0.141 A 
ATOM     26  H2  UNL     1      24.303  53.411  -7.146  1.00  0.00     0.166 HD
HETATM   27  S2  UNL     1      24.219  50.053  -6.908  1.00  0.00    -0.059 SA
BRANCH  25  28
HETATM   28  C9  UNL     1      22.188  51.873  -7.860  1.00  0.00     0.288 C 
HETATM   29  N3  UNL     1      21.952  51.942  -9.256  1.00  0.00    -0.055 NA
HETATM   30  O1  UNL     1      21.227  52.101  -7.088  1.00  0.00    -0.269 OA
ENDBRANCH  25  28
ENDBRANCH  21  22
ENDBRANCH   6  21
TORSDOF 5
ENDMDL
MODEL 4
REMARK VINA RESULT: -7.694131513      3.753      8.458
REMARK  5 active torsions:
REMARK  status: ('A' for Active; 'I' for Inactive)
REMARK    1  A    between atoms: C5_6  and  S1_7 
REMARK    2  A    between atoms: S1_7  and  C6_8 
REMARK    3  A    between atoms: C8_12  and  C9_13 
REMARK    4  A    between atoms: C11_18  and  C12_19 
REMARK       I    between atoms: C12_19  and  N4_21 
REMARK    5  A    between atoms: C15_24  and  C16_26 
ROOT
HETATM    1  N1  UNL     1      24.241  55.158  -4.877  1.00  0.00    -0.191 NA
HETATM    2  C1  UNL     1      24.597  54.284  -4.208  1.00  0.00     0.100 C 
HETATM    3  C2  UNL     1      25.054  53.203  -3.360  1.00  0.00     0.060 A 
HETATM    4  C3  UNL     1      25.934  53.481  -2.332  1.00  0.00     0.025 A 
HETATM    5  C4  UNL     1      26.387  52.461  -1.506  1.00  0.00     0.020 A 
HETATM    6  C5  UNL     1      25.966  51.169  -1.702  1.00  0.00     0.007 A 
HETATM    7  C10 UNL     1      25.088  50.912  -2.730  1.00  0.00     0.037 A 
HETATM    8  C11 UNL     1      24.627  51.913  -3.563  1.00  0.00     0.054 A 
ENDROOT
BRANCH   8   9
HETATM    9  C12 UNL     1      23.702  51.640  -4.649  1.00  0.00     0.255 C 
HETATM   10  O2  UNL     1      22.523  52.084  -4.507  1.00  0.00    -0.267 OA
HETATM   11  N4  UNL     1      24.060  50.921  -5.813  1.00  0.00    -0.348 N 
HETATM   12  C13 UNL     1      25.384  50.388  -6.039  1.00  0.00     0.129 C 
HETATM   13  C20 UNL     1      23.057  50.708  -6.833  1.00  0.00     0.129 C 
HETATM   14  C14 UNL     1      25.406  49.684  -7.390  1.00  0.00     0.064 C 
HETATM   15  C15 UNL     1      24.858  50.554  -8.484  1.00  0.00     0.110 C 
HETATM   16  F1  UNL     1      25.846  51.467  -8.826  1.00  0.00    -0.242 F 
HETATM   17  C19 UNL     1      23.607  51.293  -8.117  1.00  0.00     0.064 C 
BRANCH  15  18
HETATM   18  C16 UNL     1      24.557  49.697  -9.701  1.00  0.00     0.025 A 
HETATM   19  C17 UNL     1      25.520  49.743 -10.823  1.00  0.00     0.008 A 
HETATM   20  C18 UNL     1      24.188  50.423 -10.950  1.00  0.00     0.008 A 
ENDBRANCH  15  18
ENDBRANCH   8   9
BRANCH   6  21
HETATM   21  S1  UNL     1      26.547  49.883  -0.647  1.00  0.00    -0.082 SA
BRANCH  21  22
HETATM   22  C6  UNL     1      25.206  49.084   0.243  1.00  0.00     0.063 A 
HETATM   23  C7  UNL     1      23.874  49.401   0.243  1.00  0.00     0.115 A 
HETATM   24  N2  UNL     1      23.077  48.683   0.966  1.00  0.00    -0.354 N 
HETATM   25  C8  UNL     1      23.560  47.677   1.674  1.00  0.00     0.141 A 
ATOM     26  H2  UNL     1      22.079  48.894   0.989  1.00  0.00     0.166 HD
HETATM   27  S2  UNL     1      25.225  47.735   1.312  1.00  0.00    -0.059 SA
BRANCH  25  28
HETATM   28  C9  UNL     1      22.787  46.781   2.533  1.00  0.00     0.288 C 
HETATM   29  N3  UNL     1      23.411  45.850   3.402  1.00  0.00    -0.055 NA
HETATM   30  O1  UNL     1      21.534  46.823   2.517  1.00  0.00    -0.269 OA
ENDBRANCH  25  28
ENDBRANCH  21  22
ENDBRANCH   6  21
TORSDOF 5
ENDMDL
MODEL 5
REMARK VINA RESULT: -7.662376205      3.496      7.177
REMARK  5 active torsions:
REMARK  status: ('A' for Active; 'I' for Inactive)
REMARK    1  A    between atoms: C5_6  and  S1_7 
REMARK    2  A    between atoms: S1_7  and  C6_8 
REMARK    3  A    between atoms: C8_12  and  C9_13 
REMARK    4  A    between atoms: C11_18  and  C12_19 
REMARK       I    between atoms: C12_19  and  N4_21 
REMARK    5  A    between atoms: C15_24  and  C16_26 
ROOT
HETATM    1  N1  UNL     1      29.257  52.775  -5.967  1.00  0.00    -0.191 NA
HETATM    2  C1  UNL     1      28.952  52.403  -4.914  1.00  0.00     0.100 C 
HETATM    3  C2  UNL     1      28.588  51.944  -3.590  1.00  0.00     0.060 A 
HETATM    4  C3  UNL     1      29.490  52.096  -2.554  1.00  0.00     0.025 A 
HETATM    5  C4  UNL     1      29.164  51.663  -1.276  1.00  0.00     0.020 A 
HETATM    6  C5  UNL     1      27.945  51.082  -1.028  1.00  0.00     0.007 A 
HETATM    7  C10 UNL     1      27.060  50.940  -2.072  1.00  0.00     0.037 A 
HETATM    8  C11 UNL     1      27.366  51.364  -3.351  1.00  0.00     0.054 A 
ENDROOT
BRANCH   8   9
HETATM    9  C12 UNL     1      26.431  51.213  -4.452  1.00  0.00     0.255 C 
HETATM   10  O2  UNL     1      26.602  50.205  -5.200  1.00  0.00    -0.267 OA
HETATM   11  N4  UNL     1      25.378  52.123  -4.707  1.00  0.00    -0.348 N 
HETATM   12  C13 UNL     1      25.126  53.292  -3.896  1.00  0.00     0.129 C 
HETATM   13  C20 UNL     1      24.504  51.875  -5.833  1.00  0.00     0.129 C 
HETATM   14  C14 UNL     1      23.918  54.030  -4.459  1.00  0.00     0.064 C 
HETATM   15  C15 UNL     1      22.747  53.113  -4.663  1.00  0.00     0.110 C 
HETATM   16  F1  UNL     1      22.166  52.895  -3.421  1.00  0.00    -0.242 F 
HETATM   17  C19 UNL     1      23.095  51.795  -5.285  1.00  0.00     0.064 C 
BRANCH  15  18
HETATM   18  C16 UNL     1      21.726  53.798  -5.554  1.00  0.00     0.025 A 
HETATM   19  C17 UNL     1      20.555  54.420  -4.898  1.00  0.00     0.008 A 
HETATM   20  C18 UNL     1      20.392  53.139  -5.663  1.00  0.00     0.008 A 
ENDBRANCH  15  18
ENDBRANCH   8   9
BRANCH   6  21
HETATM   21  S1  UNL     1      27.542  50.537   0.598  1.00  0.00    -0.082 SA
BRANCH  21  22
HETATM   22  C6  UNL     1      25.834  49.999   0.724  1.00  0.00     0.063 A 
HETATM   23  C7  UNL     1      24.691  50.742   0.586  1.00  0.00     0.115 A 
HETATM   24  N2  UNL     1      23.554  50.142   0.719  1.00  0.00    -0.354 N 
HETATM   25  C8  UNL     1      23.521  48.847   0.982  1.00  0.00     0.141 A 
ATOM     26  H2  UNL     1      22.685  50.667   0.623  1.00  0.00     0.166 HD
HETATM   27  S2  UNL     1      25.176  48.441   1.046  1.00  0.00    -0.059 SA
BRANCH  25  28
HETATM   28  C9  UNL     1      22.317  48.035   1.158  1.00  0.00     0.288 C 
HETATM   29  N3  UNL     1      22.175  47.131   2.241  1.00  0.00    -0.055 NA
HETATM   30  O1  UNL     1      21.373  48.129   0.340  1.00  0.00    -0.269 OA
ENDBRANCH  25  28
ENDBRANCH  21  22
ENDBRANCH   6  21
TORSDOF 5
ENDMDL
