MODEL 1
REMARK VINA RESULT: -4.263449494      0.000      0.000
REMARK  3 active torsions:
REMARK  status: ('A' for Active; 'I' for Inactive)
REMARK    1  A    between atoms: C2_2  and  C3_3 
REMARK    2  A    between atoms: C3_3  and  N1_4 
REMARK    3  A    between atoms: C7_11  and  N2_13 
ROOT
HETATM    1  C3  UNL     1      12.898  15.221  44.040  1.00  0.00     0.155 C 
HETATM    2  C4  UNL     1      13.345  15.626  42.663  1.00  0.00     0.041 C 
HETATM    3  C5  UNL     1      14.835  15.452  42.716  1.00  0.00     0.005 C 
HETATM    4  C6  UNL     1      15.171  16.067  44.066  1.00  0.00     0.041 C 
HETATM    5  C7  UNL     1      14.000  15.724  44.930  1.00  0.00     0.152 C 
HETATM    6  C8  UNL     1      13.535  16.889  45.780  1.00  0.00     0.049 C 
ENDROOT
BRANCH   1   7
HETATM    7  C2  UNL     1      12.789  13.722  44.192  1.00  0.00     0.037 C 
HETATM    8  C1  UNL     1      11.396  13.245  44.432  1.00  0.00     0.007 C 
ENDBRANCH   1   7
BRANCH   1   9
HETATM    9  N1  UNL     1      11.624  15.831  44.307  1.00  0.00    -0.068 N 
ATOM     10  H13 UNL     1      11.196  16.209  43.462  1.00  0.00     0.275 HD
ATOM     11  H12 UNL     1      10.910  15.141  44.538  1.00  0.00     0.275 HD
ATOM     12  H11 UNL     1      11.725  16.537  45.035  1.00  0.00     0.275 HD
ENDBRANCH   1   9
BRANCH   5  13
HETATM   13  N2  UNL     1      14.445  14.688  45.866  1.00  0.00    -0.068 N 
ATOM     14  H23 UNL     1      14.504  13.776  45.413  1.00  0.00     0.275 HD
ATOM     15  H22 UNL     1      15.427  14.805  46.113  1.00  0.00     0.275 HD
ATOM     16  H21 UNL     1      13.851  14.657  46.694  1.00  0.00     0.275 HD
ENDBRANCH   5  13
TORSDOF 3
ENDMDL
MODEL 2
REMARK VINA RESULT: -4.247356229      1.604      2.594
REMARK  3 active torsions:
REMARK  status: ('A' for Active; 'I' for Inactive)
REMARK    1  A    between atoms: C2_2  and  C3_3 
REMARK    2  A    between atoms: C3_3  and  N1_4 
REMARK    3  A    between atoms: C7_11  and  N2_13 
ROOT
HETATM    1  C3  UNL     1      13.856  15.746  43.123  1.00  0.00     0.155 C 
HETATM    2  C4  UNL     1      15.036  16.535  43.618  1.00  0.00     0.041 C 
HETATM    3  C5  UNL     1      15.440  15.809  44.868  1.00  0.00     0.005 C 
HETATM    4  C6  UNL     1      14.093  15.559  45.530  1.00  0.00     0.041 C 
HETATM    5  C7  UNL     1      13.157  15.328  44.387  1.00  0.00     0.152 C 
HETATM    6  C8  UNL     1      11.837  16.051  44.552  1.00  0.00     0.049 C 
ENDROOT
BRANCH   1   7
HETATM    7  C2  UNL     1      14.269  14.510  42.358  1.00  0.00     0.037 C 
HETATM    8  C1  UNL     1      15.360  14.755  41.371  1.00  0.00     0.007 C 
ENDBRANCH   1   7
BRANCH   1   9
HETATM    9  N1  UNL     1      13.057  16.594  42.282  1.00  0.00    -0.068 N 
ATOM     10  H13 UNL     1      13.243  16.437  41.292  1.00  0.00     0.275 HD
ATOM     11  H12 UNL     1      12.073  16.327  42.292  1.00  0.00     0.275 HD
ATOM     12  H11 UNL     1      13.192  17.569  42.547  1.00  0.00     0.275 HD
ENDBRANCH   1   9
BRANCH   5  13
HETATM   13  N2  UNL     1      12.841  13.897  44.373  1.00  0.00    -0.068 N 
ATOM     14  H23 UNL     1      13.683  13.329  44.288  1.00  0.00     0.275 HD
ATOM     15  H22 UNL     1      12.525  13.575  45.288  1.00  0.00     0.275 HD
ATOM     16  H21 UNL     1      12.164  13.674  43.644  1.00  0.00     0.275 HD
ENDBRANCH   5  13
TORSDOF 3
ENDMDL
MODEL 3
REMARK VINA RESULT: -4.216427229      1.571      2.758
REMARK  3 active torsions:
REMARK  status: ('A' for Active; 'I' for Inactive)
REMARK    1  A    between atoms: C2_2  and  C3_3 
REMARK    2  A    between atoms: C3_3  and  N1_4 
REMARK    3  A    between atoms: C7_11  and  N2_13 
ROOT
HETATM    1  C3  UNL     1      13.105  15.133  44.476  1.00  0.00     0.155 C 
HETATM    2  C4  UNL     1      14.291  15.132  45.401  1.00  0.00     0.041 C 
HETATM    3  C5  UNL     1      15.284  16.008  44.694  1.00  0.00     0.005 C 
HETATM    4  C6  UNL     1      15.170  15.510  43.261  1.00  0.00     0.041 C 
HETATM    5  C7  UNL     1      13.727  15.152  43.107  1.00  0.00     0.152 C 
HETATM    6  C8  UNL     1      13.520  13.834  42.390  1.00  0.00     0.049 C 
ENDROOT
BRANCH   1   7
HETATM    7  C2  UNL     1      12.246  16.365  44.643  1.00  0.00     0.037 C 
HETATM    8  C1  UNL     1      10.839  16.064  45.034  1.00  0.00     0.007 C 
ENDBRANCH   1   7
BRANCH   1   9
HETATM    9  N1  UNL     1      12.322  13.956  44.733  1.00  0.00    -0.068 N 
ATOM     10  H13 UNL     1      12.270  13.740  45.728  1.00  0.00     0.275 HD
ATOM     11  H12 UNL     1      11.328  14.112  44.564  1.00  0.00     0.275 HD
ATOM     12  H11 UNL     1      12.685  13.174  44.189  1.00  0.00     0.275 HD
ENDBRANCH   1   9
BRANCH   5  13
HETATM   13  N2  UNL     1      13.117  16.179  42.259  1.00  0.00    -0.068 N 
ATOM     14  H23 UNL     1      12.760  16.957  42.812  1.00  0.00     0.275 HD
ATOM     15  H22 UNL     1      13.819  16.680  41.715  1.00  0.00     0.275 HD
ATOM     16  H21 UNL     1      12.393  15.783  41.660  1.00  0.00     0.275 HD
ENDBRANCH   5  13
TORSDOF 3
ENDMDL
MODEL 4
REMARK VINA RESULT: -4.139884593      2.847      3.579
REMARK  3 active torsions:
REMARK  status: ('A' for Active; 'I' for Inactive)
REMARK    1  A    between atoms: C2_2  and  C3_3 
REMARK    2  A    between atoms: C3_3  and  N1_4 
REMARK    3  A    between atoms: C7_11  and  N2_13 
ROOT
HETATM    1  C3  UNL     1      10.621  14.769  46.406  1.00  0.00     0.155 C 
HETATM    2  C4  UNL     1       9.453  15.694  46.202  1.00  0.00     0.041 C 
HETATM    3  C5  UNL     1       9.902  16.578  45.076  1.00  0.00     0.005 C 
HETATM    4  C6  UNL     1      11.333  16.897  45.485  1.00  0.00     0.041 C 
HETATM    5  C7  UNL     1      11.814  15.648  46.150  1.00  0.00     0.152 C 
HETATM    6  C8  UNL     1      12.582  15.919  47.427  1.00  0.00     0.049 C 
ENDROOT
BRANCH   1   7
HETATM    7  C2  UNL     1      10.631  13.627  45.417  1.00  0.00     0.037 C 
HETATM    8  C1  UNL     1       9.910  12.413  45.898  1.00  0.00     0.007 C 
ENDBRANCH   1   7
BRANCH   1   9
HETATM    9  N1  UNL     1      10.568  14.251  47.745  1.00  0.00    -0.068 N 
ATOM     10  H13 UNL     1       9.846  13.540  47.853  1.00  0.00     0.275 HD
ATOM     11  H12 UNL     1      11.379  13.673  47.965  1.00  0.00     0.275 HD
ATOM     12  H11 UNL     1      10.454  15.018  48.408  1.00  0.00     0.275 HD
ENDBRANCH   1   9
BRANCH   5  13
HETATM   13  N2  UNL     1      12.760  15.009  45.232  1.00  0.00    -0.068 N 
ATOM     14  H23 UNL     1      12.327  14.804  44.332  1.00  0.00     0.275 HD
ATOM     15  H22 UNL     1      13.476  15.663  44.918  1.00  0.00     0.275 HD
ATOM     16  H21 UNL     1      13.173  14.174  45.647  1.00  0.00     0.275 HD
ENDBRANCH   5  13
TORSDOF 3
ENDMDL
MODEL 5
REMARK VINA RESULT: -4.132782318      1.361      2.778
REMARK  3 active torsions:
REMARK  status: ('A' for Active; 'I' for Inactive)
REMARK    1  A    between atoms: C2_2  and  C3_3 
REMARK    2  A    between atoms: C3_3  and  N1_4 
REMARK    3  A    between atoms: C7_11  and  N2_13 
ROOT
HETATM    1  C3  UNL     1      12.985  15.226  44.386  1.00  0.00     0.155 C 
HETATM    2  C4  UNL     1      12.071  14.033  44.312  1.00  0.00     0.041 C 
HETATM    3  C5  UNL     1      12.876  13.026  43.544  1.00  0.00     0.005 C 
HETATM    4  C6  UNL     1      13.452  13.879  42.423  1.00  0.00     0.041 C 
HETATM    5  C7  UNL     1      13.690  15.212  43.058  1.00  0.00     0.152 C 
HETATM    6  C8  UNL     1      13.245  16.367  42.186  1.00  0.00     0.049 C 
ENDROOT
BRANCH   1   7
HETATM    7  C2  UNL     1      14.010  15.098  45.488  1.00  0.00     0.037 C 
HETATM    8  C1  UNL     1      13.807  16.062  46.609  1.00  0.00     0.007 C 
ENDBRANCH   1   7
BRANCH   1   9
HETATM    9  N1  UNL     1      12.187  16.402  44.598  1.00  0.00    -0.068 N 
ATOM     10  H13 UNL     1      11.430  16.480  43.919  1.00  0.00     0.275 HD
ATOM     11  H12 UNL     1      11.620  16.334  45.443  1.00  0.00     0.275 HD
ATOM     12  H11 UNL     1      12.784  17.229  44.603  1.00  0.00     0.275 HD
ENDBRANCH   1   9
BRANCH   5  13
HETATM   13  N2  UNL     1      15.138  15.358  43.222  1.00  0.00    -0.068 N 
ATOM     14  H23 UNL     1      15.373  15.758  44.130  1.00  0.00     0.275 HD
ATOM     15  H22 UNL     1      15.596  14.452  43.326  1.00  0.00     0.275 HD
ATOM     16  H21 UNL     1      15.545  15.897  42.459  1.00  0.00     0.275 HD
ENDBRANCH   5  13
TORSDOF 3
ENDMDL
