MODEL 1
REMARK VINA RESULT: -6.681410924      0.000      0.000
REMARK  3 active torsions:
REMARK  status: ('A' for Active; 'I' for Inactive)
REMARK    1  A    between atoms: C2_2  and  C3_3 
REMARK    2  A    between atoms: C5_8  and  S1_9 
REMARK    3  A    between atoms: C9_13  and  C10_14 
ROOT
HETATM    1  C3  UNL     1      22.254 -24.821  15.367  1.00  0.00     0.193 C 
HETATM    2  C4  UNL     1      21.060 -23.984  15.231  1.00  0.00     0.113 C 
HETATM    3  N1  UNL     1      20.129 -23.327  15.142  1.00  0.00    -0.193 NA
HETATM    4  N2  UNL     1      23.349 -24.131  14.727  1.00  0.00    -0.346 N 
ATOM      5  H2  UNL     1      23.824 -23.369  15.209  1.00  0.00     0.163 HD
HETATM    6  C5  UNL     1      23.758 -24.512  13.433  1.00  0.00     0.072 C 
HETATM    7  C7  UNL     1      23.194 -25.542  12.841  1.00  0.00    -0.024 C 
HETATM    8  C8  UNL     1      23.602 -25.981  11.462  1.00  0.00     0.049 C 
HETATM    9  C9  UNL     1      22.122 -26.329  13.501  1.00  0.00     0.145 C 
HETATM   10  N3  UNL     1      22.067 -26.153  14.908  1.00  0.00    -0.373 N 
ATOM     11  H3  UNL     1      21.905 -26.931  15.548  1.00  0.00     0.157 HD
ENDROOT
BRANCH   1  12
HETATM   12  C2  UNL     1      22.611 -24.889  16.859  1.00  0.00     0.065 C 
HETATM   13  C1  UNL     1      22.426 -26.295  17.390  1.00  0.00     0.010 C 
ENDBRANCH   1  12
BRANCH   6  14
HETATM   14  S1  UNL     1      25.039 -23.642  12.538  1.00  0.00    -0.117 SA
HETATM   15  C6  UNL     1      24.415 -22.102  11.821  1.00  0.00     0.097 C 
ENDBRANCH   6  14
BRANCH   9  16
HETATM   16  C10 UNL     1      22.480 -27.768  13.233  1.00  0.00    -0.032 A 
HETATM   17  C11 UNL     1      23.241 -28.514  14.098  1.00  0.00     0.011 A 
HETATM   18  C12 UNL     1      23.564 -29.831  13.851  1.00  0.00     0.019 A 
HETATM   19  C13 UNL     1      23.114 -30.440  12.692  1.00  0.00     0.011 A 
HETATM   20 BR1  UNL     1      23.535 -32.263  12.304  1.00  0.00    -0.051 Br
HETATM   21  C14 UNL     1      22.351 -29.693  11.823  1.00  0.00     0.019 A 
HETATM   22  C15 UNL     1      22.035 -28.364  12.090  1.00  0.00     0.011 A 
ENDBRANCH   9  16
TORSDOF 3
ENDMDL
MODEL 2
REMARK VINA RESULT: -6.667925442      0.055      1.055
REMARK  3 active torsions:
REMARK  status: ('A' for Active; 'I' for Inactive)
REMARK    1  A    between atoms: C2_2  and  C3_3 
REMARK    2  A    between atoms: C5_8  and  S1_9 
REMARK    3  A    between atoms: C9_13  and  C10_14 
ROOT
HETATM    1  C3  UNL     1      22.268 -24.830  15.351  1.00  0.00     0.193 C 
HETATM    2  C4  UNL     1      21.087 -23.974  15.228  1.00  0.00     0.113 C 
HETATM    3  N1  UNL     1      20.166 -23.302  15.150  1.00  0.00    -0.193 NA
HETATM    4  N2  UNL     1      23.374 -24.145  14.725  1.00  0.00    -0.346 N 
ATOM      5  H2  UNL     1      23.860 -23.399  15.222  1.00  0.00     0.163 HD
HETATM    6  C5  UNL     1      23.781 -24.508  13.426  1.00  0.00     0.072 C 
HETATM    7  C7  UNL     1      23.203 -25.519  12.814  1.00  0.00    -0.024 C 
HETATM    8  C8  UNL     1      23.607 -25.938  11.428  1.00  0.00     0.049 C 
HETATM    9  C9  UNL     1      22.118 -26.302  13.458  1.00  0.00     0.145 C 
HETATM   10  N3  UNL     1      22.064 -26.151  14.867  1.00  0.00    -0.373 N 
ATOM     11  H3  UNL     1      21.889 -26.938  15.493  1.00  0.00     0.157 HD
ENDROOT
BRANCH   1  12
HETATM   12  C2  UNL     1      22.622 -24.931  16.842  1.00  0.00     0.065 C 
HETATM   13  C1  UNL     1      22.426 -26.346  17.344  1.00  0.00     0.010 C 
ENDBRANCH   1  12
BRANCH   6  14
HETATM   14  S1  UNL     1      25.076 -23.640  12.549  1.00  0.00    -0.117 SA
HETATM   15  C6  UNL     1      24.473 -22.083  11.851  1.00  0.00     0.097 C 
ENDBRANCH   6  14
BRANCH   9  16
HETATM   16  C10 UNL     1      22.456 -27.741  13.164  1.00  0.00    -0.032 A 
HETATM   17  C11 UNL     1      22.041 -28.378  12.021  1.00  0.00     0.011 A 
HETATM   18  C12 UNL     1      22.354 -29.694  11.754  1.00  0.00     0.019 A 
HETATM   19  C13 UNL     1      23.112 -30.415  12.660  1.00  0.00     0.011 A 
HETATM   20 BR1  UNL     1      23.572 -32.241  12.336  1.00  0.00    -0.051 Br
HETATM   21  C14 UNL     1      23.529 -29.777  13.807  1.00  0.00     0.019 A 
HETATM   22  C15 UNL     1      23.204 -28.447  14.059  1.00  0.00     0.011 A 
ENDBRANCH   9  16
TORSDOF 3
ENDMDL
MODEL 3
REMARK VINA RESULT: -6.222846635      2.518      4.362
REMARK  3 active torsions:
REMARK  status: ('A' for Active; 'I' for Inactive)
REMARK    1  A    between atoms: C2_2  and  C3_3 
REMARK    2  A    between atoms: C5_8  and  S1_9 
REMARK    3  A    between atoms: C9_13  and  C10_14 
ROOT
HETATM    1  C3  UNL     1      22.758 -27.006  12.367  1.00  0.00     0.193 C 
HETATM    2  C4  UNL     1      23.917 -26.156  12.091  1.00  0.00     0.113 C 
HETATM    3  N1  UNL     1      24.815 -25.486  11.859  1.00  0.00    -0.193 NA
HETATM    4  N2  UNL     1      22.060 -26.441  13.498  1.00  0.00    -0.346 N 
ATOM      5  H2  UNL     1      21.444 -25.638  13.368  1.00  0.00     0.163 HD
HETATM    6  C5  UNL     1      22.231 -27.000  14.779  1.00  0.00     0.072 C 
HETATM    7  C7  UNL     1      22.966 -28.080  14.934  1.00  0.00    -0.024 C 
HETATM    8  C8  UNL     1      23.173 -28.707  16.284  1.00  0.00     0.049 C 
HETATM    9  C9  UNL     1      23.632 -28.739  13.783  1.00  0.00     0.145 C 
HETATM   10  N3  UNL     1      23.087 -28.380  12.523  1.00  0.00    -0.373 N 
ATOM     11  H3  UNL     1      22.940 -29.062  11.779  1.00  0.00     0.157 HD
ENDROOT
BRANCH   1  12
HETATM   12  C2  UNL     1      21.797 -26.891  11.175  1.00  0.00     0.065 C 
HETATM   13  C1  UNL     1      21.624 -28.233  10.495  1.00  0.00     0.010 C 
ENDBRANCH   1  12
BRANCH   6  14
HETATM   14  S1  UNL     1      21.478 -26.295  16.241  1.00  0.00    -0.117 SA
HETATM   15  C6  UNL     1      20.258 -25.030  15.812  1.00  0.00     0.097 C 
ENDBRANCH   6  14
BRANCH   9  16
HETATM   16  C10 UNL     1      23.385 -30.211  13.986  1.00  0.00    -0.032 A 
HETATM   17  C11 UNL     1      23.229 -30.769  15.230  1.00  0.00     0.011 A 
HETATM   18  C12 UNL     1      23.000 -32.116  15.412  1.00  0.00     0.019 A 
HETATM   19  C13 UNL     1      22.923 -32.953  14.312  1.00  0.00     0.011 A 
HETATM   20 BR1  UNL     1      22.608 -34.826  14.513  1.00  0.00    -0.051 Br
HETATM   21  C14 UNL     1      23.079 -32.394  13.063  1.00  0.00     0.019 A 
HETATM   22  C15 UNL     1      23.310 -31.032  12.899  1.00  0.00     0.011 A 
ENDBRANCH   9  16
TORSDOF 3
ENDMDL
MODEL 4
REMARK VINA RESULT: -6.178488523      2.470      4.274
REMARK  3 active torsions:
REMARK  status: ('A' for Active; 'I' for Inactive)
REMARK    1  A    between atoms: C2_2  and  C3_3 
REMARK    2  A    between atoms: C5_8  and  S1_9 
REMARK    3  A    between atoms: C9_13  and  C10_14 
ROOT
HETATM    1  C3  UNL     1      22.655 -26.836  12.458  1.00  0.00     0.193 C 
HETATM    2  C4  UNL     1      23.823 -26.033  12.091  1.00  0.00     0.113 C 
HETATM    3  N1  UNL     1      24.728 -25.405  11.788  1.00  0.00    -0.193 NA
HETATM    4  N2  UNL     1      21.826 -26.033  13.327  1.00  0.00    -0.346 N 
ATOM      5  H2  UNL     1      21.215 -25.319  12.932  1.00  0.00     0.163 HD
HETATM    6  C5  UNL     1      21.864 -26.238  14.720  1.00  0.00     0.072 C 
HETATM    7  C7  UNL     1      22.596 -27.208  15.223  1.00  0.00    -0.024 C 
HETATM    8  C8  UNL     1      22.664 -27.460  16.704  1.00  0.00     0.049 C 
HETATM    9  C9  UNL     1      23.397 -28.109  14.356  1.00  0.00     0.145 C 
HETATM   10  N3  UNL     1      22.988 -28.108  12.997  1.00  0.00    -0.373 N 
ATOM     11  H3  UNL     1      22.936 -28.964  12.444  1.00  0.00     0.157 HD
ENDROOT
BRANCH   1  12
HETATM   12  C2  UNL     1      21.829 -27.073  11.185  1.00  0.00     0.065 C 
HETATM   13  C1  UNL     1      21.887 -28.528  10.773  1.00  0.00     0.010 C 
ENDBRANCH   1  12
BRANCH   6  14
HETATM   14  S1  UNL     1      20.943 -25.219  15.865  1.00  0.00    -0.117 SA
HETATM   15  C6  UNL     1      20.827 -23.509  15.282  1.00  0.00     0.097 C 
ENDBRANCH   6  14
BRANCH   9  16
HETATM   16  C10 UNL     1      23.155 -29.490  14.907  1.00  0.00    -0.032 A 
HETATM   17  C11 UNL     1      22.720 -29.708  16.190  1.00  0.00     0.011 A 
HETATM   18  C12 UNL     1      22.496 -30.973  16.690  1.00  0.00     0.019 A 
HETATM   19  C13 UNL     1      22.714 -32.076  15.883  1.00  0.00     0.011 A 
HETATM   20 BR1  UNL     1      22.418 -33.850  16.530  1.00  0.00    -0.051 Br
HETATM   21  C14 UNL     1      23.149 -31.860  14.595  1.00  0.00     0.019 A 
HETATM   22  C15 UNL     1      23.370 -30.575  14.108  1.00  0.00     0.011 A 
ENDBRANCH   9  16
TORSDOF 3
ENDMDL
MODEL 5
REMARK VINA RESULT: -6.098734728      2.851      4.699
REMARK  3 active torsions:
REMARK  status: ('A' for Active; 'I' for Inactive)
REMARK    1  A    between atoms: C2_2  and  C3_3 
REMARK    2  A    between atoms: C5_8  and  S1_9 
REMARK    3  A    between atoms: C9_13  and  C10_14 
ROOT
HETATM    1  C3  UNL     1      22.622 -26.926  12.868  1.00  0.00     0.193 C 
HETATM    2  C4  UNL     1      23.826 -26.267  12.358  1.00  0.00     0.113 C 
HETATM    3  N1  UNL     1      24.760 -25.756  11.943  1.00  0.00    -0.193 NA
HETATM    4  N2  UNL     1      21.753 -25.902  13.399  1.00  0.00    -0.346 N 
ATOM      5  H2  UNL     1      21.181 -25.340  12.768  1.00  0.00     0.163 HD
HETATM    6  C5  UNL     1      21.697 -25.681  14.789  1.00  0.00     0.072 C 
HETATM    7  C7  UNL     1      22.377 -26.454  15.607  1.00  0.00    -0.024 C 
HETATM    8  C8  UNL     1      22.343 -26.251  17.096  1.00  0.00     0.049 C 
HETATM    9  C9  UNL     1      23.216 -27.571  15.105  1.00  0.00     0.145 C 
HETATM   10  N3  UNL     1      22.897 -27.977  13.784  1.00  0.00    -0.373 N 
ATOM     11  H3  UNL     1      22.866 -28.960  13.509  1.00  0.00     0.157 HD
ENDROOT
BRANCH   1  12
HETATM   12  C2  UNL     1      21.877 -27.535  11.671  1.00  0.00     0.065 C 
HETATM   13  C1  UNL     1      22.097 -29.031  11.608  1.00  0.00     0.010 C 
ENDBRANCH   1  12
BRANCH   6  14
HETATM   14  S1  UNL     1      20.720 -24.368  15.512  1.00  0.00    -0.117 SA
HETATM   15  C6  UNL     1      19.109 -24.972  16.071  1.00  0.00     0.097 C 
ENDBRANCH   6  14
BRANCH   9  16
HETATM   16  C10 UNL     1      22.914 -28.724  16.025  1.00  0.00    -0.032 A 
HETATM   17  C11 UNL     1      23.195 -28.692  17.368  1.00  0.00     0.011 A 
HETATM   18  C12 UNL     1      22.914 -29.748  18.208  1.00  0.00     0.019 A 
HETATM   19  C13 UNL     1      22.328 -30.893  17.696  1.00  0.00     0.011 A 
HETATM   20 BR1  UNL     1      21.919 -32.383  18.819  1.00  0.00    -0.051 Br
HETATM   21  C14 UNL     1      22.045 -30.927  16.349  1.00  0.00     0.019 A 
HETATM   22  C15 UNL     1      22.336 -29.851  15.517  1.00  0.00     0.011 A 
ENDBRANCH   9  16
TORSDOF 3
ENDMDL
