MODEL 1
REMARK VINA RESULT: -10.089536177      0.000      0.000
REMARK  5 active torsions:
REMARK  status: ('A' for Active; 'I' for Inactive)
REMARK    1  A    between atoms: C5_6  and  C6_7 
REMARK    2  A    between atoms: C6_7  and  C7_8 
REMARK    3  A    between atoms: C7_8  and  C8_9 
REMARK    4  A    between atoms: C8_9  and  O2_10 
REMARK    5  A    between atoms: C14_17  and  O3_18 
ROOT
HETATM    1  C1  UNL     1      22.294 -35.412  13.321  1.00  0.00     0.077 C 
HETATM    2  C2  UNL     1      22.454 -33.995  12.937  1.00  0.00     0.056 A 
HETATM    3  O1  UNL     1      22.756 -33.564  11.749  1.00  0.00    -0.318 OA
HETATM    4  C3  UNL     1      22.813 -32.253  11.779  1.00  0.00     0.069 A 
HETATM    5  C4  UNL     1      22.528 -31.774  13.080  1.00  0.00     0.014 A 
HETATM    6  C5  UNL     1      22.299 -32.916  13.819  1.00  0.00    -0.015 A 
HETATM    7  C9  UNL     1      22.631 -30.325  13.063  1.00  0.00    -0.006 A 
HETATM    8  C10 UNL     1      22.484 -29.365  14.034  1.00  0.00    -0.035 A 
HETATM    9  C11 UNL     1      21.968 -29.664  15.381  1.00  0.00     0.050 C 
HETATM   10  C12 UNL     1      22.686 -28.021  13.774  1.00  0.00     0.030 A 
HETATM   11  C13 UNL     1      23.042 -27.619  12.468  1.00  0.00     0.014 A 
HETATM   12  C14 UNL     1      23.189 -28.561  11.477  1.00  0.00     0.082 A 
HETATM   13  C15 UNL     1      22.978 -29.903  11.800  1.00  0.00    -0.006 A 
HETATM   14  C16 UNL     1      23.078 -31.082  10.905  1.00  0.00     0.108 A 
HETATM   15  C17 UNL     1      23.234 -26.179  12.173  1.00  0.00     0.211 C 
HETATM   16  O4  UNL     1      23.176 -25.354  13.240  1.00  0.00    -0.374 OA
HETATM   17  C18 UNL     1      22.204 -25.647  14.210  1.00  0.00     0.192 C 
HETATM   18  C19 UNL     1      22.193 -24.559  15.253  1.00  0.00     0.048 C 
HETATM   19  C20 UNL     1      22.644 -26.952  14.771  1.00  0.00     0.189 C 
HETATM   20  O5  UNL     1      22.965 -27.208  15.934  1.00  0.00    -0.289 OA
ENDROOT
BRANCH   6  21
HETATM   21  C6  UNL     1      21.984 -33.047  15.215  1.00  0.00     0.044 C 
BRANCH  21  22
HETATM   22  C7  UNL     1      23.193 -33.292  16.129  1.00  0.00     0.031 C 
BRANCH  22  23
HETATM   23  C8  UNL     1      22.612 -33.548  17.510  1.00  0.00     0.164 C 
BRANCH  23  24
HETATM   24  O2  UNL     1      21.296 -33.114  17.591  1.00  0.00    -0.401 OA
ATOM     25  H2  UNL     1      20.837 -33.251  16.771  1.00  0.00     0.209 HD
ENDBRANCH  23  24
ENDBRANCH  22  23
ENDBRANCH  21  22
ENDBRANCH   6  21
BRANCH  12  26
HETATM   26  O3  UNL     1      23.534 -28.208  10.188  1.00  0.00    -0.359 OA
ATOM     27  H3  UNL     1      23.166 -28.652   9.434  1.00  0.00     0.217 HD
ENDBRANCH  12  26
TORSDOF 5
ENDMDL
MODEL 2
REMARK VINA RESULT: -9.757817425      1.044      1.309
REMARK  5 active torsions:
REMARK  status: ('A' for Active; 'I' for Inactive)
REMARK    1  A    between atoms: C5_6  and  C6_7 
REMARK    2  A    between atoms: C6_7  and  C7_8 
REMARK    3  A    between atoms: C7_8  and  C8_9 
REMARK    4  A    between atoms: C8_9  and  O2_10 
REMARK    5  A    between atoms: C14_17  and  O3_18 
ROOT
HETATM    1  C1  UNL     1      22.480 -34.235  12.369  1.00  0.00     0.077 C 
HETATM    2  C2  UNL     1      22.624 -32.774  12.207  1.00  0.00     0.056 A 
HETATM    3  O1  UNL     1      22.934 -32.163  11.103  1.00  0.00    -0.318 OA
HETATM    4  C3  UNL     1      22.973 -30.872  11.333  1.00  0.00     0.069 A 
HETATM    5  C4  UNL     1      22.667 -30.600  12.688  1.00  0.00     0.014 A 
HETATM    6  C5  UNL     1      22.445 -31.844  13.241  1.00  0.00    -0.015 A 
HETATM    7  C9  UNL     1      22.750 -29.165  12.894  1.00  0.00    -0.006 A 
HETATM    8  C10 UNL     1      22.580 -28.366  13.997  1.00  0.00    -0.035 A 
HETATM    9  C11 UNL     1      22.052 -28.873  15.277  1.00  0.00     0.050 C 
HETATM   10  C12 UNL     1      22.766 -26.996  13.949  1.00  0.00     0.030 A 
HETATM   11  C13 UNL     1      23.132 -26.395  12.724  1.00  0.00     0.014 A 
HETATM   12  C14 UNL     1      23.302 -27.173  11.603  1.00  0.00     0.082 A 
HETATM   13  C15 UNL     1      23.106 -28.551  11.714  1.00  0.00    -0.006 A 
HETATM   14  C16 UNL     1      23.233 -29.579  10.652  1.00  0.00     0.108 A 
HETATM   15  C17 UNL     1      23.308 -24.925  12.654  1.00  0.00     0.211 C 
HETATM   16  O4  UNL     1      23.226 -24.273  13.833  1.00  0.00    -0.374 OA
HETATM   17  C18 UNL     1      22.247 -24.722  14.735  1.00  0.00     0.192 C 
HETATM   18  C19 UNL     1      22.209 -23.806  15.931  1.00  0.00     0.048 C 
HETATM   19  C20 UNL     1      22.699 -26.092  15.096  1.00  0.00     0.189 C 
HETATM   20  O5  UNL     1      23.009 -26.518  16.210  1.00  0.00    -0.289 OA
ENDROOT
BRANCH   6  21
HETATM   21  C6  UNL     1      22.116 -32.190  14.597  1.00  0.00     0.044 C 
BRANCH  21  22
HETATM   22  C7  UNL     1      23.323 -32.470  15.503  1.00  0.00     0.031 C 
BRANCH  22  23
HETATM   23  C8  UNL     1      22.859 -33.539  16.479  1.00  0.00     0.164 C 
BRANCH  23  24
HETATM   24  O2  UNL     1      22.238 -34.589  15.817  1.00  0.00    -0.401 OA
ATOM     25  H2  UNL     1      21.308 -34.427  15.711  1.00  0.00     0.209 HD
ENDBRANCH  23  24
ENDBRANCH  22  23
ENDBRANCH  21  22
ENDBRANCH   6  21
BRANCH  12  26
HETATM   26  O3  UNL     1      23.658 -26.623  10.388  1.00  0.00    -0.359 OA
ATOM     27  H3  UNL     1      23.114 -26.727   9.615  1.00  0.00     0.217 HD
ENDBRANCH  12  26
TORSDOF 5
ENDMDL
MODEL 3
REMARK VINA RESULT: -9.480561952      1.948      4.679
REMARK  5 active torsions:
REMARK  status: ('A' for Active; 'I' for Inactive)
REMARK    1  A    between atoms: C5_6  and  C6_7 
REMARK    2  A    between atoms: C6_7  and  C7_8 
REMARK    3  A    between atoms: C7_8  and  C8_9 
REMARK    4  A    between atoms: C8_9  and  O2_10 
REMARK    5  A    between atoms: C14_17  and  O3_18 
ROOT
HETATM    1  C1  UNL     1      22.678 -33.686  12.282  1.00  0.00     0.077 C 
HETATM    2  C2  UNL     1      22.610 -32.726  13.401  1.00  0.00     0.056 A 
HETATM    3  O1  UNL     1      22.439 -33.035  14.652  1.00  0.00    -0.318 OA
HETATM    4  C3  UNL     1      22.429 -31.930  15.361  1.00  0.00     0.069 A 
HETATM    5  C4  UNL     1      22.606 -30.802  14.523  1.00  0.00     0.014 A 
HETATM    6  C5  UNL     1      22.720 -31.335  13.256  1.00  0.00    -0.015 A 
HETATM    7  C9  UNL     1      22.560 -29.610  15.352  1.00  0.00    -0.006 A 
HETATM    8  C10 UNL     1      22.649 -28.269  15.068  1.00  0.00    -0.035 A 
HETATM    9  C11 UNL     1      23.022 -27.757  13.737  1.00  0.00     0.050 C 
HETATM   10  C12 UNL     1      22.523 -27.301  16.048  1.00  0.00     0.030 A 
HETATM   11  C13 UNL     1      22.310 -27.701  17.386  1.00  0.00     0.014 A 
HETATM   12  C14 UNL     1      22.224 -29.038  17.696  1.00  0.00     0.082 A 
HETATM   13  C15 UNL     1      22.352 -29.969  16.664  1.00  0.00    -0.006 A 
HETATM   14  C16 UNL     1      22.293 -31.448  16.758  1.00  0.00     0.108 A 
HETATM   15  C17 UNL     1      22.201 -26.673  18.448  1.00  0.00     0.211 C 
HETATM   16  O4  UNL     1      22.188 -25.393  18.019  1.00  0.00    -0.374 OA
HETATM   17  C18 UNL     1      23.050 -25.075  16.958  1.00  0.00     0.192 C 
HETATM   18  C19 UNL     1      23.003 -23.592  16.699  1.00  0.00     0.048 C 
HETATM   19  C20 UNL     1      22.510 -25.858  15.814  1.00  0.00     0.189 C 
HETATM   20  O5  UNL     1      22.070 -25.431  14.745  1.00  0.00    -0.289 OA
ENDROOT
BRANCH   6  21
HETATM   21  C6  UNL     1      22.894 -30.662  11.999  1.00  0.00     0.044 C 
BRANCH  21  22
HETATM   22  C7  UNL     1      21.606 -30.091  11.388  1.00  0.00     0.031 C 
BRANCH  22  23
HETATM   23  C8  UNL     1      22.053 -28.941  10.499  1.00  0.00     0.164 C 
BRANCH  23  24
HETATM   24  O2  UNL     1      23.148 -29.300   9.726  1.00  0.00    -0.401 OA
ATOM     25  H2  UNL     1      22.911 -29.381   8.810  1.00  0.00     0.209 HD
ENDBRANCH  23  24
ENDBRANCH  22  23
ENDBRANCH  21  22
ENDBRANCH   6  21
BRANCH  12  26
HETATM   26  O3  UNL     1      22.017 -29.468  18.991  1.00  0.00    -0.359 OA
ATOM     27  H3  UNL     1      21.349 -30.110  19.203  1.00  0.00     0.217 HD
ENDBRANCH  12  26
TORSDOF 5
ENDMDL
MODEL 4
REMARK VINA RESULT: -9.409262085      2.523      5.842
REMARK  5 active torsions:
REMARK  status: ('A' for Active; 'I' for Inactive)
REMARK    1  A    between atoms: C5_6  and  C6_7 
REMARK    2  A    between atoms: C6_7  and  C7_8 
REMARK    3  A    between atoms: C7_8  and  C8_9 
REMARK    4  A    between atoms: C8_9  and  O2_10 
REMARK    5  A    between atoms: C14_17  and  O3_18 
ROOT
HETATM    1  C1  UNL     1      23.224 -30.357  11.046  1.00  0.00     0.077 C 
HETATM    2  C2  UNL     1      23.106 -29.987  12.470  1.00  0.00     0.056 A 
HETATM    3  O1  UNL     1      23.367 -28.816  12.969  1.00  0.00    -0.318 OA
HETATM    4  C3  UNL     1      23.153 -28.853  14.264  1.00  0.00     0.069 A 
HETATM    5  C4  UNL     1      22.716 -30.141  14.657  1.00  0.00     0.014 A 
HETATM    6  C5  UNL     1      22.693 -30.864  13.483  1.00  0.00    -0.015 A 
HETATM    7  C9  UNL     1      22.520 -30.134  16.096  1.00  0.00    -0.006 A 
HETATM    8  C10 UNL     1      22.135 -31.100  16.993  1.00  0.00    -0.035 A 
HETATM    9  C11 UNL     1      21.630 -32.421  16.577  1.00  0.00     0.050 C 
HETATM   10  C12 UNL     1      22.068 -30.855  18.353  1.00  0.00     0.030 A 
HETATM   11  C13 UNL     1      22.393 -29.569  18.837  1.00  0.00     0.014 A 
HETATM   12  C14 UNL     1      22.775 -28.583  17.958  1.00  0.00     0.082 A 
HETATM   13  C15 UNL     1      22.830 -28.890  16.596  1.00  0.00    -0.006 A 
HETATM   14  C16 UNL     1      23.211 -27.997  15.475  1.00  0.00     0.108 A 
HETATM   15  C17 UNL     1      22.299 -29.288  20.289  1.00  0.00     0.211 C 
HETATM   16  O4  UNL     1      22.023 -30.354  21.070  1.00  0.00    -0.374 OA
HETATM   17  C18 UNL     1      21.090 -31.276  20.572  1.00  0.00     0.192 C 
HETATM   18  C19 UNL     1      20.807 -32.321  21.620  1.00  0.00     0.048 C 
HETATM   19  C20 UNL     1      21.762 -31.853  19.377  1.00  0.00     0.189 C 
HETATM   20  O5  UNL     1      22.075 -33.028  19.178  1.00  0.00    -0.289 OA
ENDROOT
BRANCH   6  21
HETATM   21  C6  UNL     1      22.349 -32.243  13.271  1.00  0.00     0.044 C 
BRANCH  21  22
HETATM   22  C7  UNL     1      23.454 -33.247  13.629  1.00  0.00     0.031 C 
BRANCH  22  23
HETATM   23  C8  UNL     1      22.739 -34.563  13.887  1.00  0.00     0.164 C 
BRANCH  23  24
HETATM   24  O2  UNL     1      22.014 -34.968  12.775  1.00  0.00    -0.401 OA
ATOM     25  H2  UNL     1      21.773 -35.885  12.836  1.00  0.00     0.209 HD
ENDBRANCH  23  24
ENDBRANCH  22  23
ENDBRANCH  21  22
ENDBRANCH   6  21
BRANCH  12  26
HETATM   26  O3  UNL     1      23.099 -27.313  18.391  1.00  0.00    -0.359 OA
ATOM     27  H3  UNL     1      23.948 -27.116  18.768  1.00  0.00     0.217 HD
ENDBRANCH  12  26
TORSDOF 5
ENDMDL
MODEL 5
REMARK VINA RESULT: -9.342774537      0.988      1.072
REMARK  5 active torsions:
REMARK  status: ('A' for Active; 'I' for Inactive)
REMARK    1  A    between atoms: C5_6  and  C6_7 
REMARK    2  A    between atoms: C6_7  and  C7_8 
REMARK    3  A    between atoms: C7_8  and  C8_9 
REMARK    4  A    between atoms: C8_9  and  O2_10 
REMARK    5  A    between atoms: C14_17  and  O3_18 
ROOT
HETATM    1  C1  UNL     1      22.913 -34.658  14.035  1.00  0.00     0.077 C 
HETATM    2  C2  UNL     1      22.898 -33.253  13.581  1.00  0.00     0.056 A 
HETATM    3  O1  UNL     1      23.002 -32.856  12.348  1.00  0.00    -0.318 OA
HETATM    4  C3  UNL     1      22.949 -31.545  12.322  1.00  0.00     0.069 A 
HETATM    5  C4  UNL     1      22.798 -31.029  13.631  1.00  0.00     0.014 A 
HETATM    6  C5  UNL     1      22.768 -32.149  14.436  1.00  0.00    -0.015 A 
HETATM    7  C9  UNL     1      22.772 -29.579  13.547  1.00  0.00    -0.006 A 
HETATM    8  C10 UNL     1      22.673 -28.588  14.493  1.00  0.00    -0.035 A 
HETATM    9  C11 UNL     1      22.367 -28.862  15.908  1.00  0.00     0.050 C 
HETATM   10  C12 UNL     1      22.722 -27.247  14.159  1.00  0.00     0.030 A 
HETATM   11  C13 UNL     1      22.866 -26.880  12.802  1.00  0.00     0.014 A 
HETATM   12  C14 UNL     1      22.961 -27.854  11.836  1.00  0.00     0.082 A 
HETATM   13  C15 UNL     1      22.911 -29.192  12.234  1.00  0.00    -0.006 A 
HETATM   14  C16 UNL     1      22.994 -30.401  11.378  1.00  0.00     0.108 A 
HETATM   15  C17 UNL     1      22.892 -25.446  12.431  1.00  0.00     0.211 C 
HETATM   16  O4  UNL     1      22.904 -24.577  13.465  1.00  0.00    -0.374 OA
HETATM   17  C18 UNL     1      22.098 -24.901  14.568  1.00  0.00     0.192 C 
HETATM   18  C19 UNL     1      22.130 -23.769  15.562  1.00  0.00     0.048 C 
HETATM   19  C20 UNL     1      22.720 -26.138  15.112  1.00  0.00     0.189 C 
HETATM   20  O5  UNL     1      23.212 -26.310  16.229  1.00  0.00    -0.289 OA
ENDROOT
BRANCH   6  21
HETATM   21  C6  UNL     1      22.654 -32.237  15.866  1.00  0.00     0.044 C 
BRANCH  21  22
HETATM   22  C7  UNL     1      21.263 -32.634  16.379  1.00  0.00     0.031 C 
BRANCH  22  23
HETATM   23  C8  UNL     1      21.258 -32.276  17.857  1.00  0.00     0.164 C 
BRANCH  23  24
HETATM   24  O2  UNL     1      21.712 -33.334  18.632  1.00  0.00    -0.401 OA
ATOM     25  H2  UNL     1      22.327 -33.875  18.150  1.00  0.00     0.209 HD
ENDBRANCH  23  24
ENDBRANCH  22  23
ENDBRANCH  21  22
ENDBRANCH   6  21
BRANCH  12  26
HETATM   26  O3  UNL     1      23.101 -27.536  10.500  1.00  0.00    -0.359 OA
ATOM     27  H3  UNL     1      23.890 -27.126  10.165  1.00  0.00     0.217 HD
ENDBRANCH  12  26
TORSDOF 5
ENDMDL
