MODEL 1
REMARK VINA RESULT: -5.514561081      0.000      0.000
REMARK  7 active torsions:
REMARK  status: ('A' for Active; 'I' for Inactive)
REMARK    1  A    between atoms: C2_2  and  C3_3 
REMARK    2  A    between atoms: C3_3  and  C4_4 
REMARK    3  A    between atoms: C4_4  and  C5_5 
REMARK    4  A    between atoms: C4_4  and  C8_8 
REMARK    5  A    between atoms: C5_5  and  C6_6 
REMARK    6  A    between atoms: C8_8  and  C9_9 
REMARK    7  A    between atoms: C9_9  and  C10_10 
ROOT
HETATM    1  C8  UNL     1     -26.116   6.324 -15.002  1.00  0.00     0.005 C 
ENDROOT
BRANCH   1   2
HETATM    2  C4  UNL     1     -25.503   5.853 -16.271  1.00  0.00    -0.014 C 
BRANCH   2   3
HETATM    3  C3  UNL     1     -24.610   6.892 -16.920  1.00  0.00     0.004 C 
BRANCH   3   4
HETATM    4  C2  UNL     1     -25.422   7.951 -17.629  1.00  0.00    -0.004 C 
HETATM    5  C1  UNL     1     -26.399   7.323 -18.606  1.00  0.00     0.005 C 
ENDBRANCH   3   4
ENDBRANCH   2   3
BRANCH   2   6
HETATM    6  C5  UNL     1     -24.812   4.536 -16.133  1.00  0.00     0.004 C 
BRANCH   6   7
HETATM    7  C6  UNL     1     -23.383   4.579 -16.621  1.00  0.00    -0.004 C 
HETATM    8  C7  UNL     1     -22.969   3.172 -17.006  1.00  0.00     0.005 C 
ENDBRANCH   6   7
ENDBRANCH   2   6
ENDBRANCH   1   2
BRANCH   1   9
HETATM    9  C9  UNL     1     -27.479   5.766 -14.723  1.00  0.00     0.008 C 
BRANCH   9  10
HETATM   10  C10 UNL     1     -28.447   6.580 -15.571  1.00  0.00     0.037 C 
HETATM   11  C11 UNL     1     -28.331   8.069 -15.386  1.00  0.00     0.238 C 
HETATM   12  N1  UNL     1     -29.707   8.160 -14.922  1.00  0.00    -0.074 N 
HETATM   13  C12 UNL     1     -29.786   6.730 -14.900  1.00  0.00     0.238 C 
ATOM     14  H12 UNL     1     -29.930   8.698 -14.085  1.00  0.00     0.277 HD
ATOM     15  H11 UNL     1     -30.391   8.703 -15.450  1.00  0.00     0.277 HD
ENDBRANCH   9  10
ENDBRANCH   1   9
TORSDOF 7
ENDMDL
MODEL 2
REMARK VINA RESULT: -5.477098572      1.147      1.748
REMARK  7 active torsions:
REMARK  status: ('A' for Active; 'I' for Inactive)
REMARK    1  A    between atoms: C2_2  and  C3_3 
REMARK    2  A    between atoms: C3_3  and  C4_4 
REMARK    3  A    between atoms: C4_4  and  C5_5 
REMARK    4  A    between atoms: C4_4  and  C8_8 
REMARK    5  A    between atoms: C5_5  and  C6_6 
REMARK    6  A    between atoms: C8_8  and  C9_9 
REMARK    7  A    between atoms: C9_9  and  C10_10 
ROOT
HETATM    1  C8  UNL     1     -27.164   6.930 -17.310  1.00  0.00     0.005 C 
ENDROOT
BRANCH   1   2
HETATM    2  C4  UNL     1     -25.868   6.599 -17.957  1.00  0.00    -0.014 C 
BRANCH   2   3
HETATM    3  C3  UNL     1     -24.748   7.537 -17.554  1.00  0.00     0.004 C 
BRANCH   3   4
HETATM    4  C2  UNL     1     -25.109   8.978 -17.834  1.00  0.00    -0.004 C 
HETATM    5  C1  UNL     1     -24.697   9.379 -19.239  1.00  0.00     0.005 C 
ENDBRANCH   3   4
ENDBRANCH   2   3
BRANCH   2   6
HETATM    6  C5  UNL     1     -25.479   5.167 -17.788  1.00  0.00     0.004 C 
BRANCH   6   7
HETATM    7  C6  UNL     1     -24.125   5.008 -17.137  1.00  0.00    -0.004 C 
HETATM    8  C7  UNL     1     -24.294   4.168 -15.886  1.00  0.00     0.005 C 
ENDBRANCH   6   7
ENDBRANCH   2   6
ENDBRANCH   1   2
BRANCH   1   9
HETATM    9  C9  UNL     1     -27.613   5.944 -16.273  1.00  0.00     0.008 C 
BRANCH   9  10
HETATM   10  C10 UNL     1     -28.012   6.767 -15.056  1.00  0.00     0.037 C 
HETATM   11  C11 UNL     1     -29.475   6.693 -14.710  1.00  0.00     0.238 C 
HETATM   12  N1  UNL     1     -29.634   8.126 -14.900  1.00  0.00    -0.074 N 
HETATM   13  C12 UNL     1     -28.301   8.198 -15.420  1.00  0.00     0.238 C 
ATOM     14  H12 UNL     1     -30.416   8.487 -15.446  1.00  0.00     0.277 HD
ATOM     15  H11 UNL     1     -29.911   8.719 -14.117  1.00  0.00     0.277 HD
ENDBRANCH   9  10
ENDBRANCH   1   9
TORSDOF 7
ENDMDL
MODEL 3
REMARK VINA RESULT: -5.467632584      0.787      2.873
REMARK  7 active torsions:
REMARK  status: ('A' for Active; 'I' for Inactive)
REMARK    1  A    between atoms: C2_2  and  C3_3 
REMARK    2  A    between atoms: C3_3  and  C4_4 
REMARK    3  A    between atoms: C4_4  and  C5_5 
REMARK    4  A    between atoms: C4_4  and  C8_8 
REMARK    5  A    between atoms: C5_5  and  C6_6 
REMARK    6  A    between atoms: C8_8  and  C9_9 
REMARK    7  A    between atoms: C9_9  and  C10_10 
ROOT
HETATM    1  C8  UNL     1     -26.787   4.828 -15.672  1.00  0.00     0.005 C 
ENDROOT
BRANCH   1   2
HETATM    2  C4  UNL     1     -25.495   5.097 -16.354  1.00  0.00    -0.014 C 
BRANCH   2   3
HETATM    3  C3  UNL     1     -24.379   4.178 -15.895  1.00  0.00     0.004 C 
BRANCH   3   4
HETATM    4  C2  UNL     1     -23.164   4.300 -16.786  1.00  0.00    -0.004 C 
HETATM    5  C1  UNL     1     -22.630   2.931 -17.166  1.00  0.00     0.005 C 
ENDBRANCH   3   4
ENDBRANCH   2   3
BRANCH   2   6
HETATM    6  C5  UNL     1     -25.614   5.122 -17.842  1.00  0.00     0.004 C 
BRANCH   6   7
HETATM    7  C6  UNL     1     -25.870   6.511 -18.379  1.00  0.00    -0.004 C 
HETATM    8  C7  UNL     1     -25.057   7.496 -17.562  1.00  0.00     0.005 C 
ENDBRANCH   6   7
ENDBRANCH   2   6
ENDBRANCH   1   2
BRANCH   1   9
HETATM    9  C9  UNL     1     -27.278   5.947 -14.802  1.00  0.00     0.008 C 
BRANCH   9  10
HETATM   10  C10 UNL     1     -28.362   6.656 -15.603  1.00  0.00     0.037 C 
HETATM   11  C11 UNL     1     -28.324   8.157 -15.502  1.00  0.00     0.238 C 
HETATM   12  N1  UNL     1     -29.660   8.193 -14.927  1.00  0.00    -0.074 N 
HETATM   13  C12 UNL     1     -29.647   6.763 -14.828  1.00  0.00     0.238 C 
ATOM     14  H12 UNL     1     -29.846   8.761 -14.101  1.00  0.00     0.277 HD
ATOM     15  H11 UNL     1     -30.417   8.665 -15.420  1.00  0.00     0.277 HD
ENDBRANCH   9  10
ENDBRANCH   1   9
TORSDOF 7
ENDMDL
MODEL 4
REMARK VINA RESULT: -5.361672436      0.968      1.386
REMARK  7 active torsions:
REMARK  status: ('A' for Active; 'I' for Inactive)
REMARK    1  A    between atoms: C2_2  and  C3_3 
REMARK    2  A    between atoms: C3_3  and  C4_4 
REMARK    3  A    between atoms: C4_4  and  C5_5 
REMARK    4  A    between atoms: C4_4  and  C8_8 
REMARK    5  A    between atoms: C5_5  and  C6_6 
REMARK    6  A    between atoms: C8_8  and  C9_9 
REMARK    7  A    between atoms: C9_9  and  C10_10 
ROOT
HETATM    1  C8  UNL     1     -26.387   5.152 -15.729  1.00  0.00     0.005 C 
ENDROOT
BRANCH   1   2
HETATM    2  C4  UNL     1     -25.160   5.280 -16.557  1.00  0.00    -0.014 C 
BRANCH   2   3
HETATM    3  C3  UNL     1     -24.585   6.683 -16.551  1.00  0.00     0.004 C 
BRANCH   3   4
HETATM    4  C2  UNL     1     -24.587   7.285 -17.938  1.00  0.00    -0.004 C 
HETATM    5  C1  UNL     1     -25.293   8.628 -17.946  1.00  0.00     0.005 C 
ENDBRANCH   3   4
ENDBRANCH   2   3
BRANCH   2   6
HETATM    6  C5  UNL     1     -24.124   4.256 -16.230  1.00  0.00     0.004 C 
BRANCH   6   7
HETATM    7  C6  UNL     1     -23.420   3.732 -17.459  1.00  0.00    -0.004 C 
HETATM    8  C7  UNL     1     -24.463   3.456 -18.525  1.00  0.00     0.005 C 
ENDBRANCH   6   7
ENDBRANCH   2   6
ENDBRANCH   1   2
BRANCH   1   9
HETATM    9  C9  UNL     1     -27.556   5.955 -16.218  1.00  0.00     0.008 C 
BRANCH   9  10
HETATM   10  C10 UNL     1     -28.026   6.779 -15.028  1.00  0.00     0.037 C 
HETATM   11  C11 UNL     1     -29.504   6.687 -14.756  1.00  0.00     0.238 C 
HETATM   12  N1  UNL     1     -29.672   8.117 -14.962  1.00  0.00    -0.074 N 
HETATM   13  C12 UNL     1     -28.316   8.204 -15.416  1.00  0.00     0.238 C 
ATOM     14  H12 UNL     1     -30.431   8.463 -15.549  1.00  0.00     0.277 HD
ATOM     15  H11 UNL     1     -29.996   8.711 -14.198  1.00  0.00     0.277 HD
ENDBRANCH   9  10
ENDBRANCH   1   9
TORSDOF 7
ENDMDL
MODEL 5
REMARK VINA RESULT: -5.360802434      0.885      3.277
REMARK  7 active torsions:
REMARK  status: ('A' for Active; 'I' for Inactive)
REMARK    1  A    between atoms: C2_2  and  C3_3 
REMARK    2  A    between atoms: C3_3  and  C4_4 
REMARK    3  A    between atoms: C4_4  and  C5_5 
REMARK    4  A    between atoms: C4_4  and  C8_8 
REMARK    5  A    between atoms: C5_5  and  C6_6 
REMARK    6  A    between atoms: C8_8  and  C9_9 
REMARK    7  A    between atoms: C9_9  and  C10_10 
ROOT
HETATM    1  C8  UNL     1     -26.127   5.595 -15.952  1.00  0.00     0.005 C 
ENDROOT
BRANCH   1   2
HETATM    2  C4  UNL     1     -25.067   6.388 -16.624  1.00  0.00    -0.014 C 
BRANCH   2   3
HETATM    3  C3  UNL     1     -23.846   5.564 -16.982  1.00  0.00     0.004 C 
BRANCH   3   4
HETATM    4  C2  UNL     1     -23.922   4.179 -16.382  1.00  0.00    -0.004 C 
HETATM    5  C1  UNL     1     -22.892   3.257 -17.010  1.00  0.00     0.005 C 
ENDBRANCH   3   4
ENDBRANCH   2   3
BRANCH   2   6
HETATM    6  C5  UNL     1     -25.572   7.166 -17.795  1.00  0.00     0.004 C 
BRANCH   6   7
HETATM    7  C6  UNL     1     -25.263   8.641 -17.687  1.00  0.00    -0.004 C 
HETATM    8  C7  UNL     1     -24.812   9.134 -19.048  1.00  0.00     0.005 C 
ENDBRANCH   6   7
ENDBRANCH   2   6
ENDBRANCH   1   2
BRANCH   1   9
HETATM    9  C9  UNL     1     -27.527   6.030 -16.267  1.00  0.00     0.008 C 
BRANCH   9  10
HETATM   10  C10 UNL     1     -28.015   6.794 -15.044  1.00  0.00     0.037 C 
HETATM   11  C11 UNL     1     -29.490   6.655 -14.775  1.00  0.00     0.238 C 
HETATM   12  N1  UNL     1     -29.694   8.087 -14.923  1.00  0.00    -0.074 N 
HETATM   13  C12 UNL     1     -28.340   8.226 -15.373  1.00  0.00     0.238 C 
ATOM     14  H12 UNL     1     -30.461   8.439 -15.494  1.00  0.00     0.277 HD
ATOM     15  H11 UNL     1     -30.030   8.641 -14.134  1.00  0.00     0.277 HD
ENDBRANCH   9  10
ENDBRANCH   1   9
TORSDOF 7
ENDMDL
