MODEL 1
REMARK VINA RESULT: -5.691732845      0.000      0.000
REMARK  7 active torsions:
REMARK  status: ('A' for Active; 'I' for Inactive)
REMARK    1  A    between atoms: C2_2  and  C3_3 
REMARK    2  A    between atoms: C3_3  and  C4_4 
REMARK    3  A    between atoms: C4_4  and  C5_5 
REMARK    4  A    between atoms: C5_5  and  C6_6 
REMARK    5  A    between atoms: C5_5  and  C7_11 
REMARK    6  A    between atoms: C6_6  and  N1_7 
REMARK    7  A    between atoms: C7_11  and  C8_12 
ROOT
HETATM    1  C5  UNL     1     -25.681   6.337 -16.679  1.00  0.00     0.015 C 
ENDROOT
BRANCH   1   2
HETATM    2  C4  UNL     1     -24.531   7.254 -16.918  1.00  0.00     0.010 C 
BRANCH   2   3
HETATM    3  C3  UNL     1     -24.589   7.862 -18.291  1.00  0.00     0.027 C 
BRANCH   3   4
HETATM    4  C2  UNL     1     -23.646   7.127 -19.210  1.00  0.00    -0.037 C 
HETATM    5  C1  UNL     1     -22.476   6.690 -18.804  1.00  0.00     0.007 C 
ENDBRANCH   3   4
ENDBRANCH   2   3
ENDBRANCH   1   2
BRANCH   1   6
HETATM    6  C6  UNL     1     -26.737   6.913 -15.761  1.00  0.00     0.234 C 
BRANCH   6   7
HETATM    7  N1  UNL     1     -26.446   6.420 -14.431  1.00  0.00    -0.079 N 
ATOM      8  H13 UNL     1     -25.506   6.657 -14.111  1.00  0.00     0.274 HD
ATOM      9  H12 UNL     1     -26.958   6.912 -13.698  1.00  0.00     0.274 HD
ATOM     10  H11 UNL     1     -26.626   5.417 -14.444  1.00  0.00     0.274 HD
ENDBRANCH   6   7
ENDBRANCH   1   6
BRANCH   1  11
HETATM   11  C7  UNL     1     -25.280   5.012 -16.098  1.00  0.00     0.045 C 
BRANCH  11  12
HETATM   12  C8  UNL     1     -24.475   4.170 -17.017  1.00  0.00    -0.058 A 
HETATM   13  C9  UNL     1     -23.222   3.694 -16.673  1.00  0.00     0.007 A 
HETATM   14  C10 UNL     1     -22.474   2.908 -17.543  1.00  0.00     0.001 A 
HETATM   15  C11 UNL     1     -23.008   2.600 -18.786  1.00  0.00     0.000 A 
HETATM   16  C12 UNL     1     -24.255   3.057 -19.162  1.00  0.00     0.001 A 
HETATM   17  C13 UNL     1     -24.961   3.839 -18.254  1.00  0.00     0.007 A 
ENDBRANCH  11  12
ENDBRANCH   1  11
TORSDOF 7
ENDMDL
MODEL 2
REMARK VINA RESULT: -5.687006707      0.060      1.275
REMARK  7 active torsions:
REMARK  status: ('A' for Active; 'I' for Inactive)
REMARK    1  A    between atoms: C2_2  and  C3_3 
REMARK    2  A    between atoms: C3_3  and  C4_4 
REMARK    3  A    between atoms: C4_4  and  C5_5 
REMARK    4  A    between atoms: C5_5  and  C6_6 
REMARK    5  A    between atoms: C5_5  and  C7_11 
REMARK    6  A    between atoms: C6_6  and  N1_7 
REMARK    7  A    between atoms: C7_11  and  C8_12 
ROOT
HETATM    1  C5  UNL     1     -25.724   6.324 -16.658  1.00  0.00     0.015 C 
ENDROOT
BRANCH   1   2
HETATM    2  C4  UNL     1     -24.569   7.239 -16.882  1.00  0.00     0.010 C 
BRANCH   2   3
HETATM    3  C3  UNL     1     -24.625   7.874 -18.243  1.00  0.00     0.027 C 
BRANCH   3   4
HETATM    4  C2  UNL     1     -23.685   7.153 -19.176  1.00  0.00    -0.037 C 
HETATM    5  C1  UNL     1     -22.519   6.699 -18.777  1.00  0.00     0.007 C 
ENDBRANCH   3   4
ENDBRANCH   2   3
ENDBRANCH   1   2
BRANCH   1   6
HETATM    6  C6  UNL     1     -26.776   6.889 -15.729  1.00  0.00     0.234 C 
BRANCH   6   7
HETATM    7  N1  UNL     1     -26.462   6.402 -14.401  1.00  0.00    -0.079 N 
ATOM      8  H13 UNL     1     -25.494   6.095 -14.303  1.00  0.00     0.274 HD
ATOM      9  H12 UNL     1     -26.435   7.140 -13.698  1.00  0.00     0.274 HD
ATOM     10  H11 UNL     1     -27.140   5.669 -14.190  1.00  0.00     0.274 HD
ENDBRANCH   6   7
ENDBRANCH   1   6
BRANCH   1  11
HETATM   11  C7  UNL     1     -25.329   4.986 -16.102  1.00  0.00     0.045 C 
BRANCH  11  12
HETATM   12  C8  UNL     1     -24.515   4.164 -17.031  1.00  0.00    -0.058 A 
HETATM   13  C9  UNL     1     -24.957   3.825 -18.297  1.00  0.00     0.007 A 
HETATM   14  C10 UNL     1     -24.186   3.051 -19.159  1.00  0.00     0.001 A 
HETATM   15  C11 UNL     1     -22.944   2.611 -18.725  1.00  0.00     0.000 A 
HETATM   16  C12 UNL     1     -22.471   2.930 -17.468  1.00  0.00     0.001 A 
HETATM   17  C13 UNL     1     -23.281   3.707 -16.647  1.00  0.00     0.007 A 
ENDBRANCH  11  12
ENDBRANCH   1  11
TORSDOF 7
ENDMDL
MODEL 3
REMARK VINA RESULT: -5.685702996      2.299      4.812
REMARK  7 active torsions:
REMARK  status: ('A' for Active; 'I' for Inactive)
REMARK    1  A    between atoms: C2_2  and  C3_3 
REMARK    2  A    between atoms: C3_3  and  C4_4 
REMARK    3  A    between atoms: C4_4  and  C5_5 
REMARK    4  A    between atoms: C5_5  and  C6_6 
REMARK    5  A    between atoms: C5_5  and  C7_11 
REMARK    6  A    between atoms: C6_6  and  N1_7 
REMARK    7  A    between atoms: C7_11  and  C8_12 
ROOT
HETATM    1  C5  UNL     1     -21.472   4.353 -17.985  1.00  0.00     0.015 C 
ENDROOT
BRANCH   1   2
HETATM    2  C4  UNL     1     -21.956   3.642 -19.203  1.00  0.00     0.010 C 
BRANCH   2   3
HETATM    3  C3  UNL     1     -22.854   2.491 -18.847  1.00  0.00     0.027 C 
BRANCH   3   4
HETATM    4  C2  UNL     1     -24.087   2.524 -19.715  1.00  0.00    -0.037 C 
HETATM    5  C1  UNL     1     -25.204   3.088 -19.318  1.00  0.00     0.007 C 
ENDBRANCH   3   4
ENDBRANCH   2   3
ENDBRANCH   1   2
BRANCH   1   6
HETATM    6  C6  UNL     1     -20.025   4.066 -17.650  1.00  0.00     0.234 C 
BRANCH   6   7
HETATM    7  N1  UNL     1     -20.001   3.594 -16.281  1.00  0.00    -0.079 N 
ATOM      8  H13 UNL     1     -19.978   4.349 -15.595  1.00  0.00     0.274 HD
ATOM      9  H12 UNL     1     -20.883   3.178 -15.983  1.00  0.00     0.274 HD
ATOM     10  H11 UNL     1     -19.209   2.956 -16.205  1.00  0.00     0.274 HD
ENDBRANCH   6   7
ENDBRANCH   1   6
BRANCH   1  11
HETATM   11  C7  UNL     1     -22.271   4.042 -16.752  1.00  0.00     0.045 C 
BRANCH  11  12
HETATM   12  C8  UNL     1     -23.502   4.859 -16.610  1.00  0.00    -0.058 A 
HETATM   13  C9  UNL     1     -23.608   6.131 -17.144  1.00  0.00     0.007 A 
HETATM   14  C10 UNL     1     -24.766   6.890 -17.002  1.00  0.00     0.001 A 
HETATM   15  C11 UNL     1     -25.834   6.347 -16.303  1.00  0.00     0.000 A 
HETATM   16  C12 UNL     1     -25.763   5.081 -15.757  1.00  0.00     0.001 A 
HETATM   17  C13 UNL     1     -24.582   4.365 -15.929  1.00  0.00     0.007 A 
ENDBRANCH  11  12
ENDBRANCH   1  11
TORSDOF 7
ENDMDL
MODEL 4
REMARK VINA RESULT: -5.674136662      2.322      4.790
REMARK  7 active torsions:
REMARK  status: ('A' for Active; 'I' for Inactive)
REMARK    1  A    between atoms: C2_2  and  C3_3 
REMARK    2  A    between atoms: C3_3  and  C4_4 
REMARK    3  A    between atoms: C4_4  and  C5_5 
REMARK    4  A    between atoms: C5_5  and  C6_6 
REMARK    5  A    between atoms: C5_5  and  C7_11 
REMARK    6  A    between atoms: C6_6  and  N1_7 
REMARK    7  A    between atoms: C7_11  and  C8_12 
ROOT
HETATM    1  C5  UNL     1     -21.437   4.342 -17.960  1.00  0.00     0.015 C 
ENDROOT
BRANCH   1   2
HETATM    2  C4  UNL     1     -21.907   3.638 -19.187  1.00  0.00     0.010 C 
BRANCH   2   3
HETATM    3  C3  UNL     1     -22.858   2.524 -18.852  1.00  0.00     0.027 C 
BRANCH   3   4
HETATM    4  C2  UNL     1     -24.071   2.609 -19.742  1.00  0.00    -0.037 C 
HETATM    5  C1  UNL     1     -25.198   3.148 -19.335  1.00  0.00     0.007 C 
ENDBRANCH   3   4
ENDBRANCH   2   3
ENDBRANCH   1   2
BRANCH   1   6
HETATM    6  C6  UNL     1     -19.982   4.086 -17.633  1.00  0.00     0.234 C 
BRANCH   6   7
HETATM    7  N1  UNL     1     -19.942   3.589 -16.273  1.00  0.00    -0.079 N 
ATOM      8  H13 UNL     1     -20.271   4.268 -15.586  1.00  0.00     0.274 HD
ATOM      9  H12 UNL     1     -20.641   2.870 -16.087  1.00  0.00     0.274 HD
ATOM     10  H11 UNL     1     -18.987   3.275 -16.104  1.00  0.00     0.274 HD
ENDBRANCH   6   7
ENDBRANCH   1   6
BRANCH   1  11
HETATM   11  C7  UNL     1     -22.224   3.993 -16.730  1.00  0.00     0.045 C 
BRANCH  11  12
HETATM   12  C8  UNL     1     -23.467   4.786 -16.564  1.00  0.00    -0.058 A 
HETATM   13  C9  UNL     1     -24.567   4.298 -15.881  1.00  0.00     0.007 A 
HETATM   14  C10 UNL     1     -25.729   5.049 -15.735  1.00  0.00     0.001 A 
HETATM   15  C11 UNL     1     -25.775   6.318 -16.293  1.00  0.00     0.000 A 
HETATM   16  C12 UNL     1     -24.696   6.836 -16.981  1.00  0.00     0.001 A 
HETATM   17  C13 UNL     1     -23.559   6.044 -17.099  1.00  0.00     0.007 A 
ENDBRANCH  11  12
ENDBRANCH   1  11
TORSDOF 7
ENDMDL
MODEL 5
REMARK VINA RESULT: -5.607655218      2.351      5.003
REMARK  7 active torsions:
REMARK  status: ('A' for Active; 'I' for Inactive)
REMARK    1  A    between atoms: C2_2  and  C3_3 
REMARK    2  A    between atoms: C3_3  and  C4_4 
REMARK    3  A    between atoms: C4_4  and  C5_5 
REMARK    4  A    between atoms: C5_5  and  C6_6 
REMARK    5  A    between atoms: C5_5  and  C7_11 
REMARK    6  A    between atoms: C6_6  and  N1_7 
REMARK    7  A    between atoms: C7_11  and  C8_12 
ROOT
HETATM    1  C5  UNL     1     -21.478   4.413 -17.832  1.00  0.00     0.015 C 
ENDROOT
BRANCH   1   2
HETATM    2  C4  UNL     1     -22.405   3.465 -17.152  1.00  0.00     0.010 C 
BRANCH   2   3
HETATM    3  C3  UNL     1     -22.902   2.408 -18.097  1.00  0.00     0.027 C 
BRANCH   3   4
HETATM    4  C2  UNL     1     -23.730   3.048 -19.182  1.00  0.00    -0.037 C 
HETATM    5  C1  UNL     1     -24.948   3.488 -18.962  1.00  0.00     0.007 C 
ENDBRANCH   3   4
ENDBRANCH   2   3
ENDBRANCH   1   2
BRANCH   1   6
HETATM    6  C6  UNL     1     -20.015   4.080 -17.635  1.00  0.00     0.234 C 
BRANCH   6   7
HETATM    7  N1  UNL     1     -19.888   3.539 -16.297  1.00  0.00    -0.079 N 
ATOM      8  H13 UNL     1     -19.376   2.657 -16.266  1.00  0.00     0.274 HD
ATOM      9  H12 UNL     1     -19.255   4.076 -15.704  1.00  0.00     0.274 HD
ATOM     10  H11 UNL     1     -20.833   3.470 -15.919  1.00  0.00     0.274 HD
ENDBRANCH   6   7
ENDBRANCH   1   6
BRANCH   1  11
HETATM   11  C7  UNL     1     -21.657   5.841 -17.401  1.00  0.00     0.045 C 
BRANCH  11  12
HETATM   12  C8  UNL     1     -22.908   6.467 -17.896  1.00  0.00    -0.058 A 
HETATM   13  C9  UNL     1     -23.083   6.814 -19.224  1.00  0.00     0.007 A 
HETATM   14  C10 UNL     1     -24.259   7.404 -19.676  1.00  0.00     0.001 A 
HETATM   15  C11 UNL     1     -25.274   7.648 -18.763  1.00  0.00     0.000 A 
HETATM   16  C12 UNL     1     -25.134   7.315 -17.431  1.00  0.00     0.001 A 
HETATM   17  C13 UNL     1     -23.938   6.727 -17.031  1.00  0.00     0.007 A 
ENDBRANCH  11  12
ENDBRANCH   1  11
TORSDOF 7
ENDMDL
