MODEL 1
REMARK VINA RESULT: -8.029112279      0.000      0.000
REMARK  9 active torsions:
REMARK  status: ('A' for Active; 'I' for Inactive)
REMARK    1  A    between atoms: C2_2  and  C3_3 
REMARK    2  A    between atoms: C3_3  and  C4_4 
REMARK    3  A    between atoms: C5_5  and  C6_6 
REMARK    4  A    between atoms: C7_7  and  C8_8 
REMARK    5  A    between atoms: C8_8  and  C9_10 
REMARK    6  A    between atoms: C10_11  and  C11_12 
REMARK    7  A    between atoms: C13_14  and  O2_15 
REMARK    8  A    between atoms: C15_17  and  O3_18 
REMARK    9  A    between atoms: C17_20  and  O4_21 
ROOT
HETATM    1  C11 UNL     1      31.711 -42.507  11.348  1.00  0.00    -0.010 A 
HETATM    2  C12 UNL     1      30.430 -41.940  11.158  1.00  0.00     0.052 A 
HETATM    3  C13 UNL     1      29.660 -41.533  12.213  1.00  0.00     0.105 A 
HETATM    4  C15 UNL     1      30.075 -41.644  13.517  1.00  0.00     0.136 A 
HETATM    5  C17 UNL     1      31.311 -42.189  13.737  1.00  0.00     0.126 A 
HETATM    6  C19 UNL     1      32.107 -42.613  12.643  1.00  0.00     0.091 A 
HETATM    7  C20 UNL     1      33.350 -43.259  13.004  1.00  0.00     0.103 C 
HETATM    8  N1  UNL     1      34.321 -43.793  13.322  1.00  0.00    -0.191 NA
ENDROOT
BRANCH   1   9
HETATM    9  C10 UNL     1      32.441 -42.952  10.182  1.00  0.00     0.017 C 
HETATM   10  C9  UNL     1      32.778 -42.380   9.082  1.00  0.00     0.055 C 
BRANCH  10  11
HETATM   11  C8  UNL     1      33.535 -43.070   8.054  1.00  0.00     0.172 C 
HETATM   12  O1  UNL     1      32.894 -44.003   7.450  1.00  0.00    -0.289 OA
BRANCH  11  13
HETATM   13  C7  UNL     1      34.897 -42.789   7.685  1.00  0.00     0.054 C 
HETATM   14  C6  UNL     1      35.990 -43.094   8.334  1.00  0.00     0.004 C 
BRANCH  14  15
HETATM   15  C5  UNL     1      36.088 -43.792   9.587  1.00  0.00    -0.004 C 
HETATM   16  C4  UNL     1      35.991 -45.144   9.584  1.00  0.00    -0.027 C 
BRANCH  16  17
HETATM   17  C3  UNL     1      36.089 -45.877  10.856  1.00  0.00     0.027 C 
BRANCH  17  18
HETATM   18  C2  UNL     1      37.360 -46.697  10.814  1.00  0.00    -0.001 C 
HETATM   19  C1  UNL     1      37.343 -47.697   9.682  1.00  0.00     0.005 C 
ENDBRANCH  17  18
ENDBRANCH  16  17
ENDBRANCH  14  15
ENDBRANCH  11  13
ENDBRANCH  10  11
ENDBRANCH   1   9
BRANCH   5  20
HETATM   20  O4  UNL     1      31.790 -42.330  15.039  1.00  0.00    -0.352 OA
HETATM   21  C18 UNL     1      32.350 -41.244  15.728  1.00  0.00     0.210 C 
ENDBRANCH   5  20
BRANCH   4  22
HETATM   22  O3  UNL     1      29.329 -41.243  14.608  1.00  0.00    -0.351 OA
HETATM   23  C16 UNL     1      28.390 -42.148  15.162  1.00  0.00     0.210 C 
ENDBRANCH   4  22
BRANCH   3  24
HETATM   24  O2  UNL     1      28.386 -40.969  12.030  1.00  0.00    -0.353 OA
HETATM   25  C14 UNL     1      28.287 -39.557  12.071  1.00  0.00     0.210 C 
ENDBRANCH   3  24
TORSDOF 9
ENDMDL
MODEL 2
REMARK VINA RESULT: -7.906593461      2.062      7.153
REMARK  9 active torsions:
REMARK  status: ('A' for Active; 'I' for Inactive)
REMARK    1  A    between atoms: C2_2  and  C3_3 
REMARK    2  A    between atoms: C3_3  and  C4_4 
REMARK    3  A    between atoms: C5_5  and  C6_6 
REMARK    4  A    between atoms: C7_7  and  C8_8 
REMARK    5  A    between atoms: C8_8  and  C9_10 
REMARK    6  A    between atoms: C10_11  and  C11_12 
REMARK    7  A    between atoms: C13_14  and  O2_15 
REMARK    8  A    between atoms: C15_17  and  O3_18 
REMARK    9  A    between atoms: C17_20  and  O4_21 
ROOT
HETATM    1  C11 UNL     1      33.209 -42.740  11.650  1.00  0.00    -0.010 A 
HETATM    2  C12 UNL     1      32.794 -41.747  10.733  1.00  0.00     0.052 A 
HETATM    3  C13 UNL     1      33.302 -41.681   9.465  1.00  0.00     0.105 A 
HETATM    4  C15 UNL     1      34.241 -42.567   8.998  1.00  0.00     0.136 A 
HETATM    5  C17 UNL     1      34.666 -43.542   9.860  1.00  0.00     0.126 A 
HETATM    6  C19 UNL     1      34.140 -43.608  11.174  1.00  0.00     0.091 A 
HETATM    7  C20 UNL     1      34.733 -44.620  12.021  1.00  0.00     0.103 C 
HETATM    8  N1  UNL     1      35.243 -45.417  12.680  1.00  0.00    -0.191 NA
ENDROOT
BRANCH   1   9
HETATM    9  C10 UNL     1      32.656 -42.713  12.985  1.00  0.00     0.017 C 
HETATM   10  C9  UNL     1      31.601 -43.223  13.512  1.00  0.00     0.055 C 
BRANCH  10  11
HETATM   11  C8  UNL     1      31.275 -43.043  14.915  1.00  0.00     0.172 C 
HETATM   12  O1  UNL     1      30.888 -44.108  15.517  1.00  0.00    -0.289 OA
BRANCH  11  13
HETATM   13  C7  UNL     1      31.354 -41.804  15.641  1.00  0.00     0.054 C 
HETATM   14  C6  UNL     1      30.560 -40.768  15.563  1.00  0.00     0.004 C 
BRANCH  14  15
HETATM   15  C5  UNL     1      29.404 -40.624  14.719  1.00  0.00    -0.004 C 
HETATM   16  C4  UNL     1      29.573 -40.131  13.468  1.00  0.00    -0.027 C 
BRANCH  16  17
HETATM   17  C3  UNL     1      28.402 -39.977  12.589  1.00  0.00     0.027 C 
BRANCH  17  18
HETATM   18  C2  UNL     1      28.797 -40.469  11.214  1.00  0.00    -0.001 C 
HETATM   19  C1  UNL     1      29.083 -41.952  11.212  1.00  0.00     0.005 C 
ENDBRANCH  17  18
ENDBRANCH  16  17
ENDBRANCH  14  15
ENDBRANCH  11  13
ENDBRANCH  10  11
ENDBRANCH   1   9
BRANCH   5  20
HETATM   20  O4  UNL     1      35.618 -44.472   9.445  1.00  0.00    -0.352 OA
HETATM   21  C18 UNL     1      35.245 -45.637   8.758  1.00  0.00     0.210 C 
ENDBRANCH   5  20
BRANCH   4  22
HETATM   22  O3  UNL     1      34.776 -42.535   7.725  1.00  0.00    -0.351 OA
HETATM   23  C16 UNL     1      35.911 -41.721   7.482  1.00  0.00     0.210 C 
ENDBRANCH   4  22
BRANCH   3  24
HETATM   24  O2  UNL     1      32.893 -40.696   8.550  1.00  0.00    -0.353 OA
HETATM   25  C14 UNL     1      31.522 -40.345   8.539  1.00  0.00     0.210 C 
ENDBRANCH   3  24
TORSDOF 9
ENDMDL
MODEL 3
REMARK VINA RESULT: -7.905968999     12.384     15.789
REMARK  9 active torsions:
REMARK  status: ('A' for Active; 'I' for Inactive)
REMARK    1  A    between atoms: C2_2  and  C3_3 
REMARK    2  A    between atoms: C3_3  and  C4_4 
REMARK    3  A    between atoms: C5_5  and  C6_6 
REMARK    4  A    between atoms: C7_7  and  C8_8 
REMARK    5  A    between atoms: C8_8  and  C9_10 
REMARK    6  A    between atoms: C10_11  and  C11_12 
REMARK    7  A    between atoms: C13_14  and  O2_15 
REMARK    8  A    between atoms: C15_17  and  O3_18 
REMARK    9  A    between atoms: C17_20  and  O4_21 
ROOT
HETATM    1  C11 UNL     1      44.963 -46.698   5.012  1.00  0.00    -0.010 A 
HETATM    2  C12 UNL     1      45.486 -47.277   6.192  1.00  0.00     0.052 A 
HETATM    3  C13 UNL     1      46.120 -48.488   6.179  1.00  0.00     0.105 A 
HETATM    4  C15 UNL     1      46.293 -49.219   5.030  1.00  0.00     0.136 A 
HETATM    5  C17 UNL     1      45.798 -48.688   3.869  1.00  0.00     0.126 A 
HETATM    6  C19 UNL     1      45.139 -47.434   3.884  1.00  0.00     0.091 A 
HETATM    7  C20 UNL     1      44.576 -47.022   2.617  1.00  0.00     0.103 C 
HETATM    8  N1  UNL     1      44.117 -46.733   1.599  1.00  0.00    -0.191 NA
ENDROOT
BRANCH   1   9
HETATM    9  C10 UNL     1      44.267 -45.435   5.120  1.00  0.00     0.017 C 
HETATM   10  C9  UNL     1      44.639 -44.212   4.997  1.00  0.00     0.055 C 
BRANCH  10  11
HETATM   11  C8  UNL     1      43.713 -43.105   5.153  1.00  0.00     0.172 C 
HETATM   12  O1  UNL     1      43.794 -42.205   4.243  1.00  0.00    -0.289 OA
BRANCH  11  13
HETATM   13  C7  UNL     1      42.754 -42.958   6.216  1.00  0.00     0.054 C 
HETATM   14  C6  UNL     1      42.966 -42.982   7.506  1.00  0.00     0.004 C 
BRANCH  14  15
HETATM   15  C5  UNL     1      44.226 -43.164   8.174  1.00  0.00    -0.004 C 
HETATM   16  C4  UNL     1      44.574 -44.412   8.572  1.00  0.00    -0.027 C 
BRANCH  16  17
HETATM   17  C3  UNL     1      45.859 -44.618   9.258  1.00  0.00     0.027 C 
BRANCH  17  18
HETATM   18  C2  UNL     1      45.614 -45.564  10.414  1.00  0.00    -0.001 C 
HETATM   19  C1  UNL     1      45.354 -46.973   9.937  1.00  0.00     0.005 C 
ENDBRANCH  17  18
ENDBRANCH  16  17
ENDBRANCH  14  15
ENDBRANCH  11  13
ENDBRANCH  10  11
ENDBRANCH   1   9
BRANCH   5  20
HETATM   20  O4  UNL     1      45.942 -49.383   2.668  1.00  0.00    -0.352 OA
HETATM   21  C18 UNL     1      47.208 -49.739   2.182  1.00  0.00     0.210 C 
ENDBRANCH   5  20
BRANCH   4  22
HETATM   22  O3  UNL     1      46.929 -50.444   4.975  1.00  0.00    -0.351 OA
HETATM   23  C16 UNL     1      46.189 -51.611   5.288  1.00  0.00     0.210 C 
ENDBRANCH   4  22
BRANCH   3  24
HETATM   24  O2  UNL     1      46.642 -49.067   7.348  1.00  0.00    -0.353 OA
HETATM   25  C14 UNL     1      48.050 -49.096   7.489  1.00  0.00     0.210 C 
ENDBRANCH   3  24
TORSDOF 9
ENDMDL
MODEL 4
REMARK VINA RESULT: -7.887806476      1.511      1.919
REMARK  9 active torsions:
REMARK  status: ('A' for Active; 'I' for Inactive)
REMARK    1  A    between atoms: C2_2  and  C3_3 
REMARK    2  A    between atoms: C3_3  and  C4_4 
REMARK    3  A    between atoms: C5_5  and  C6_6 
REMARK    4  A    between atoms: C7_7  and  C8_8 
REMARK    5  A    between atoms: C8_8  and  C9_10 
REMARK    6  A    between atoms: C10_11  and  C11_12 
REMARK    7  A    between atoms: C13_14  and  O2_15 
REMARK    8  A    between atoms: C15_17  and  O3_18 
REMARK    9  A    between atoms: C17_20  and  O4_21 
ROOT
HETATM    1  C11 UNL     1      32.553 -42.651  10.923  1.00  0.00    -0.010 A 
HETATM    2  C12 UNL     1      31.399 -42.082  10.335  1.00  0.00     0.052 A 
HETATM    3  C13 UNL     1      30.325 -41.693  11.087  1.00  0.00     0.105 A 
HETATM    4  C15 UNL     1      30.293 -41.826  12.453  1.00  0.00     0.136 A 
HETATM    5  C17 UNL     1      31.393 -42.375  13.055  1.00  0.00     0.126 A 
HETATM    6  C19 UNL     1      32.504 -42.779  12.275  1.00  0.00     0.091 A 
HETATM    7  C20 UNL     1      33.566 -43.430  13.011  1.00  0.00     0.103 C 
HETATM    8  N1  UNL     1      34.383 -43.969  13.621  1.00  0.00    -0.191 NA
ENDROOT
BRANCH   1   9
HETATM    9  C10 UNL     1      33.625 -43.076  10.052  1.00  0.00     0.017 C 
HETATM   10  C9  UNL     1      34.205 -42.536   9.041  1.00  0.00     0.055 C 
BRANCH  10  11
HETATM   11  C8  UNL     1      35.289 -43.191   8.332  1.00  0.00     0.172 C 
HETATM   12  O1  UNL     1      36.454 -42.712   8.572  1.00  0.00    -0.289 OA
BRANCH  11  13
HETATM   13  C7  UNL     1      35.146 -44.293   7.418  1.00  0.00     0.054 C 
HETATM   14  C6  UNL     1      35.263 -45.571   7.668  1.00  0.00     0.004 C 
BRANCH  14  15
HETATM   15  C5  UNL     1      35.566 -46.183   8.934  1.00  0.00    -0.004 C 
HETATM   16  C4  UNL     1      36.722 -46.881   9.055  1.00  0.00    -0.027 C 
BRANCH  16  17
HETATM   17  C3  UNL     1      37.050 -47.514  10.343  1.00  0.00     0.027 C 
BRANCH  17  18
HETATM   18  C2  UNL     1      37.095 -46.422  11.390  1.00  0.00    -0.001 C 
HETATM   19  C1  UNL     1      36.167 -46.718  12.544  1.00  0.00     0.005 C 
ENDBRANCH  17  18
ENDBRANCH  16  17
ENDBRANCH  14  15
ENDBRANCH  11  13
ENDBRANCH  10  11
ENDBRANCH   1   9
BRANCH   5  20
HETATM   20  O4  UNL     1      31.421 -42.537  14.440  1.00  0.00    -0.352 OA
HETATM   21  C18 UNL     1      30.732 -43.589  15.063  1.00  0.00     0.210 C 
ENDBRANCH   5  20
BRANCH   4  22
HETATM   22  O3  UNL     1      29.229 -41.445  13.247  1.00  0.00    -0.351 OA
HETATM   23  C16 UNL     1      29.175 -40.111  13.721  1.00  0.00     0.210 C 
ENDBRANCH   4  22
BRANCH   3  24
HETATM   24  O2  UNL     1      29.177 -41.127  10.508  1.00  0.00    -0.353 OA
HETATM   25  C14 UNL     1      29.368 -40.102   9.550  1.00  0.00     0.210 C 
ENDBRANCH   3  24
TORSDOF 9
ENDMDL
MODEL 5
REMARK VINA RESULT: -7.857096405      1.910      3.472
REMARK  9 active torsions:
REMARK  status: ('A' for Active; 'I' for Inactive)
REMARK    1  A    between atoms: C2_2  and  C3_3 
REMARK    2  A    between atoms: C3_3  and  C4_4 
REMARK    3  A    between atoms: C5_5  and  C6_6 
REMARK    4  A    between atoms: C7_7  and  C8_8 
REMARK    5  A    between atoms: C8_8  and  C9_10 
REMARK    6  A    between atoms: C10_11  and  C11_12 
REMARK    7  A    between atoms: C13_14  and  O2_15 
REMARK    8  A    between atoms: C15_17  and  O3_18 
REMARK    9  A    between atoms: C17_20  and  O4_21 
ROOT
HETATM    1  C11 UNL     1      32.543 -42.768  11.296  1.00  0.00    -0.010 A 
HETATM    2  C12 UNL     1      31.470 -42.320  10.492  1.00  0.00     0.052 A 
HETATM    3  C13 UNL     1      30.317 -41.830  11.038  1.00  0.00     0.105 A 
HETATM    4  C15 UNL     1      30.122 -41.740  12.395  1.00  0.00     0.136 A 
HETATM    5  C17 UNL     1      31.140 -42.166  13.204  1.00  0.00     0.126 A 
HETATM    6  C19 UNL     1      32.335 -42.675  12.636  1.00  0.00     0.091 A 
HETATM    7  C20 UNL     1      33.299 -43.182  13.588  1.00  0.00     0.103 C 
HETATM    8  N1  UNL     1      34.036 -43.601  14.369  1.00  0.00    -0.191 NA
ENDROOT
BRANCH   1   9
HETATM    9  C10 UNL     1      33.710 -43.312  10.639  1.00  0.00     0.017 C 
HETATM   10  C9  UNL     1      34.039 -44.497  10.268  1.00  0.00     0.055 C 
BRANCH  10  11
HETATM   11  C8  UNL     1      35.300 -44.776   9.606  1.00  0.00     0.172 C 
HETATM   12  O1  UNL     1      36.314 -44.839  10.388  1.00  0.00    -0.289 OA
BRANCH  11  13
HETATM   13  C7  UNL     1      35.477 -44.978   8.192  1.00  0.00     0.054 C 
HETATM   14  C6  UNL     1      35.656 -44.076   7.263  1.00  0.00     0.004 C 
BRANCH  14  15
HETATM   15  C5  UNL     1      35.717 -42.649   7.439  1.00  0.00    -0.004 C 
HETATM   16  C4  UNL     1      34.555 -41.953   7.489  1.00  0.00    -0.027 C 
BRANCH  16  17
HETATM   17  C3  UNL     1      34.597 -40.493   7.670  1.00  0.00     0.027 C 
BRANCH  17  18
HETATM   18  C2  UNL     1      35.867 -39.989   7.018  1.00  0.00    -0.001 C 
HETATM   19  C1  UNL     1      36.227 -38.602   7.497  1.00  0.00     0.005 C 
ENDBRANCH  17  18
ENDBRANCH  16  17
ENDBRANCH  14  15
ENDBRANCH  11  13
ENDBRANCH  10  11
ENDBRANCH   1   9
BRANCH   5  20
HETATM   20  O4  UNL     1      31.003 -42.100  14.590  1.00  0.00    -0.352 OA
HETATM   21  C18 UNL     1      30.355 -43.118  15.305  1.00  0.00     0.210 C 
ENDBRANCH   5  20
BRANCH   4  22
HETATM   22  O3  UNL     1      28.973 -41.250  12.985  1.00  0.00    -0.351 OA
HETATM   23  C16 UNL     1      28.867 -39.857  13.221  1.00  0.00     0.210 C 
ENDBRANCH   4  22
BRANCH   3  24
HETATM   24  O2  UNL     1      29.248 -41.383  10.244  1.00  0.00    -0.353 OA
HETATM   25  C14 UNL     1      29.435 -40.186   9.513  1.00  0.00     0.210 C 
ENDBRANCH   3  24
TORSDOF 9
ENDMDL
