MODEL 1
REMARK VINA RESULT: -7.558333598      0.000      0.000
REMARK  5 active torsions:
REMARK  status: ('A' for Active; 'I' for Inactive)
REMARK    1  A    between atoms: C4_4  and  C5_5 
REMARK    2  A    between atoms: C5_5  and  N1_6 
REMARK    3  A    between atoms: C8_9  and  N2_10 
REMARK    4  A    between atoms: C14_19  and  N4_20 
REMARK    5  A    between atoms: N4_20  and  C15_22 
ROOT
HETATM    1  C1  UNL     1      29.523  -9.307  -4.429  1.00  0.00     0.090 A 
HETATM    2  C2  UNL     1      29.692  -7.949  -4.593  1.00  0.00     0.034 A 
HETATM    3  C3  UNL     1      30.240  -7.751  -5.849  1.00  0.00     0.035 A 
HETATM    4  C4  UNL     1      30.623  -6.639  -6.560  1.00  0.00     0.069 A 
HETATM    5  N3  UNL     1      31.125  -6.810  -7.773  1.00  0.00    -0.193 N 
ATOM      6  H3  UNL     1      31.405  -5.978  -8.292  1.00  0.00     0.184 HD
HETATM    7  C14 UNL     1      31.291  -8.007  -8.371  1.00  0.00     0.680 A 
HETATM    8  N5  UNL     1      30.915  -9.089  -7.673  1.00  0.00    -0.176 N 
ATOM      9  H5  UNL     1      31.026 -10.011  -8.093  1.00  0.00     0.186 HD
HETATM   10  C20 UNL     1      30.392  -8.995  -6.422  1.00  0.00     0.133 A 
HETATM   11  N6  UNL     1      29.956  -9.905  -5.553  1.00  0.00    -0.351 N 
ATOM     12  H6  UNL     1      29.951 -10.912  -5.716  1.00  0.00     0.166 HD
ENDROOT
BRANCH   4  13
HETATM   13  C5  UNL     1      30.437  -5.316  -5.897  1.00  0.00     0.330 C 
BRANCH  13  14
HETATM   14  N1  UNL     1      29.680  -4.392  -6.718  1.00  0.00     0.096 N 
HETATM   15  C6  UNL     1      29.869  -3.043  -6.287  1.00  0.00     0.275 C 
HETATM   16  C7  UNL     1      28.488  -2.537  -5.847  1.00  0.00     0.068 C 
HETATM   17  C8  UNL     1      27.857  -3.853  -5.448  1.00  0.00     0.253 C 
HETATM   18  C13 UNL     1      28.281  -4.742  -6.568  1.00  0.00     0.308 C 
BRANCH  17  19
HETATM   19  N2  UNL     1      26.463  -3.783  -5.214  1.00  0.00     0.099 N 
HETATM   20  C9  UNL     1      25.761  -3.862  -6.461  1.00  0.00     0.299 C 
HETATM   21  C10 UNL     1      24.289  -4.002  -6.164  1.00  0.00     0.198 C 
HETATM   22  O1  UNL     1      23.836  -3.025  -5.313  1.00  0.00    -0.388 OA
HETATM   23  C11 UNL     1      24.789  -2.109  -4.927  1.00  0.00     0.198 C 
HETATM   24  C12 UNL     1      26.019  -2.763  -4.332  1.00  0.00     0.299 C 
ENDBRANCH  17  19
ENDBRANCH  13  14
ENDBRANCH   4  13
BRANCH   7  25
HETATM   25  N4  UNL     1      31.782  -8.025  -9.532  1.00  0.00    -0.221 N 
ATOM     26  H4  UNL     1      32.795  -7.909  -9.555  1.00  0.00     0.178 HD
BRANCH  25  27
HETATM   27  C15 UNL     1      31.195  -8.174 -10.803  1.00  0.00     0.099 C 
HETATM   28  C16 UNL     1      31.366  -6.986 -11.690  1.00  0.00     0.026 C 
HETATM   29  C17 UNL     1      31.597  -7.514 -13.089  1.00  0.00     0.002 C 
HETATM   30  C18 UNL     1      31.434  -8.998 -13.008  1.00  0.00     0.002 C 
HETATM   31  C19 UNL     1      31.587  -9.410 -11.563  1.00  0.00     0.026 C 
ENDBRANCH  25  27
ENDBRANCH   7  25
TORSDOF 5
ENDMDL
MODEL 2
REMARK VINA RESULT: -7.497329999      1.830      2.761
REMARK  5 active torsions:
REMARK  status: ('A' for Active; 'I' for Inactive)
REMARK    1  A    between atoms: C4_4  and  C5_5 
REMARK    2  A    between atoms: C5_5  and  N1_6 
REMARK    3  A    between atoms: C8_9  and  N2_10 
REMARK    4  A    between atoms: C14_19  and  N4_20 
REMARK    5  A    between atoms: N4_20  and  C15_22 
ROOT
HETATM    1  C1  UNL     1      34.663  -4.346  -6.323  1.00  0.00     0.090 A 
HETATM    2  C2  UNL     1      33.333  -4.304  -5.968  1.00  0.00     0.034 A 
HETATM    3  C3  UNL     1      32.645  -5.119  -6.852  1.00  0.00     0.035 A 
HETATM    4  C4  UNL     1      31.324  -5.468  -7.000  1.00  0.00     0.069 A 
HETATM    5  N3  UNL     1      30.997  -6.296  -7.980  1.00  0.00    -0.193 N 
ATOM      6  H3  UNL     1      30.015  -6.549  -8.079  1.00  0.00     0.184 HD
HETATM    7  C14 UNL     1      31.873  -6.827  -8.857  1.00  0.00     0.680 A 
HETATM    8  N5  UNL     1      33.161  -6.483  -8.708  1.00  0.00    -0.176 N 
ATOM      9  H5  UNL     1      33.852  -6.866  -9.353  1.00  0.00     0.186 HD
HETATM   10  C20 UNL     1      33.574  -5.639  -7.726  1.00  0.00     0.133 A 
HETATM   11  N6  UNL     1      34.770  -5.161  -7.387  1.00  0.00    -0.351 N 
ATOM     12  H6  UNL     1      35.643  -5.383  -7.866  1.00  0.00     0.166 HD
ENDROOT
BRANCH   4  13
HETATM   13  C5  UNL     1      30.357  -4.881  -6.028  1.00  0.00     0.330 C 
BRANCH  13  14
HETATM   14  N1  UNL     1      29.598  -3.787  -6.602  1.00  0.00     0.096 N 
HETATM   15  C6  UNL     1      29.743  -2.595  -5.828  1.00  0.00     0.275 C 
HETATM   16  C7  UNL     1      28.339  -2.246  -5.314  1.00  0.00     0.068 C 
HETATM   17  C8  UNL     1      27.730  -3.631  -5.292  1.00  0.00     0.253 C 
HETATM   18  C13 UNL     1      28.205  -4.187  -6.592  1.00  0.00     0.308 C 
BRANCH  17  19
HETATM   19  N2  UNL     1      26.330  -3.648  -5.091  1.00  0.00     0.099 N 
HETATM   20  C9  UNL     1      25.665  -3.828  -6.348  1.00  0.00     0.299 C 
HETATM   21  C10 UNL     1      24.200  -4.057  -6.077  1.00  0.00     0.198 C 
HETATM   22  O1  UNL     1      23.660  -3.079  -5.279  1.00  0.00    -0.388 OA
HETATM   23  C11 UNL     1      24.538  -2.084  -4.913  1.00  0.00     0.198 C 
HETATM   24  C12 UNL     1      25.795  -2.626  -4.264  1.00  0.00     0.299 C 
ENDBRANCH  17  19
ENDBRANCH  13  14
ENDBRANCH   4  13
BRANCH   7  25
HETATM   25  N4  UNL     1      31.425  -7.603  -9.744  1.00  0.00    -0.221 N 
ATOM     26  H4  UNL     1      30.516  -8.008  -9.519  1.00  0.00     0.178 HD
BRANCH  25  27
HETATM   27  C15 UNL     1      31.943  -8.016 -10.986  1.00  0.00     0.099 C 
HETATM   28  C16 UNL     1      31.612  -9.428 -11.339  1.00  0.00     0.026 C 
HETATM   29  C17 UNL     1      31.343  -9.455 -12.827  1.00  0.00     0.002 C 
HETATM   30  C18 UNL     1      31.643  -8.081 -13.332  1.00  0.00     0.002 C 
HETATM   31  C19 UNL     1      31.617  -7.132 -12.157  1.00  0.00     0.026 C 
ENDBRANCH  25  27
ENDBRANCH   7  25
TORSDOF 5
ENDMDL
MODEL 3
REMARK VINA RESULT: -7.432483570      0.903      1.128
REMARK  5 active torsions:
REMARK  status: ('A' for Active; 'I' for Inactive)
REMARK    1  A    between atoms: C4_4  and  C5_5 
REMARK    2  A    between atoms: C5_5  and  N1_6 
REMARK    3  A    between atoms: C8_9  and  N2_10 
REMARK    4  A    between atoms: C14_19  and  N4_20 
REMARK    5  A    between atoms: N4_20  and  C15_22 
ROOT
HETATM    1  C1  UNL     1      29.743  -9.979  -5.708  1.00  0.00     0.090 A 
HETATM    2  C2  UNL     1      29.719  -8.629  -5.437  1.00  0.00     0.034 A 
HETATM    3  C3  UNL     1      30.509  -8.004  -6.387  1.00  0.00     0.035 A 
HETATM    4  C4  UNL     1      30.862  -6.698  -6.628  1.00  0.00     0.069 A 
HETATM    5  N3  UNL     1      31.658  -6.439  -7.653  1.00  0.00    -0.193 N 
ATOM      6  H3  UNL     1      31.912  -5.466  -7.823  1.00  0.00     0.184 HD
HETATM    7  C14 UNL     1      32.156  -7.372  -8.489  1.00  0.00     0.680 A 
HETATM    8  N5  UNL     1      31.810  -8.645  -8.249  1.00  0.00    -0.176 N 
ATOM      9  H5  UNL     1      32.168  -9.378  -8.861  1.00  0.00     0.186 HD
HETATM   10  C20 UNL     1      30.996  -8.990  -7.217  1.00  0.00     0.133 A 
HETATM   11  N6  UNL     1      30.523 -10.159  -6.789  1.00  0.00    -0.351 N 
ATOM     12  H6  UNL     1      30.723 -11.062  -7.219  1.00  0.00     0.166 HD
ENDROOT
BRANCH   4  13
HETATM   13  C5  UNL     1      30.308  -5.667  -5.703  1.00  0.00     0.330 C 
BRANCH  13  14
HETATM   14  N1  UNL     1      29.726  -4.546  -6.414  1.00  0.00     0.096 N 
HETATM   15  C6  UNL     1      29.986  -3.314  -5.738  1.00  0.00     0.275 C 
HETATM   16  C7  UNL     1      28.615  -2.746  -5.343  1.00  0.00     0.068 C 
HETATM   17  C8  UNL     1      27.832  -4.037  -5.239  1.00  0.00     0.253 C 
HETATM   18  C13 UNL     1      28.295  -4.767  -6.455  1.00  0.00     0.308 C 
BRANCH  17  19
HETATM   19  N2  UNL     1      26.432  -3.861  -5.124  1.00  0.00     0.099 N 
HETATM   20  C9  UNL     1      25.830  -3.930  -6.423  1.00  0.00     0.299 C 
HETATM   21  C10 UNL     1      24.333  -3.956  -6.245  1.00  0.00     0.198 C 
HETATM   22  O1  UNL     1      23.885  -2.923  -5.461  1.00  0.00    -0.388 OA
HETATM   23  C11 UNL     1      24.868  -2.064  -5.022  1.00  0.00     0.198 C 
HETATM   24  C12 UNL     1      25.994  -2.784  -4.309  1.00  0.00     0.299 C 
ENDBRANCH  17  19
ENDBRANCH  13  14
ENDBRANCH   4  13
BRANCH   7  25
HETATM   25  N4  UNL     1      32.905  -6.986  -9.427  1.00  0.00    -0.221 N 
ATOM     26  H4  UNL     1      33.836  -6.700  -9.124  1.00  0.00     0.178 HD
BRANCH  25  27
HETATM   27  C15 UNL     1      32.698  -6.875 -10.815  1.00  0.00     0.099 C 
HETATM   28  C16 UNL     1      33.221  -8.033 -11.598  1.00  0.00     0.026 C 
HETATM   29  C17 UNL     1      32.229  -8.292 -12.711  1.00  0.00     0.002 C 
HETATM   30  C18 UNL     1      31.211  -7.201 -12.626  1.00  0.00     0.002 C 
HETATM   31  C19 UNL     1      31.285  -6.594 -11.245  1.00  0.00     0.026 C 
ENDBRANCH  25  27
ENDBRANCH   7  25
TORSDOF 5
ENDMDL
MODEL 4
REMARK VINA RESULT: -7.378056260      1.644      1.728
REMARK  5 active torsions:
REMARK  status: ('A' for Active; 'I' for Inactive)
REMARK    1  A    between atoms: C4_4  and  C5_5 
REMARK    2  A    between atoms: C5_5  and  N1_6 
REMARK    3  A    between atoms: C8_9  and  N2_10 
REMARK    4  A    between atoms: C14_19  and  N4_20 
REMARK    5  A    between atoms: N4_20  and  C15_22 
ROOT
HETATM    1  C1  UNL     1      33.142  -9.247  -3.898  1.00  0.00     0.090 A 
HETATM    2  C2  UNL     1      32.453  -8.091  -4.196  1.00  0.00     0.034 A 
HETATM    3  C3  UNL     1      31.995  -8.210  -5.498  1.00  0.00     0.035 A 
HETATM    4  C4  UNL     1      31.264  -7.398  -6.331  1.00  0.00     0.069 A 
HETATM    5  N3  UNL     1      30.991  -7.831  -7.552  1.00  0.00    -0.193 N 
ATOM      6  H3  UNL     1      30.447  -7.220  -8.161  1.00  0.00     0.184 HD
HETATM    7  C14 UNL     1      31.382  -9.022  -8.046  1.00  0.00     0.680 A 
HETATM    8  N5  UNL     1      32.095  -9.811  -7.229  1.00  0.00    -0.176 N 
ATOM      9  H5  UNL     1      32.408 -10.720  -7.569  1.00  0.00     0.186 HD
HETATM   10  C20 UNL     1      32.414  -9.437  -5.962  1.00  0.00     0.133 A 
HETATM   11  N6  UNL     1      33.097 -10.034  -4.987  1.00  0.00    -0.351 N 
ATOM     12  H6  UNL     1      33.524 -10.958  -5.055  1.00  0.00     0.166 HD
ENDROOT
BRANCH   4  13
HETATM   13  C5  UNL     1      30.831  -6.080  -5.782  1.00  0.00     0.330 C 
BRANCH  13  14
HETATM   14  N1  UNL     1      30.295  -5.207  -6.807  1.00  0.00     0.096 N 
HETATM   15  C6  UNL     1      30.851  -3.894  -6.711  1.00  0.00     0.275 C 
HETATM   16  C7  UNL     1      29.675  -2.952  -6.417  1.00  0.00     0.068 C 
HETATM   17  C8  UNL     1      28.747  -3.922  -5.719  1.00  0.00     0.253 C 
HETATM   18  C13 UNL     1      28.864  -5.128  -6.590  1.00  0.00     0.308 C 
BRANCH  17  19
HETATM   19  N2  UNL     1      27.434  -3.433  -5.522  1.00  0.00     0.099 N 
HETATM   20  C9  UNL     1      26.585  -3.889  -6.582  1.00  0.00     0.299 C 
HETATM   21  C10 UNL     1      25.162  -3.535  -6.231  1.00  0.00     0.198 C 
HETATM   22  O1  UNL     1      25.020  -2.207  -5.915  1.00  0.00    -0.388 OA
HETATM   23  C11 UNL     1      26.177  -1.465  -6.007  1.00  0.00     0.198 C 
HETATM   24  C12 UNL     1      27.313  -2.056  -5.198  1.00  0.00     0.299 C 
ENDBRANCH  17  19
ENDBRANCH  13  14
ENDBRANCH   4  13
BRANCH   7  25
HETATM   25  N4  UNL     1      31.052  -9.309  -9.229  1.00  0.00    -0.221 N 
ATOM     26  H4  UNL     1      30.130  -9.737  -9.310  1.00  0.00     0.178 HD
BRANCH  25  27
HETATM   27  C15 UNL     1      31.717  -9.150 -10.459  1.00  0.00     0.099 C 
HETATM   28  C16 UNL     1      30.902  -8.460 -11.501  1.00  0.00     0.026 C 
HETATM   29  C17 UNL     1      31.847  -7.565 -12.274  1.00  0.00     0.002 C 
HETATM   30  C18 UNL     1      33.216  -7.846 -11.744  1.00  0.00     0.002 C 
HETATM   31  C19 UNL     1      33.072  -8.502 -10.391  1.00  0.00     0.026 C 
ENDBRANCH  25  27
ENDBRANCH   7  25
TORSDOF 5
ENDMDL
MODEL 5
REMARK VINA RESULT: -7.249330784      4.443      7.514
REMARK  5 active torsions:
REMARK  status: ('A' for Active; 'I' for Inactive)
REMARK    1  A    between atoms: C4_4  and  C5_5 
REMARK    2  A    between atoms: C5_5  and  N1_6 
REMARK    3  A    between atoms: C8_9  and  N2_10 
REMARK    4  A    between atoms: C14_19  and  N4_20 
REMARK    5  A    between atoms: N4_20  and  C15_22 
ROOT
HETATM    1  C1  UNL     1      31.367  -9.324 -12.902  1.00  0.00     0.090 A 
HETATM    2  C2  UNL     1      31.281  -9.472 -11.535  1.00  0.00     0.034 A 
HETATM    3  C3  UNL     1      31.826  -8.335 -10.963  1.00  0.00     0.035 A 
HETATM    4  C4  UNL     1      32.018  -7.914  -9.668  1.00  0.00     0.069 A 
HETATM    5  N3  UNL     1      32.586  -6.736  -9.467  1.00  0.00    -0.193 N 
ATOM      6  H3  UNL     1      32.722  -6.433  -8.503  1.00  0.00     0.184 HD
HETATM    7  C14 UNL     1      32.999  -5.908 -10.448  1.00  0.00     0.680 A 
HETATM    8  N5  UNL     1      32.810  -6.324 -11.709  1.00  0.00    -0.176 N 
ATOM      9  H5  UNL     1      33.110  -5.723 -12.477  1.00  0.00     0.186 HD
HETATM   10  C20 UNL     1      32.233  -7.520 -11.996  1.00  0.00     0.133 A 
HETATM   11  N6  UNL     1      31.947  -8.135 -13.142  1.00  0.00    -0.351 N 
ATOM     12  H6  UNL     1      32.139  -7.758 -14.070  1.00  0.00     0.166 HD
ENDROOT
BRANCH   4  13
HETATM   13  C5  UNL     1      31.559  -8.831  -8.585  1.00  0.00     0.330 C 
BRANCH  13  14
HETATM   14  N1  UNL     1      32.646  -9.618  -8.035  1.00  0.00     0.096 N 
HETATM   15  C6  UNL     1      32.164 -10.837  -7.467  1.00  0.00     0.275 C 
HETATM   16  C7  UNL     1      32.512 -10.778  -5.972  1.00  0.00     0.068 C 
HETATM   17  C8  UNL     1      32.520  -9.278  -5.778  1.00  0.00     0.253 C 
HETATM   18  C13 UNL     1      33.259  -8.822  -6.991  1.00  0.00     0.308 C 
BRANCH  17  19
HETATM   19  N2  UNL     1      33.055  -8.854  -4.538  1.00  0.00     0.099 N 
HETATM   20  C9  UNL     1      34.348  -9.443  -4.345  1.00  0.00     0.299 C 
HETATM   21  C10 UNL     1      34.977  -8.809  -3.131  1.00  0.00     0.198 C 
HETATM   22  O1  UNL     1      34.154  -8.860  -2.032  1.00  0.00    -0.388 OA
HETATM   23  C11 UNL     1      32.950  -9.494  -2.243  1.00  0.00     0.198 C 
HETATM   24  C12 UNL     1      32.186  -8.919  -3.417  1.00  0.00     0.299 C 
ENDBRANCH  17  19
ENDBRANCH  13  14
ENDBRANCH   4  13
BRANCH   7  25
HETATM   25  N4  UNL     1      33.526  -4.813 -10.114  1.00  0.00    -0.221 N 
ATOM     26  H4  UNL     1      34.411  -4.619 -10.584  1.00  0.00     0.178 HD
BRANCH  25  27
HETATM   27  C15 UNL     1      33.125  -3.806  -9.216  1.00  0.00     0.099 C 
HETATM   28  C16 UNL     1      31.646  -3.626  -9.133  1.00  0.00     0.026 C 
HETATM   29  C17 UNL     1      31.320  -3.340  -7.683  1.00  0.00     0.002 C 
HETATM   30  C18 UNL     1      32.631  -3.239  -6.973  1.00  0.00     0.002 C 
HETATM   31  C19 UNL     1      33.682  -3.912  -7.824  1.00  0.00     0.026 C 
ENDBRANCH  25  27
ENDBRANCH   7  25
TORSDOF 5
ENDMDL
