MODEL 1
REMARK VINA RESULT: -6.884426954      0.000      0.000
REMARK  8 active torsions:
REMARK  status: ('A' for Active; 'I' for Inactive)
REMARK    1  A    between atoms: C2_2  and  C3_3 
REMARK    2  A    between atoms: C2_2  and  N1_7 
REMARK    3  A    between atoms: C3_3  and  O1_5 
REMARK    4  A    between atoms: N2_10  and  C7_11 
REMARK    5  A    between atoms: C7_11  and  C8_12 
REMARK    6  A    between atoms: C11_15  and  N3_16 
REMARK       I    between atoms: N3_16  and  C12_17 
REMARK    7  A    between atoms: C12_17  and  O3_19 
REMARK    8  A    between atoms: O3_19  and  C13_20 
ROOT
HETATM    1  C8  UNL     1      -0.233  -0.195  29.306  1.00  0.00     0.003 C 
HETATM    2  C9  UNL     1       0.368   0.956  28.546  1.00  0.00     0.009 C 
HETATM    3  C10 UNL     1       0.491   0.612  27.064  1.00  0.00     0.040 C 
HETATM    4  C11 UNL     1      -0.793   0.204  26.472  1.00  0.00     0.169 C 
HETATM    5  C17 UNL     1      -1.260  -1.108  27.271  1.00  0.00     0.040 C 
HETATM    6  C18 UNL     1      -1.474  -0.708  28.687  1.00  0.00     0.009 C 
ENDROOT
BRANCH   1   7
HETATM    7  C7  UNL     1       0.764  -1.282  29.629  1.00  0.00     0.121 C 
BRANCH   7   8
HETATM    8  N2  UNL     1       1.543  -0.915  30.747  1.00  0.00    -0.409 N 
HETATM    9  C6  UNL     1       2.716  -0.175  30.517  1.00  0.00     0.136 C 
HETATM   10  C5  UNL     1       2.868   1.028  31.452  1.00  0.00     0.142 C 
HETATM   11  N1  UNL     1       2.336   0.706  32.746  1.00  0.00    -0.380 N 
HETATM   12  C20 UNL     1       2.167  -0.692  33.036  1.00  0.00     0.142 C 
HETATM   13  C19 UNL     1       1.059  -1.122  32.028  1.00  0.00     0.136 C 
BRANCH  11  14
HETATM   14  C2  UNL     1       1.943   1.720  33.679  1.00  0.00     0.026 C 
HETATM   15  C1  UNL     1       0.928   1.481  34.408  1.00  0.00     0.040 C 
BRANCH  14  16
HETATM   16  C3  UNL     1       2.789   2.916  33.865  1.00  0.00     0.162 C 
HETATM   17  C4  UNL     1       2.016   3.782  34.871  1.00  0.00     0.046 C 
BRANCH  16  18
HETATM   18  O1  UNL     1       4.027   2.599  34.504  1.00  0.00    -0.390 OA
ATOM     19  H1  UNL     1       4.700   3.242  34.312  1.00  0.00     0.210 HD
ENDBRANCH  16  18
ENDBRANCH  14  16
ENDBRANCH  11  14
ENDBRANCH   7   8
ENDBRANCH   1   7
BRANCH   4  20
HETATM   20  N3  UNL     1      -0.775  -0.120  25.156  1.00  0.00    -0.385 NA
HETATM   21  C12 UNL     1      -0.764  -0.445  23.825  1.00  0.00     0.435 C 
HETATM   22  O2  UNL     1      -1.571  -0.444  22.914  1.00  0.00    -0.221 OA
BRANCH  21  23
HETATM   23  O3  UNL     1       0.599  -0.915  23.397  1.00  0.00    -0.283 OA
BRANCH  23  24
HETATM   24  C13 UNL     1       1.460   0.168  22.946  1.00  0.00     0.062 C 
HETATM   25  C14 UNL     1       2.843  -0.160  23.446  1.00  0.00     0.046 C 
HETATM   26  C15 UNL     1       1.498   0.179  21.404  1.00  0.00     0.046 C 
HETATM   27  C16 UNL     1       0.979   1.494  23.478  1.00  0.00     0.046 C 
ENDBRANCH  23  24
ENDBRANCH  21  23
ENDBRANCH   4  20
TORSDOF 8
ENDMDL
MODEL 2
REMARK VINA RESULT: -6.717401040      2.058      3.967
REMARK  8 active torsions:
REMARK  status: ('A' for Active; 'I' for Inactive)
REMARK    1  A    between atoms: C2_2  and  C3_3 
REMARK    2  A    between atoms: C2_2  and  N1_7 
REMARK    3  A    between atoms: C3_3  and  O1_5 
REMARK    4  A    between atoms: N2_10  and  C7_11 
REMARK    5  A    between atoms: C7_11  and  C8_12 
REMARK    6  A    between atoms: C11_15  and  N3_16 
REMARK       I    between atoms: N3_16  and  C12_17 
REMARK    7  A    between atoms: C12_17  and  O3_19 
REMARK    8  A    between atoms: O3_19  and  C13_20 
ROOT
HETATM    1  C8  UNL     1       2.087   2.309  27.278  1.00  0.00     0.003 C 
HETATM    2  C9  UNL     1       1.643   2.393  25.842  1.00  0.00     0.009 C 
HETATM    3  C10 UNL     1       0.783   1.186  25.478  1.00  0.00     0.040 C 
HETATM    4  C11 UNL     1      -0.371   1.024  26.376  1.00  0.00     0.169 C 
HETATM    5  C17 UNL     1       0.232   0.804  27.847  1.00  0.00     0.040 C 
HETATM    6  C18 UNL     1       0.970   2.042  28.210  1.00  0.00     0.009 C 
ENDROOT
BRANCH   1   7
HETATM    7  C7  UNL     1       3.267   1.391  27.485  1.00  0.00     0.121 C 
BRANCH   7   8
HETATM    8  N2  UNL     1       3.639   1.372  28.846  1.00  0.00    -0.409 N 
HETATM    9  C6  UNL     1       3.932   2.600  29.465  1.00  0.00     0.136 C 
HETATM   10  C5  UNL     1       3.259   2.768  30.830  1.00  0.00     0.142 C 
HETATM   11  N1  UNL     1       3.202   1.500  31.501  1.00  0.00    -0.380 N 
HETATM   12  C20 UNL     1       4.085   0.478  31.009  1.00  0.00     0.142 C 
HETATM   13  C19 UNL     1       3.533   0.202  29.579  1.00  0.00     0.136 C 
BRANCH  11  14
HETATM   14  C2  UNL     1       2.277   1.245  32.565  1.00  0.00     0.026 C 
HETATM   15  C1  UNL     1       1.748   0.089  32.615  1.00  0.00     0.040 C 
BRANCH  14  16
HETATM   16  C3  UNL     1       2.081   2.253  33.625  1.00  0.00     0.162 C 
HETATM   17  C4  UNL     1       0.983   1.661  34.522  1.00  0.00     0.046 C 
BRANCH  16  18
HETATM   18  O1  UNL     1       3.232   2.379  34.462  1.00  0.00    -0.390 OA
ATOM     19  H1  UNL     1       3.542   3.276  34.506  1.00  0.00     0.210 HD
ENDBRANCH  16  18
ENDBRANCH  14  16
ENDBRANCH  11  14
ENDBRANCH   7   8
ENDBRANCH   1   7
BRANCH   4  20
HETATM   20  N3  UNL     1      -1.190  -0.026  26.123  1.00  0.00    -0.385 NA
HETATM   21  C12 UNL     1      -2.020  -1.085  25.861  1.00  0.00     0.435 C 
HETATM   22  O2  UNL     1      -2.874  -1.347  25.035  1.00  0.00    -0.221 OA
BRANCH  21  23
HETATM   23  O3  UNL     1      -1.803  -2.197  26.849  1.00  0.00    -0.283 OA
BRANCH  23  24
HETATM   24  C13 UNL     1      -2.602  -2.051  28.058  1.00  0.00     0.062 C 
HETATM   25  C14 UNL     1      -2.716  -3.430  28.653  1.00  0.00     0.046 C 
HETATM   26  C15 UNL     1      -1.847  -1.155  29.061  1.00  0.00     0.046 C 
HETATM   27  C16 UNL     1      -3.956  -1.471  27.738  1.00  0.00     0.046 C 
ENDBRANCH  23  24
ENDBRANCH  21  23
ENDBRANCH   4  20
TORSDOF 8
ENDMDL
MODEL 3
REMARK VINA RESULT: -6.711525514      3.586      7.711
REMARK  8 active torsions:
REMARK  status: ('A' for Active; 'I' for Inactive)
REMARK    1  A    between atoms: C2_2  and  C3_3 
REMARK    2  A    between atoms: C2_2  and  N1_7 
REMARK    3  A    between atoms: C3_3  and  O1_5 
REMARK    4  A    between atoms: N2_10  and  C7_11 
REMARK    5  A    between atoms: C7_11  and  C8_12 
REMARK    6  A    between atoms: C11_15  and  N3_16 
REMARK       I    between atoms: N3_16  and  C12_17 
REMARK    7  A    between atoms: C12_17  and  O3_19 
REMARK    8  A    between atoms: O3_19  and  C13_20 
ROOT
HETATM    1  C8  UNL     1      -0.457   0.325  24.353  1.00  0.00     0.003 C 
HETATM    2  C9  UNL     1      -1.764  -0.418  24.428  1.00  0.00     0.009 C 
HETATM    3  C10 UNL     1      -1.821  -1.273  25.691  1.00  0.00     0.040 C 
HETATM    4  C11 UNL     1      -1.592  -0.486  26.914  1.00  0.00     0.169 C 
HETATM    5  C17 UNL     1      -0.120   0.138  26.778  1.00  0.00     0.040 C 
HETATM    6  C18 UNL     1      -0.134   1.047  25.602  1.00  0.00     0.009 C 
ENDROOT
BRANCH   1   7
HETATM    7  C7  UNL     1       0.683  -0.524  23.845  1.00  0.00     0.121 C 
BRANCH   7   8
HETATM    8  N2  UNL     1       1.719   0.295  23.347  1.00  0.00    -0.409 N 
HETATM    9  C6  UNL     1       1.429   1.128  22.252  1.00  0.00     0.136 C 
HETATM   10  C5  UNL     1       1.929   2.564  22.432  1.00  0.00     0.142 C 
HETATM   11  N1  UNL     1       3.168   2.558  23.159  1.00  0.00    -0.380 N 
HETATM   12  C20 UNL     1       3.872   1.306  23.207  1.00  0.00     0.142 C 
HETATM   13  C19 UNL     1       2.914   0.402  24.039  1.00  0.00     0.136 C 
BRANCH  11  14
HETATM   14  C2  UNL     1       3.651   3.719  23.846  1.00  0.00     0.026 C 
HETATM   15  C1  UNL     1       4.750   4.219  23.445  1.00  0.00     0.040 C 
BRANCH  14  16
HETATM   16  C3  UNL     1       2.812   4.368  24.872  1.00  0.00     0.162 C 
HETATM   17  C4  UNL     1       3.461   3.973  26.207  1.00  0.00     0.046 C 
BRANCH  16  18
HETATM   18  O1  UNL     1       2.900   5.793  24.811  1.00  0.00    -0.390 OA
ATOM     19  H1  UNL     1       2.071   6.208  25.015  1.00  0.00     0.210 HD
ENDBRANCH  16  18
ENDBRANCH  14  16
ENDBRANCH  11  14
ENDBRANCH   7   8
ENDBRANCH   1   7
BRANCH   4  20
HETATM   20  N3  UNL     1      -1.626  -1.168  28.085  1.00  0.00    -0.385 NA
HETATM   21  C12 UNL     1      -1.663  -1.864  29.265  1.00  0.00     0.435 C 
HETATM   22  O2  UNL     1      -2.083  -2.945  29.634  1.00  0.00    -0.221 OA
BRANCH  21  23
HETATM   23  O3  UNL     1      -1.010  -1.083  30.371  1.00  0.00    -0.283 OA
BRANCH  23  24
HETATM   24  C13 UNL     1       0.307  -1.591  30.729  1.00  0.00     0.062 C 
HETATM   25  C14 UNL     1       0.787  -0.740  31.875  1.00  0.00     0.046 C 
HETATM   26  C15 UNL     1       0.172  -3.042  31.232  1.00  0.00     0.046 C 
HETATM   27  C16 UNL     1       1.247  -1.517  29.553  1.00  0.00     0.046 C 
ENDBRANCH  23  24
ENDBRANCH  21  23
ENDBRANCH   4  20
TORSDOF 8
ENDMDL
MODEL 4
REMARK VINA RESULT: -6.708894676      0.855      1.035
REMARK  8 active torsions:
REMARK  status: ('A' for Active; 'I' for Inactive)
REMARK    1  A    between atoms: C2_2  and  C3_3 
REMARK    2  A    between atoms: C2_2  and  N1_7 
REMARK    3  A    between atoms: C3_3  and  O1_5 
REMARK    4  A    between atoms: N2_10  and  C7_11 
REMARK    5  A    between atoms: C7_11  and  C8_12 
REMARK    6  A    between atoms: C11_15  and  N3_16 
REMARK       I    between atoms: N3_16  and  C12_17 
REMARK    7  A    between atoms: C12_17  and  O3_19 
REMARK    8  A    between atoms: O3_19  and  C13_20 
ROOT
HETATM    1  C8  UNL     1      -0.181  -0.139  29.359  1.00  0.00     0.003 C 
HETATM    2  C9  UNL     1       0.358   1.034  28.585  1.00  0.00     0.009 C 
HETATM    3  C10 UNL     1       0.477   0.687  27.104  1.00  0.00     0.040 C 
HETATM    4  C11 UNL     1      -0.795   0.220  26.531  1.00  0.00     0.169 C 
HETATM    5  C17 UNL     1      -1.192  -1.108  27.341  1.00  0.00     0.040 C 
HETATM    6  C18 UNL     1      -1.406  -0.711  28.758  1.00  0.00     0.009 C 
ENDROOT
BRANCH   1   7
HETATM    7  C7  UNL     1       0.867  -1.179  29.674  1.00  0.00     0.121 C 
BRANCH   7   8
HETATM    8  N2  UNL     1       1.640  -0.775  30.783  1.00  0.00    -0.409 N 
HETATM    9  C6  UNL     1       2.898  -0.197  30.533  1.00  0.00     0.136 C 
HETATM   10  C5  UNL     1       3.149   1.081  31.338  1.00  0.00     0.142 C 
HETATM   11  N1  UNL     1       2.536   0.968  32.632  1.00  0.00    -0.380 N 
HETATM   12  C20 UNL     1       2.198  -0.361  33.062  1.00  0.00     0.142 C 
HETATM   13  C19 UNL     1       1.088  -0.780  32.053  1.00  0.00     0.136 C 
BRANCH  11  14
HETATM   14  C2  UNL     1       2.226   2.118  33.427  1.00  0.00     0.026 C 
HETATM   15  C1  UNL     1       2.415   3.261  32.900  1.00  0.00     0.040 C 
BRANCH  14  16
HETATM   16  C3  UNL     1       1.580   1.949  34.744  1.00  0.00     0.162 C 
HETATM   17  C4  UNL     1       2.022   3.178  35.551  1.00  0.00     0.046 C 
BRANCH  16  18
HETATM   18  O1  UNL     1       0.156   2.043  34.655  1.00  0.00    -0.390 OA
ATOM     19  H1  UNL     1      -0.223   1.279  34.236  1.00  0.00     0.210 HD
ENDBRANCH  16  18
ENDBRANCH  14  16
ENDBRANCH  11  14
ENDBRANCH   7   8
ENDBRANCH   1   7
BRANCH   4  20
HETATM   20  N3  UNL     1      -0.779  -0.110  25.216  1.00  0.00    -0.385 NA
HETATM   21  C12 UNL     1      -0.770  -0.442  23.886  1.00  0.00     0.435 C 
HETATM   22  O2  UNL     1      -1.577  -0.439  22.975  1.00  0.00    -0.221 OA
BRANCH  21  23
HETATM   23  O3  UNL     1       0.590  -0.921  23.460  1.00  0.00    -0.283 OA
BRANCH  23  24
HETATM   24  C13 UNL     1       1.451   0.153  22.986  1.00  0.00     0.062 C 
HETATM   25  C14 UNL     1       2.834  -0.166  23.491  1.00  0.00     0.046 C 
HETATM   26  C15 UNL     1       1.486   0.134  21.445  1.00  0.00     0.046 C 
HETATM   27  C16 UNL     1       0.971   1.489  23.494  1.00  0.00     0.046 C 
ENDBRANCH  23  24
ENDBRANCH  21  23
ENDBRANCH   4  20
TORSDOF 8
ENDMDL
MODEL 5
REMARK VINA RESULT: -6.695889557      1.627      8.627
REMARK  8 active torsions:
REMARK  status: ('A' for Active; 'I' for Inactive)
REMARK    1  A    between atoms: C2_2  and  C3_3 
REMARK    2  A    between atoms: C2_2  and  N1_7 
REMARK    3  A    between atoms: C3_3  and  O1_5 
REMARK    4  A    between atoms: N2_10  and  C7_11 
REMARK    5  A    between atoms: C7_11  and  C8_12 
REMARK    6  A    between atoms: C11_15  and  N3_16 
REMARK       I    between atoms: N3_16  and  C12_17 
REMARK    7  A    between atoms: C12_17  and  O3_19 
REMARK    8  A    between atoms: O3_19  and  C13_20 
ROOT
HETATM    1  C8  UNL     1       0.697  -0.748  28.911  1.00  0.00     0.003 C 
HETATM    2  C9  UNL     1       1.996  -0.589  28.169  1.00  0.00     0.009 C 
HETATM    3  C10 UNL     1       2.945   0.323  28.942  1.00  0.00     0.040 C 
HETATM    4  C11 UNL     1       3.179  -0.143  30.318  1.00  0.00     0.169 C 
HETATM    5  C17 UNL     1       1.748  -0.135  31.044  1.00  0.00     0.040 C 
HETATM    6  C18 UNL     1       0.887  -1.115  30.332  1.00  0.00     0.009 C 
ENDROOT
BRANCH   1   7
HETATM    7  C7  UNL     1      -0.246   0.416  28.719  1.00  0.00     0.121 C 
BRANCH   7   8
HETATM    8  N2  UNL     1      -0.298   0.783  27.358  1.00  0.00    -0.409 N 
HETATM    9  C6  UNL     1       0.162   2.063  27.003  1.00  0.00     0.136 C 
HETATM   10  C5  UNL     1       1.093   2.058  25.788  1.00  0.00     0.142 C 
HETATM   11  N1  UNL     1       0.673   1.047  24.859  1.00  0.00    -0.380 N 
HETATM   12  C20 UNL     1      -0.670   0.558  25.014  1.00  0.00     0.142 C 
HETATM   13  C19 UNL     1      -0.618  -0.162  26.396  1.00  0.00     0.136 C 
BRANCH  11  14
HETATM   14  C2  UNL     1       1.558   0.513  23.866  1.00  0.00     0.026 C 
HETATM   15  C1  UNL     1       2.710   0.137  24.254  1.00  0.00     0.040 C 
BRANCH  14  16
HETATM   16  C3  UNL     1       1.070   0.286  22.492  1.00  0.00     0.162 C 
HETATM   17  C4  UNL     1       1.918   1.225  21.622  1.00  0.00     0.046 C 
BRANCH  16  18
HETATM   18  O1  UNL     1       1.366  -1.034  22.031  1.00  0.00    -0.390 OA
ATOM     19  H1  UNL     1       1.983  -1.027  21.309  1.00  0.00     0.210 HD
ENDBRANCH  16  18
ENDBRANCH  14  16
ENDBRANCH  11  14
ENDBRANCH   7   8
ENDBRANCH   1   7
BRANCH   4  20
HETATM   20  N3  UNL     1       4.011   0.611  31.077  1.00  0.00    -0.385 NA
HETATM   21  C12 UNL     1       4.859   1.373  31.838  1.00  0.00     0.435 C 
HETATM   22  O2  UNL     1       5.977   1.835  31.712  1.00  0.00    -0.221 OA
BRANCH  21  23
HETATM   23  O3  UNL     1       4.228   1.724  33.157  1.00  0.00    -0.283 OA
BRANCH  23  24
HETATM   24  C13 UNL     1       3.408   2.926  33.096  1.00  0.00     0.062 C 
HETATM   25  C14 UNL     1       2.074   2.553  33.688  1.00  0.00     0.046 C 
HETATM   26  C15 UNL     1       4.040   4.017  33.985  1.00  0.00     0.046 C 
HETATM   27  C16 UNL     1       3.268   3.408  31.675  1.00  0.00     0.046 C 
ENDBRANCH  23  24
ENDBRANCH  21  23
ENDBRANCH   4  20
TORSDOF 8
ENDMDL
