MODEL 1
REMARK VINA RESULT: -7.778988947      0.000      0.000
REMARK  20 active torsions:
REMARK  status: ('A' for Active; 'I' for Inactive)
REMARK    1  A    between atoms: O1_2  and  C2_3 
REMARK    2  A    between atoms: C2_3  and  C3_5 
REMARK    3  A    between atoms: C3_5  and  O4_7 
REMARK    4  A    between atoms: O4_7  and  C4_8 
REMARK    5  A    between atoms: C5_9  and  O5_10 
REMARK    6  A    between atoms: O5_10  and  C6_11 
REMARK    7  A    between atoms: C6_11  and  C7_12 
REMARK    8  A    between atoms: C7_12  and  O6_14 
REMARK    9  A    between atoms: C9_16  and  N1_17 
REMARK   10  A    between atoms: N1_17  and  C10_19 
REMARK   11  A    between atoms: C11_20  and  O7_21 
REMARK   12  A    between atoms: C13_25  and  O9_26 
REMARK   13  A    between atoms: C14_28  and  N2_29 
REMARK   14  A    between atoms: C15_31  and  O10_33 
REMARK   15  A    between atoms: N3_35  and  O11_36 
REMARK   16  A    between atoms: C17_38  and  N4_39 
REMARK   17  A    between atoms: N4_39  and  N5_40 
REMARK   18  A    between atoms: C18_43  and  O12_44 
REMARK   19  A    between atoms: C18_43  and  C19_46 
REMARK   20  A    between atoms: C19_46  and  O14_48 
ROOT
HETATM    1  C4  UNL     1      13.552  20.899  15.218  1.00  0.00     0.209 C 
HETATM    2  C5  UNL     1      14.538  20.976  14.082  1.00  0.00     0.179 C 
HETATM    3  C9  UNL     1      14.391  19.655  13.305  1.00  0.00     0.139 C 
HETATM    4  C17 UNL     1      13.724  18.771  14.355  1.00  0.00     0.171 C 
HETATM    5  C18 UNL     1      12.650  19.768  14.784  1.00  0.00     0.195 C 
ENDROOT
BRANCH   3   6
HETATM    6  N1  UNL     1      15.613  19.172  12.831  1.00  0.00    -0.363 N 
ATOM      7  H1  UNL     1      16.422  19.347  13.427  1.00  0.00     0.161 HD
BRANCH   6   8
HETATM    8  C10 UNL     1      15.867  18.477  11.640  1.00  0.00     0.169 A 
HETATM    9  C11 UNL     1      15.395  17.221  11.342  1.00  0.00     0.166 A 
HETATM   10  C12 UNL     1      15.727  16.592  10.154  1.00  0.00     0.245 A 
HETATM   11  O8  UNL     1      15.288  15.449   9.901  1.00  0.00    -0.282 OA
HETATM   12  C13 UNL     1      16.543  17.200   9.224  1.00  0.00     0.166 A 
HETATM   13  C14 UNL     1      17.020  18.451   9.500  1.00  0.00     0.174 A 
HETATM   14  N3  UNL     1      16.660  19.043  10.710  1.00  0.00    -0.186 N 
BRANCH   9  15
HETATM   15  O7  UNL     1      14.569  16.579  12.246  1.00  0.00    -0.354 OA
ATOM     16  H7  UNL     1      14.090  15.807  11.969  1.00  0.00     0.218 HD
ENDBRANCH   9  15
BRANCH  12  17
HETATM   17  O9  UNL     1      16.858  16.517   8.050  1.00  0.00    -0.354 OA
ATOM     18  H9  UNL     1      17.659  16.738   7.589  1.00  0.00     0.218 HD
ENDBRANCH  12  17
BRANCH  13  19
HETATM   19  N2  UNL     1      17.759  19.263   8.629  1.00  0.00    -0.323 N 
HETATM   20  C15 UNL     1      17.629  19.694   7.342  1.00  0.00     0.112 C 
HETATM   21  C16 UNL     1      16.529  19.601   6.386  1.00  0.00     0.097 C 
ATOM     22  H2  UNL     1      18.607  19.622   9.069  1.00  0.00     0.169 HD
BRANCH  20  23
HETATM   23  O10 UNL     1      18.715  20.326   6.885  1.00  0.00    -0.350 OA
ATOM     24  H10 UNL     1      18.512  21.127   6.415  1.00  0.00     0.219 HD
ENDBRANCH  20  23
ENDBRANCH  13  19
BRANCH  14  25
HETATM   25  O11 UNL     1      17.136  20.315  11.000  1.00  0.00    -0.279 OA
ATOM     26  H11 UNL     1      17.940  20.572  10.565  1.00  0.00     0.245 HD
ENDBRANCH  14  25
ENDBRANCH   6   8
ENDBRANCH   3   6
BRANCH   2  27
HETATM   27  O5  UNL     1      15.825  21.191  14.485  1.00  0.00    -0.379 OA
BRANCH  27  28
HETATM   28  C6  UNL     1      15.829  21.737  15.762  1.00  0.00     0.199 C 
BRANCH  28  29
HETATM   29  C7  UNL     1      17.012  21.267  16.572  1.00  0.00     0.138 C 
HETATM   30  C8  UNL     1      17.226  22.129  17.781  1.00  0.00     0.041 C 
BRANCH  29  31
HETATM   31  O6  UNL     1      16.820  19.930  16.892  1.00  0.00    -0.394 OA
ATOM     32  H6  UNL     1      16.542  19.876  17.798  1.00  0.00     0.210 HD
ENDBRANCH  29  31
ENDBRANCH  28  29
ENDBRANCH  27  28
ENDBRANCH   2  27
BRANCH   4  33
HETATM   33  N4  UNL     1      14.590  18.579  15.502  1.00  0.00    -0.138 NA
BRANCH  33  34
HETATM   34  N5  UNL     1      15.576  17.614  15.261  1.00  0.00    -0.348 N 
ATOM     35  H52 UNL     1      15.467  16.865  14.578  1.00  0.00     0.172 HD
ATOM     36  H51 UNL     1      16.400  17.754  15.846  1.00  0.00     0.172 HD
ENDBRANCH  33  34
ENDBRANCH   4  33
BRANCH   1  37
HETATM   37  O4  UNL     1      12.738  22.056  15.299  1.00  0.00    -0.302 OA
BRANCH  37  38
HETATM   38  C3  UNL     1      12.398  22.535  16.537  1.00  0.00     0.359 C 
HETATM   39  O3  UNL     1      13.297  23.020  17.279  1.00  0.00    -0.253 OA
BRANCH  38  40
HETATM   40  C2  UNL     1      11.026  22.515  17.055  1.00  0.00     0.358 C 
HETATM   41  O2  UNL     1      10.684  21.645  17.897  1.00  0.00    -0.253 OA
BRANCH  40  42
HETATM   42  O1  UNL     1      10.075  23.430  16.650  1.00  0.00    -0.318 OA
HETATM   43  C1  UNL     1      10.233  24.792  16.974  1.00  0.00     0.213 C 
ENDBRANCH  40  42
ENDBRANCH  38  40
ENDBRANCH  37  38
ENDBRANCH   1  37
BRANCH   5  44
HETATM   44  O12 UNL     1      12.010  20.155  13.596  1.00  0.00    -0.376 OA
ATOM     45  H12 UNL     1      11.556  19.397  13.247  1.00  0.00     0.211 HD
ENDBRANCH   5  44
BRANCH   5  46
HETATM   46  C19 UNL     1      11.728  19.301  15.793  1.00  0.00     0.297 C 
HETATM   47  O13 UNL     1      12.060  18.868  16.913  1.00  0.00    -0.262 OA
BRANCH  46  48
HETATM   48  O14 UNL     1      10.368  19.333  15.502  1.00  0.00    -0.324 OA
HETATM   49  C20 UNL     1       9.399  18.602  16.209  1.00  0.00     0.213 C 
ENDBRANCH  46  48
ENDBRANCH   5  46
TORSDOF 20
ENDMDL
MODEL 2
REMARK VINA RESULT: -7.672972489      1.087      1.657
REMARK  20 active torsions:
REMARK  status: ('A' for Active; 'I' for Inactive)
REMARK    1  A    between atoms: O1_2  and  C2_3 
REMARK    2  A    between atoms: C2_3  and  C3_5 
REMARK    3  A    between atoms: C3_5  and  O4_7 
REMARK    4  A    between atoms: O4_7  and  C4_8 
REMARK    5  A    between atoms: C5_9  and  O5_10 
REMARK    6  A    between atoms: O5_10  and  C6_11 
REMARK    7  A    between atoms: C6_11  and  C7_12 
REMARK    8  A    between atoms: C7_12  and  O6_14 
REMARK    9  A    between atoms: C9_16  and  N1_17 
REMARK   10  A    between atoms: N1_17  and  C10_19 
REMARK   11  A    between atoms: C11_20  and  O7_21 
REMARK   12  A    between atoms: C13_25  and  O9_26 
REMARK   13  A    between atoms: C14_28  and  N2_29 
REMARK   14  A    between atoms: C15_31  and  O10_33 
REMARK   15  A    between atoms: N3_35  and  O11_36 
REMARK   16  A    between atoms: C17_38  and  N4_39 
REMARK   17  A    between atoms: N4_39  and  N5_40 
REMARK   18  A    between atoms: C18_43  and  O12_44 
REMARK   19  A    between atoms: C18_43  and  C19_46 
REMARK   20  A    between atoms: C19_46  and  O14_48 
ROOT
HETATM    1  C4  UNL     1      13.637  21.202  15.197  1.00  0.00     0.209 C 
HETATM    2  C5  UNL     1      14.651  21.143  14.085  1.00  0.00     0.179 C 
HETATM    3  C9  UNL     1      14.400  19.811  13.355  1.00  0.00     0.139 C 
HETATM    4  C17 UNL     1      13.632  19.034  14.420  1.00  0.00     0.171 C 
HETATM    5  C18 UNL     1      12.644  20.142  14.782  1.00  0.00     0.195 C 
ENDROOT
BRANCH   3   6
HETATM    6  N1  UNL     1      15.584  19.199  12.932  1.00  0.00    -0.363 N 
ATOM      7  H1  UNL     1      16.373  19.266  13.574  1.00  0.00     0.161 HD
BRANCH   6   8
HETATM    8  C10 UNL     1      15.822  18.507  11.737  1.00  0.00     0.169 A 
HETATM    9  C11 UNL     1      15.328  17.260  11.434  1.00  0.00     0.166 A 
HETATM   10  C12 UNL     1      15.646  16.632  10.242  1.00  0.00     0.245 A 
HETATM   11  O8  UNL     1      15.187  15.497   9.985  1.00  0.00    -0.282 OA
HETATM   12  C13 UNL     1      16.468  17.231   9.312  1.00  0.00     0.166 A 
HETATM   13  C14 UNL     1      16.966  18.473   9.592  1.00  0.00     0.174 A 
HETATM   14  N3  UNL     1      16.620  19.065  10.806  1.00  0.00    -0.186 N 
BRANCH   9  15
HETATM   15  O7  UNL     1      14.496  16.627  12.339  1.00  0.00    -0.354 OA
ATOM     16  H7  UNL     1      13.566  16.824  12.330  1.00  0.00     0.218 HD
ENDBRANCH   9  15
BRANCH  12  17
HETATM   17  O9  UNL     1      16.767  16.548   8.134  1.00  0.00    -0.354 OA
ATOM     18  H9  UNL     1      17.108  17.035   7.392  1.00  0.00     0.218 HD
ENDBRANCH  12  17
BRANCH  13  19
HETATM   19  N2  UNL     1      17.714  19.277   8.722  1.00  0.00    -0.323 N 
HETATM   20  C15 UNL     1      17.606  19.684   7.425  1.00  0.00     0.112 C 
HETATM   21  C16 UNL     1      16.527  19.562   6.448  1.00  0.00     0.097 C 
ATOM     22  H2  UNL     1      18.549  19.652   9.172  1.00  0.00     0.169 HD
BRANCH  20  23
HETATM   23  O10 UNL     1      18.694  20.320   6.979  1.00  0.00    -0.350 OA
ATOM     24  H10 UNL     1      18.948  20.058   6.101  1.00  0.00     0.219 HD
ENDBRANCH  20  23
ENDBRANCH  13  19
BRANCH  14  25
HETATM   25  O11 UNL     1      17.117  20.327  11.100  1.00  0.00    -0.279 OA
ATOM     26  H11 UNL     1      17.955  20.355  11.547  1.00  0.00     0.245 HD
ENDBRANCH  14  25
ENDBRANCH   6   8
ENDBRANCH   3   6
BRANCH   2  27
HETATM   27  O5  UNL     1      15.943  21.256  14.513  1.00  0.00    -0.379 OA
BRANCH  27  28
HETATM   28  C6  UNL     1      15.961  21.700  15.829  1.00  0.00     0.199 C 
BRANCH  28  29
HETATM   29  C7  UNL     1      17.103  21.099  16.610  1.00  0.00     0.138 C 
HETATM   30  C8  UNL     1      17.451  21.937  17.805  1.00  0.00     0.041 C 
BRANCH  29  31
HETATM   31  O6  UNL     1      16.765  19.797  16.948  1.00  0.00    -0.394 OA
ATOM     32  H6  UNL     1      17.140  19.601  17.798  1.00  0.00     0.210 HD
ENDBRANCH  29  31
ENDBRANCH  28  29
ENDBRANCH  27  28
ENDBRANCH   2  27
BRANCH   4  33
HETATM   33  N4  UNL     1      14.449  18.810  15.596  1.00  0.00    -0.138 NA
BRANCH  33  34
HETATM   34  N5  UNL     1      15.303  17.712  15.441  1.00  0.00    -0.348 N 
ATOM     35  H52 UNL     1      16.304  17.803  15.269  1.00  0.00     0.172 HD
ATOM     36  H51 UNL     1      14.805  16.825  15.520  1.00  0.00     0.172 HD
ENDBRANCH  33  34
ENDBRANCH   4  33
BRANCH   1  37
HETATM   37  O4  UNL     1      12.931  22.431  15.212  1.00  0.00    -0.302 OA
BRANCH  37  38
HETATM   38  C3  UNL     1      13.266  23.369  16.153  1.00  0.00     0.359 C 
HETATM   39  O3  UNL     1      13.155  23.081  17.377  1.00  0.00    -0.253 OA
BRANCH  38  40
HETATM   40  C2  UNL     1      13.754  24.709  15.811  1.00  0.00     0.358 C 
HETATM   41  O2  UNL     1      13.036  25.717  16.037  1.00  0.00    -0.253 OA
BRANCH  40  42
HETATM   42  O1  UNL     1      14.994  24.915  15.240  1.00  0.00    -0.318 OA
HETATM   43  C1  UNL     1      15.135  24.864  13.839  1.00  0.00     0.213 C 
ENDBRANCH  40  42
ENDBRANCH  38  40
ENDBRANCH  37  38
ENDBRANCH   1  37
BRANCH   5  44
HETATM   44  O12 UNL     1      12.069  20.536  13.565  1.00  0.00    -0.376 OA
ATOM     45  H12 UNL     1      11.746  19.759  13.126  1.00  0.00     0.211 HD
ENDBRANCH   5  44
BRANCH   5  46
HETATM   46  C19 UNL     1      11.660  19.802  15.783  1.00  0.00     0.297 C 
HETATM   47  O13 UNL     1      11.661  20.229  16.955  1.00  0.00    -0.262 OA
BRANCH  46  48
HETATM   48  O14 UNL     1      10.634  18.936  15.425  1.00  0.00    -0.324 OA
HETATM   49  C20 UNL     1       9.419  18.829  16.122  1.00  0.00     0.213 C 
ENDBRANCH  46  48
ENDBRANCH   5  46
TORSDOF 20
ENDMDL
MODEL 3
REMARK VINA RESULT: -7.544839661      1.567      2.663
REMARK  20 active torsions:
REMARK  status: ('A' for Active; 'I' for Inactive)
REMARK    1  A    between atoms: O1_2  and  C2_3 
REMARK    2  A    between atoms: C2_3  and  C3_5 
REMARK    3  A    between atoms: C3_5  and  O4_7 
REMARK    4  A    between atoms: O4_7  and  C4_8 
REMARK    5  A    between atoms: C5_9  and  O5_10 
REMARK    6  A    between atoms: O5_10  and  C6_11 
REMARK    7  A    between atoms: C6_11  and  C7_12 
REMARK    8  A    between atoms: C7_12  and  O6_14 
REMARK    9  A    between atoms: C9_16  and  N1_17 
REMARK   10  A    between atoms: N1_17  and  C10_19 
REMARK   11  A    between atoms: C11_20  and  O7_21 
REMARK   12  A    between atoms: C13_25  and  O9_26 
REMARK   13  A    between atoms: C14_28  and  N2_29 
REMARK   14  A    between atoms: C15_31  and  O10_33 
REMARK   15  A    between atoms: N3_35  and  O11_36 
REMARK   16  A    between atoms: C17_38  and  N4_39 
REMARK   17  A    between atoms: N4_39  and  N5_40 
REMARK   18  A    between atoms: C18_43  and  O12_44 
REMARK   19  A    between atoms: C18_43  and  C19_46 
REMARK   20  A    between atoms: C19_46  and  O14_48 
ROOT
HETATM    1  C4  UNL     1      13.938  21.757  14.785  1.00  0.00     0.209 C 
HETATM    2  C5  UNL     1      15.033  21.393  13.817  1.00  0.00     0.179 C 
HETATM    3  C9  UNL     1      14.542  20.134  13.078  1.00  0.00     0.139 C 
HETATM    4  C17 UNL     1      13.475  19.627  14.043  1.00  0.00     0.171 C 
HETATM    5  C18 UNL     1      12.766  20.963  14.257  1.00  0.00     0.195 C 
ENDROOT
BRANCH   3   6
HETATM    6  N1  UNL     1      15.573  19.226  12.823  1.00  0.00    -0.363 N 
ATOM      7  H1  UNL     1      16.220  19.058  13.593  1.00  0.00     0.161 HD
BRANCH   6   8
HETATM    8  C10 UNL     1      15.829  18.516  11.642  1.00  0.00     0.169 A 
HETATM    9  C11 UNL     1      15.321  17.275  11.340  1.00  0.00     0.166 A 
HETATM   10  C12 UNL     1      15.658  16.627  10.163  1.00  0.00     0.245 A 
HETATM   11  O8  UNL     1      15.185  15.498   9.907  1.00  0.00    -0.282 OA
HETATM   12  C13 UNL     1      16.514  17.201   9.248  1.00  0.00     0.166 A 
HETATM   13  C14 UNL     1      17.027  18.437   9.528  1.00  0.00     0.174 A 
HETATM   14  N3  UNL     1      16.661  19.049  10.726  1.00  0.00    -0.186 N 
BRANCH   9  15
HETATM   15  O7  UNL     1      14.454  16.667  12.229  1.00  0.00    -0.354 OA
ATOM     16  H7  UNL     1      13.836  16.021  11.906  1.00  0.00     0.218 HD
ENDBRANCH   9  15
BRANCH  12  17
HETATM   17  O9  UNL     1      16.832  16.500   8.086  1.00  0.00    -0.354 OA
ATOM     18  H9  UNL     1      16.547  16.844   7.247  1.00  0.00     0.218 HD
ENDBRANCH  12  17
BRANCH  13  19
HETATM   19  N2  UNL     1      17.813  19.218   8.669  1.00  0.00    -0.323 N 
HETATM   20  C15 UNL     1      17.700  19.691   7.396  1.00  0.00     0.112 C 
HETATM   21  C16 UNL     1      16.585  19.701   6.451  1.00  0.00     0.097 C 
ATOM     22  H2  UNL     1      18.688  19.504   9.107  1.00  0.00     0.169 HD
BRANCH  20  23
HETATM   23  O10 UNL     1      18.822  20.258   6.942  1.00  0.00    -0.350 OA
ATOM     24  H10 UNL     1      19.570  19.671   6.956  1.00  0.00     0.219 HD
ENDBRANCH  20  23
ENDBRANCH  13  19
BRANCH  14  25
HETATM   25  O11 UNL     1      17.173  20.305  11.020  1.00  0.00    -0.279 OA
ATOM     26  H11 UNL     1      18.003  20.526  10.613  1.00  0.00     0.245 HD
ENDBRANCH  14  25
ENDBRANCH   6   8
ENDBRANCH   3   6
BRANCH   2  27
HETATM   27  O5  UNL     1      16.248  21.197  14.410  1.00  0.00    -0.379 OA
BRANCH  27  28
HETATM   28  C6  UNL     1      16.184  21.584  15.743  1.00  0.00     0.199 C 
BRANCH  28  29
HETATM   29  C7  UNL     1      17.117  20.775  16.609  1.00  0.00     0.138 C 
HETATM   30  C8  UNL     1      17.527  21.537  17.835  1.00  0.00     0.041 C 
BRANCH  29  31
HETATM   31  O6  UNL     1      16.501  19.568  16.908  1.00  0.00    -0.394 OA
ATOM     32  H6  UNL     1      16.052  19.659  17.740  1.00  0.00     0.210 HD
ENDBRANCH  29  31
ENDBRANCH  28  29
ENDBRANCH  27  28
ENDBRANCH   2  27
BRANCH   4  33
HETATM   33  N4  UNL     1      14.055  19.259  15.319  1.00  0.00    -0.138 NA
BRANCH  33  34
HETATM   34  N5  UNL     1      14.370  17.896  15.380  1.00  0.00    -0.348 N 
ATOM     35  H52 UNL     1      13.790  17.171  14.959  1.00  0.00     0.172 HD
ATOM     36  H51 UNL     1      15.237  17.725  15.890  1.00  0.00     0.172 HD
ENDBRANCH  33  34
ENDBRANCH   4  33
BRANCH   1  37
HETATM   37  O4  UNL     1      13.574  23.124  14.690  1.00  0.00    -0.302 OA
BRANCH  37  38
HETATM   38  C3  UNL     1      14.253  23.925  13.811  1.00  0.00     0.359 C 
HETATM   39  O3  UNL     1      13.929  23.915  12.590  1.00  0.00    -0.253 OA
BRANCH  38  40
HETATM   40  C2  UNL     1      15.352  24.808  14.215  1.00  0.00     0.358 C 
HETATM   41  O2  UNL     1      15.111  25.847  14.882  1.00  0.00    -0.253 OA
BRANCH  40  42
HETATM   42  O1  UNL     1      16.666  24.542  13.888  1.00  0.00    -0.318 OA
HETATM   43  C1  UNL     1      17.694  24.897  14.782  1.00  0.00     0.213 C 
ENDBRANCH  40  42
ENDBRANCH  38  40
ENDBRANCH  37  38
ENDBRANCH   1  37
BRANCH   5  44
HETATM   44  O12 UNL     1      12.467  21.433  12.969  1.00  0.00    -0.376 OA
ATOM     45  H12 UNL     1      12.167  22.330  13.045  1.00  0.00     0.211 HD
ENDBRANCH   5  44
BRANCH   5  46
HETATM   46  C19 UNL     1      11.612  20.929  15.124  1.00  0.00     0.297 C 
HETATM   47  O13 UNL     1      10.469  20.575  14.773  1.00  0.00    -0.262 OA
BRANCH  46  48
HETATM   48  O14 UNL     1      11.777  21.317  16.449  1.00  0.00    -0.324 OA
HETATM   49  C20 UNL     1      10.977  22.279  17.089  1.00  0.00     0.213 C 
ENDBRANCH  46  48
ENDBRANCH   5  46
TORSDOF 20
ENDMDL
MODEL 4
REMARK VINA RESULT: -7.468755418      1.308      2.003
REMARK  20 active torsions:
REMARK  status: ('A' for Active; 'I' for Inactive)
REMARK    1  A    between atoms: O1_2  and  C2_3 
REMARK    2  A    between atoms: C2_3  and  C3_5 
REMARK    3  A    between atoms: C3_5  and  O4_7 
REMARK    4  A    between atoms: O4_7  and  C4_8 
REMARK    5  A    between atoms: C5_9  and  O5_10 
REMARK    6  A    between atoms: O5_10  and  C6_11 
REMARK    7  A    between atoms: C6_11  and  C7_12 
REMARK    8  A    between atoms: C7_12  and  O6_14 
REMARK    9  A    between atoms: C9_16  and  N1_17 
REMARK   10  A    between atoms: N1_17  and  C10_19 
REMARK   11  A    between atoms: C11_20  and  O7_21 
REMARK   12  A    between atoms: C13_25  and  O9_26 
REMARK   13  A    between atoms: C14_28  and  N2_29 
REMARK   14  A    between atoms: C15_31  and  O10_33 
REMARK   15  A    between atoms: N3_35  and  O11_36 
REMARK   16  A    between atoms: C17_38  and  N4_39 
REMARK   17  A    between atoms: N4_39  and  N5_40 
REMARK   18  A    between atoms: C18_43  and  O12_44 
REMARK   19  A    between atoms: C18_43  and  C19_46 
REMARK   20  A    between atoms: C19_46  and  O14_48 
ROOT
HETATM    1  C4  UNL     1      13.645  21.179  15.194  1.00  0.00     0.209 C 
HETATM    2  C5  UNL     1      14.666  21.122  14.088  1.00  0.00     0.179 C 
HETATM    3  C9  UNL     1      14.408  19.798  13.345  1.00  0.00     0.139 C 
HETATM    4  C17 UNL     1      13.627  19.019  14.399  1.00  0.00     0.171 C 
HETATM    5  C18 UNL     1      12.646  20.131  14.765  1.00  0.00     0.195 C 
ENDROOT
BRANCH   3   6
HETATM    6  N1  UNL     1      15.589  19.181  12.924  1.00  0.00    -0.363 N 
ATOM      7  H1  UNL     1      16.376  19.239  13.569  1.00  0.00     0.161 HD
BRANCH   6   8
HETATM    8  C10 UNL     1      15.827  18.492  11.726  1.00  0.00     0.169 A 
HETATM    9  C11 UNL     1      15.321  17.253  11.413  1.00  0.00     0.166 A 
HETATM   10  C12 UNL     1      15.640  16.628  10.220  1.00  0.00     0.245 A 
HETATM   11  O8  UNL     1      15.170  15.499   9.954  1.00  0.00    -0.282 OA
HETATM   12  C13 UNL     1      16.474  17.223   9.298  1.00  0.00     0.166 A 
HETATM   13  C14 UNL     1      16.984  18.458   9.589  1.00  0.00     0.174 A 
HETATM   14  N3  UNL     1      16.638  19.047  10.804  1.00  0.00    -0.186 N 
BRANCH   9  15
HETATM   15  O7  UNL     1      14.476  16.624  12.309  1.00  0.00    -0.354 OA
ATOM     16  H7  UNL     1      14.457  16.917  13.213  1.00  0.00     0.218 HD
ENDBRANCH   9  15
BRANCH  12  17
HETATM   17  O9  UNL     1      16.774  16.544   8.118  1.00  0.00    -0.354 OA
ATOM     18  H9  UNL     1      16.692  15.597   8.097  1.00  0.00     0.218 HD
ENDBRANCH  12  17
BRANCH  13  19
HETATM   19  N2  UNL     1      17.747  19.258   8.728  1.00  0.00    -0.323 N 
HETATM   20  C15 UNL     1      17.643  19.688   7.439  1.00  0.00     0.112 C 
HETATM   21  C16 UNL     1      16.557  19.607   6.465  1.00  0.00     0.097 C 
ATOM     22  H2  UNL     1      18.593  19.607   9.180  1.00  0.00     0.169 HD
BRANCH  20  23
HETATM   23  O10 UNL     1      18.744  20.306   6.998  1.00  0.00    -0.350 OA
ATOM     24  H10 UNL     1      19.423  19.704   6.715  1.00  0.00     0.219 HD
ENDBRANCH  20  23
ENDBRANCH  13  19
BRANCH  14  25
HETATM   25  O11 UNL     1      17.146  20.301  11.109  1.00  0.00    -0.279 OA
ATOM     26  H11 UNL     1      17.086  20.570  12.018  1.00  0.00     0.245 HD
ENDBRANCH  14  25
ENDBRANCH   6   8
ENDBRANCH   3   6
BRANCH   2  27
HETATM   27  O5  UNL     1      15.956  21.221  14.525  1.00  0.00    -0.379 OA
BRANCH  27  28
HETATM   28  C6  UNL     1      15.969  21.662  15.842  1.00  0.00     0.199 C 
BRANCH  28  29
HETATM   29  C7  UNL     1      17.113  21.064  16.623  1.00  0.00     0.138 C 
HETATM   30  C8  UNL     1      17.478  21.918  17.801  1.00  0.00     0.041 C 
BRANCH  29  31
HETATM   31  O6  UNL     1      16.768  19.769  16.984  1.00  0.00    -0.394 OA
ATOM     32  H6  UNL     1      17.357  19.168  16.544  1.00  0.00     0.210 HD
ENDBRANCH  29  31
ENDBRANCH  28  29
ENDBRANCH  27  28
ENDBRANCH   2  27
BRANCH   4  33
HETATM   33  N4  UNL     1      14.435  18.778  15.577  1.00  0.00    -0.138 NA
BRANCH  33  34
HETATM   34  N5  UNL     1      15.301  17.691  15.408  1.00  0.00    -0.348 N 
ATOM     35  H52 UNL     1      16.156  17.739  14.854  1.00  0.00     0.172 HD
ATOM     36  H51 UNL     1      14.973  16.859  15.900  1.00  0.00     0.172 HD
ENDBRANCH  33  34
ENDBRANCH   4  33
BRANCH   1  37
HETATM   37  O4  UNL     1      12.949  22.415  15.215  1.00  0.00    -0.302 OA
BRANCH  37  38
HETATM   38  C3  UNL     1      13.521  23.501  14.607  1.00  0.00     0.359 C 
HETATM   39  O3  UNL     1      14.116  24.361  15.314  1.00  0.00    -0.253 OA
BRANCH  38  40
HETATM   40  C2  UNL     1      13.479  23.723  13.158  1.00  0.00     0.358 C 
HETATM   41  O2  UNL     1      14.402  24.364  12.593  1.00  0.00    -0.253 OA
BRANCH  40  42
HETATM   42  O1  UNL     1      12.448  23.248  12.372  1.00  0.00    -0.318 OA
HETATM   43  C1  UNL     1      12.702  22.874  11.038  1.00  0.00     0.213 C 
ENDBRANCH  40  42
ENDBRANCH  38  40
ENDBRANCH  37  38
ENDBRANCH   1  37
BRANCH   5  44
HETATM   44  O12 UNL     1      12.082  20.541  13.547  1.00  0.00    -0.376 OA
ATOM     45  H12 UNL     1      12.371  19.940  12.871  1.00  0.00     0.211 HD
ENDBRANCH   5  44
BRANCH   5  46
HETATM   46  C19 UNL     1      11.653  19.791  15.757  1.00  0.00     0.297 C 
HETATM   47  O13 UNL     1      11.735  20.071  16.969  1.00  0.00    -0.262 OA
BRANCH  46  48
HETATM   48  O14 UNL     1      10.521  19.100  15.340  1.00  0.00    -0.324 OA
HETATM   49  C20 UNL     1       9.546  18.594  16.215  1.00  0.00     0.213 C 
ENDBRANCH  46  48
ENDBRANCH   5  46
TORSDOF 20
ENDMDL
MODEL 5
REMARK VINA RESULT: -7.412068539      1.251      1.420
REMARK  20 active torsions:
REMARK  status: ('A' for Active; 'I' for Inactive)
REMARK    1  A    between atoms: O1_2  and  C2_3 
REMARK    2  A    between atoms: C2_3  and  C3_5 
REMARK    3  A    between atoms: C3_5  and  O4_7 
REMARK    4  A    between atoms: O4_7  and  C4_8 
REMARK    5  A    between atoms: C5_9  and  O5_10 
REMARK    6  A    between atoms: O5_10  and  C6_11 
REMARK    7  A    between atoms: C6_11  and  C7_12 
REMARK    8  A    between atoms: C7_12  and  O6_14 
REMARK    9  A    between atoms: C9_16  and  N1_17 
REMARK   10  A    between atoms: N1_17  and  C10_19 
REMARK   11  A    between atoms: C11_20  and  O7_21 
REMARK   12  A    between atoms: C13_25  and  O9_26 
REMARK   13  A    between atoms: C14_28  and  N2_29 
REMARK   14  A    between atoms: C15_31  and  O10_33 
REMARK   15  A    between atoms: N3_35  and  O11_36 
REMARK   16  A    between atoms: C17_38  and  N4_39 
REMARK   17  A    between atoms: N4_39  and  N5_40 
REMARK   18  A    between atoms: C18_43  and  O12_44 
REMARK   19  A    between atoms: C18_43  and  C19_46 
REMARK   20  A    between atoms: C19_46  and  O14_48 
ROOT
HETATM    1  C4  UNL     1      13.524  21.224  15.077  1.00  0.00     0.209 C 
HETATM    2  C5  UNL     1      14.505  21.127  13.938  1.00  0.00     0.179 C 
HETATM    3  C9  UNL     1      14.307  19.726  13.331  1.00  0.00     0.139 C 
HETATM    4  C17 UNL     1      13.618  19.002  14.483  1.00  0.00     0.171 C 
HETATM    5  C18 UNL     1      12.581  20.081  14.789  1.00  0.00     0.195 C 
ENDROOT
BRANCH   3   6
HETATM    6  N1  UNL     1      15.509  19.146  12.917  1.00  0.00    -0.363 N 
ATOM      7  H1  UNL     1      16.289  19.225  13.568  1.00  0.00     0.161 HD
BRANCH   6   8
HETATM    8  C10 UNL     1      15.777  18.469  11.719  1.00  0.00     0.169 A 
HETATM    9  C11 UNL     1      15.284  17.230  11.384  1.00  0.00     0.166 A 
HETATM   10  C12 UNL     1      15.631  16.616  10.192  1.00  0.00     0.245 A 
HETATM   11  O8  UNL     1      15.172  15.489   9.906  1.00  0.00    -0.282 OA
HETATM   12  C13 UNL     1      16.484  17.223   9.294  1.00  0.00     0.166 A 
HETATM   13  C14 UNL     1      16.982  18.458   9.607  1.00  0.00     0.174 A 
HETATM   14  N3  UNL     1      16.605  19.034  10.819  1.00  0.00    -0.186 N 
BRANCH   9  15
HETATM   15  O7  UNL     1      14.421  16.590  12.254  1.00  0.00    -0.354 OA
ATOM     16  H7  UNL     1      13.742  16.025  11.903  1.00  0.00     0.218 HD
ENDBRANCH   9  15
BRANCH  12  17
HETATM   17  O9  UNL     1      16.813  16.556   8.116  1.00  0.00    -0.354 OA
ATOM     18  H9  UNL     1      17.684  16.189   8.021  1.00  0.00     0.218 HD
ENDBRANCH  12  17
BRANCH  13  19
HETATM   19  N2  UNL     1      17.760  19.269   8.771  1.00  0.00    -0.323 N 
HETATM   20  C15 UNL     1      17.663  19.742   7.497  1.00  0.00     0.112 C 
HETATM   21  C16 UNL     1      16.574  19.716   6.523  1.00  0.00     0.097 C 
ATOM     22  H2  UNL     1      18.614  19.584   9.232  1.00  0.00     0.169 HD
BRANCH  20  23
HETATM   23  O10 UNL     1      18.776  20.350   7.073  1.00  0.00    -0.350 OA
ATOM     24  H10 UNL     1      18.785  20.505   6.135  1.00  0.00     0.219 HD
ENDBRANCH  20  23
ENDBRANCH  13  19
BRANCH  14  25
HETATM   25  O11 UNL     1      17.102  20.288  11.147  1.00  0.00    -0.279 OA
ATOM     26  H11 UNL     1      17.714  20.672  10.530  1.00  0.00     0.245 HD
ENDBRANCH  14  25
ENDBRANCH   6   8
ENDBRANCH   3   6
BRANCH   2  27
HETATM   27  O5  UNL     1      15.801  21.345  14.308  1.00  0.00    -0.379 OA
BRANCH  27  28
HETATM   28  C6  UNL     1      15.965  22.676  14.670  1.00  0.00     0.199 C 
BRANCH  28  29
HETATM   29  C7  UNL     1      16.844  22.824  15.887  1.00  0.00     0.138 C 
HETATM   30  C8  UNL     1      17.233  24.255  16.112  1.00  0.00     0.041 C 
BRANCH  29  31
HETATM   31  O6  UNL     1      16.183  22.270  16.974  1.00  0.00    -0.394 OA
ATOM     32  H6  UNL     1      16.093  21.336  16.825  1.00  0.00     0.210 HD
ENDBRANCH  29  31
ENDBRANCH  28  29
ENDBRANCH  27  28
ENDBRANCH   2  27
BRANCH   4  33
HETATM   33  N4  UNL     1      14.484  18.922  15.643  1.00  0.00    -0.138 NA
BRANCH  33  34
HETATM   34  N5  UNL     1      14.058  17.946  16.551  1.00  0.00    -0.348 N 
ATOM     35  H52 UNL     1      13.471  17.155  16.285  1.00  0.00     0.172 HD
ATOM     36  H51 UNL     1      14.403  18.123  17.495  1.00  0.00     0.172 HD
ENDBRANCH  33  34
ENDBRANCH   4  33
BRANCH   1  37
HETATM   37  O4  UNL     1      12.751  22.411  15.017  1.00  0.00    -0.302 OA
BRANCH  37  38
HETATM   38  C3  UNL     1      12.820  23.294  16.062  1.00  0.00     0.359 C 
HETATM   39  O3  UNL     1      13.431  22.957  17.115  1.00  0.00    -0.253 OA
BRANCH  38  40
HETATM   40  C2  UNL     1      12.214  24.628  16.025  1.00  0.00     0.358 C 
HETATM   41  O2  UNL     1      11.390  24.971  16.913  1.00  0.00    -0.253 OA
BRANCH  40  42
HETATM   42  O1  UNL     1      12.516  25.545  15.038  1.00  0.00    -0.318 OA
HETATM   43  C1  UNL     1      13.862  25.830  14.737  1.00  0.00     0.213 C 
ENDBRANCH  40  42
ENDBRANCH  38  40
ENDBRANCH  37  38
ENDBRANCH   1  37
BRANCH   5  44
HETATM   44  O12 UNL     1      11.946  20.340  13.564  1.00  0.00    -0.376 OA
ATOM     45  H12 UNL     1      11.483  19.554  13.300  1.00  0.00     0.211 HD
ENDBRANCH   5  44
BRANCH   5  46
HETATM   46  C19 UNL     1      11.650  19.775  15.850  1.00  0.00     0.297 C 
HETATM   47  O13 UNL     1      11.753  20.179  17.024  1.00  0.00    -0.262 OA
BRANCH  46  48
HETATM   48  O14 UNL     1      10.557  18.970  15.549  1.00  0.00    -0.324 OA
HETATM   49  C20 UNL     1       9.290  19.118  16.138  1.00  0.00     0.213 C 
ENDBRANCH  46  48
ENDBRANCH   5  46
TORSDOF 20
ENDMDL
