MODEL 1
REMARK VINA RESULT: -5.794546815      0.000      0.000
REMARK  18 active torsions:
REMARK  status: ('A' for Active; 'I' for Inactive)
REMARK    1  A    between atoms: S1_2  and  C2_3 
REMARK    2  A    between atoms: C2_3  and  O1_4 
REMARK    3  A    between atoms: C3_7  and  N1_8 
REMARK    4  A    between atoms: N1_8  and  C4_10 
REMARK    5  A    between atoms: C4_10  and  O3_11 
REMARK    6  A    between atoms: C5_13  and  O4_14 
REMARK    7  A    between atoms: C7_17  and  C8_18 
REMARK    8  A    between atoms: C7_17  and  C9_21 
REMARK    9  A    between atoms: C8_18  and  O5_19 
REMARK   10  A    between atoms: C9_21  and  O6_22 
REMARK   11  A    between atoms: C10_24  and  O7_26 
REMARK   12  A    between atoms: C12_28  and  O8_29 
REMARK   13  A    between atoms: C13_31  and  O9_32 
REMARK   14  A    between atoms: O9_32  and  C14_33 
REMARK   15  A    between atoms: C16_36  and  C17_37 
REMARK   16  A    between atoms: C17_37  and  O11_38 
REMARK   17  A    between atoms: C18_40  and  O12_41 
REMARK   18  A    between atoms: C19_43  and  O13_44 
ROOT
HETATM    1  C2  UNL     1      -2.948 -16.269   8.026  1.00  0.00     0.341 C 
HETATM    2  O2  UNL     1      -2.192 -17.068   8.760  1.00  0.00    -0.296 OA
HETATM    3  C3  UNL     1      -1.144 -17.820   8.224  1.00  0.00     0.259 C 
HETATM    4  C12 UNL     1      -1.413 -18.337   6.869  1.00  0.00     0.222 C 
HETATM    5  C13 UNL     1      -2.588 -17.624   6.204  1.00  0.00     0.302 C 
HETATM    6  O14 UNL     1      -2.667 -16.318   6.683  1.00  0.00    -0.290 OA
ENDROOT
BRANCH   3   7
HETATM    7  N1  UNL     1      -0.660 -18.694   9.220  1.00  0.00    -0.359 N 
ATOM      8  H1  UNL     1      -1.251 -19.482   9.486  1.00  0.00     0.159 HD
BRANCH   7   9
HETATM    9  C4  UNL     1       0.550 -18.560   9.857  1.00  0.00     0.188 C 
HETATM   10  C5  UNL     1       1.790 -18.178   9.117  1.00  0.00     0.177 C 
HETATM   11  C6  UNL     1       2.128 -19.522   8.445  1.00  0.00     0.054 C 
HETATM   12  C7  UNL     1       1.791 -20.549   9.518  1.00  0.00     0.040 C 
HETATM   13  C10 UNL     1       1.004 -19.847  10.542  1.00  0.00     0.118 C 
HETATM   14  C11 UNL     1      -0.094 -20.604  11.201  1.00  0.00     0.052 C 
BRANCH   9  15
HETATM   15  O3  UNL     1       0.429 -17.550  10.876  1.00  0.00    -0.366 OA
ATOM     16  H3  UNL     1       0.876 -17.850  11.659  1.00  0.00     0.212 HD
ENDBRANCH   9  15
BRANCH  10  17
HETATM   17  O4  UNL     1       2.797 -17.877  10.063  1.00  0.00    -0.391 OA
ATOM     18  H4  UNL     1       2.477 -17.187  10.631  1.00  0.00     0.210 HD
ENDBRANCH  10  17
BRANCH  12  19
HETATM   19  C8  UNL     1       3.126 -20.996  10.100  1.00  0.00     0.179 C 
BRANCH  19  20
HETATM   20  O5  UNL     1       4.196 -20.346   9.473  1.00  0.00    -0.400 OA
ATOM     21  H5  UNL     1       4.966 -20.331  10.031  1.00  0.00     0.209 HD
ENDBRANCH  19  20
ENDBRANCH  12  19
BRANCH  12  22
HETATM   22  C9  UNL     1       1.128 -21.716   8.870  1.00  0.00     0.179 C 
BRANCH  22  23
HETATM   23  O6  UNL     1       0.280 -21.328   7.832  1.00  0.00    -0.400 OA
ATOM     24  H6  UNL     1       0.024 -22.063   7.286  1.00  0.00     0.209 HD
ENDBRANCH  22  23
ENDBRANCH  12  22
BRANCH  13  25
HETATM   25  O7  UNL     1       1.877 -19.423  11.574  1.00  0.00    -0.384 OA
ATOM     26  H7  UNL     1       1.343 -19.417  12.361  1.00  0.00     0.210 HD
ENDBRANCH  13  25
ENDBRANCH   7   9
ENDBRANCH   3   7
BRANCH   4  27
HETATM   27  O8  UNL     1      -0.344 -18.071   5.969  1.00  0.00    -0.386 OA
ATOM     28  H8  UNL     1      -0.382 -18.617   5.193  1.00  0.00     0.210 HD
ENDBRANCH   4  27
BRANCH   1  29
HETATM   29  S1  UNL     1      -2.644 -14.543   8.587  1.00  0.00    -0.075 SA
HETATM   30  C1  UNL     1      -4.160 -13.582   8.579  1.00  0.00     0.098 C 
ENDBRANCH   1  29
BRANCH   1  31
HETATM   31  O1  UNL     1      -4.345 -16.481   8.225  1.00  0.00    -0.334 OA
ATOM     32  H1  UNL     1      -4.435 -16.667   9.153  1.00  0.00     0.216 HD
ENDBRANCH   1  31
BRANCH   5  33
HETATM   33  O9  UNL     1      -2.436 -17.530   4.833  1.00  0.00    -0.325 OA
BRANCH  33  34
HETATM   34  C14 UNL     1      -3.347 -16.721   4.192  1.00  0.00     0.299 C 
HETATM   35  O10 UNL     1      -3.974 -17.362   3.100  1.00  0.00    -0.329 OA
HETATM   36  C15 UNL     1      -4.535 -16.564   2.115  1.00  0.00     0.145 C 
HETATM   37  C16 UNL     1      -3.853 -15.523   1.706  1.00  0.00    -0.004 C 
HETATM   38  C18 UNL     1      -2.526 -15.263   2.317  1.00  0.00     0.184 C 
HETATM   39  C19 UNL     1      -2.624 -15.448   3.803  1.00  0.00     0.206 C 
BRANCH  37  40
HETATM   40  C17 UNL     1      -4.392 -14.623   0.655  1.00  0.00     0.203 C 
BRANCH  40  41
HETATM   41  O11 UNL     1      -3.746 -13.418   0.649  1.00  0.00    -0.397 OA
ATOM     42  H11 UNL     1      -4.032 -12.868   1.369  1.00  0.00     0.209 HD
ENDBRANCH  40  41
ENDBRANCH  37  40
BRANCH  38  43
HETATM   43  O12 UNL     1      -1.633 -16.206   1.799  1.00  0.00    -0.388 OA
ATOM     44  H12 UNL     1      -0.979 -16.376   2.467  1.00  0.00     0.210 HD
ENDBRANCH  38  43
BRANCH  39  45
HETATM   45  O13 UNL     1      -1.290 -15.455   4.279  1.00  0.00    -0.388 OA
ATOM     46  H13 UNL     1      -0.766 -14.797   3.837  1.00  0.00     0.210 HD
ENDBRANCH  39  45
ENDBRANCH  33  34
ENDBRANCH   5  33
TORSDOF 18
ENDMDL
MODEL 2
REMARK VINA RESULT: -5.546888073      2.207      3.494
REMARK  18 active torsions:
REMARK  status: ('A' for Active; 'I' for Inactive)
REMARK    1  A    between atoms: S1_2  and  C2_3 
REMARK    2  A    between atoms: C2_3  and  O1_4 
REMARK    3  A    between atoms: C3_7  and  N1_8 
REMARK    4  A    between atoms: N1_8  and  C4_10 
REMARK    5  A    between atoms: C4_10  and  O3_11 
REMARK    6  A    between atoms: C5_13  and  O4_14 
REMARK    7  A    between atoms: C7_17  and  C8_18 
REMARK    8  A    between atoms: C7_17  and  C9_21 
REMARK    9  A    between atoms: C8_18  and  O5_19 
REMARK   10  A    between atoms: C9_21  and  O6_22 
REMARK   11  A    between atoms: C10_24  and  O7_26 
REMARK   12  A    between atoms: C12_28  and  O8_29 
REMARK   13  A    between atoms: C13_31  and  O9_32 
REMARK   14  A    between atoms: O9_32  and  C14_33 
REMARK   15  A    between atoms: C16_36  and  C17_37 
REMARK   16  A    between atoms: C17_37  and  O11_38 
REMARK   17  A    between atoms: C18_40  and  O12_41 
REMARK   18  A    between atoms: C19_43  and  O13_44 
ROOT
HETATM    1  C2  UNL     1      -4.659 -15.609   5.815  1.00  0.00     0.341 C 
HETATM    2  O2  UNL     1      -3.735 -16.452   6.246  1.00  0.00    -0.296 OA
HETATM    3  C3  UNL     1      -2.494 -16.597   5.622  1.00  0.00     0.259 C 
HETATM    4  C12 UNL     1      -2.546 -16.473   4.154  1.00  0.00     0.222 C 
HETATM    5  C13 UNL     1      -3.848 -15.834   3.676  1.00  0.00     0.302 C 
HETATM    6  O14 UNL     1      -4.320 -14.961   4.655  1.00  0.00    -0.290 OA
ENDROOT
BRANCH   3   7
HETATM    7  N1  UNL     1      -1.820 -17.691   6.206  1.00  0.00    -0.359 N 
ATOM      8  H1  UNL     1      -1.724 -18.539   5.649  1.00  0.00     0.159 HD
BRANCH   7   9
HETATM    9  C4  UNL     1      -1.285 -17.694   7.471  1.00  0.00     0.188 C 
HETATM   10  C5  UNL     1       0.181 -17.863   7.705  1.00  0.00     0.177 C 
HETATM   11  C6  UNL     1       0.316 -19.382   7.486  1.00  0.00     0.054 C 
HETATM   12  C7  UNL     1      -0.946 -19.946   8.127  1.00  0.00     0.040 C 
HETATM   13  C10 UNL     1      -1.850 -18.808   8.350  1.00  0.00     0.118 C 
HETATM   14  C11 UNL     1      -3.307 -19.046   8.166  1.00  0.00     0.052 C 
BRANCH   9  15
HETATM   15  O3  UNL     1      -1.597 -16.443   8.111  1.00  0.00    -0.366 OA
ATOM     16  H3  UNL     1      -2.099 -16.618   8.899  1.00  0.00     0.212 HD
ENDBRANCH   9  15
BRANCH  10  17
HETATM   17  O4  UNL     1       0.451 -17.574   9.063  1.00  0.00    -0.391 OA
ATOM     18  H4  UNL     1       0.286 -16.650   9.210  1.00  0.00     0.210 HD
ENDBRANCH  10  17
BRANCH  12  19
HETATM   19  C8  UNL     1      -0.506 -20.534   9.461  1.00  0.00     0.179 C 
BRANCH  19  20
HETATM   20  O5  UNL     1       0.858 -20.316   9.689  1.00  0.00    -0.400 OA
ATOM     21  H5  UNL     1       1.064 -19.388   9.689  1.00  0.00     0.209 HD
ENDBRANCH  19  20
ENDBRANCH  12  19
BRANCH  12  22
HETATM   22  C9  UNL     1      -1.471 -21.039   7.262  1.00  0.00     0.179 C 
BRANCH  22  23
HETATM   23  O6  UNL     1      -1.282 -20.773   5.905  1.00  0.00    -0.400 OA
ATOM     24  H6  UNL     1      -1.958 -21.167   5.366  1.00  0.00     0.209 HD
ENDBRANCH  22  23
ENDBRANCH  12  22
BRANCH  13  25
HETATM   25  O7  UNL     1      -1.681 -18.348   9.679  1.00  0.00    -0.384 OA
ATOM     26  H7  UNL     1      -2.317 -18.834  10.191  1.00  0.00     0.210 HD
ENDBRANCH  13  25
ENDBRANCH   7   9
ENDBRANCH   3   7
BRANCH   4  27
HETATM   27  O8  UNL     1      -1.563 -15.574   3.654  1.00  0.00    -0.386 OA
ATOM     28  H8  UNL     1      -1.929 -14.940   3.049  1.00  0.00     0.210 HD
ENDBRANCH   4  27
BRANCH   1  29
HETATM   29  S1  UNL     1      -4.889 -14.325   7.113  1.00  0.00    -0.075 SA
HETATM   30  C1  UNL     1      -5.959 -13.004   6.536  1.00  0.00     0.098 C 
ENDBRANCH   1  29
BRANCH   1  31
HETATM   31  O1  UNL     1      -5.942 -16.214   5.664  1.00  0.00    -0.334 OA
ATOM     32  H1  UNL     1      -5.919 -16.982   6.222  1.00  0.00     0.216 HD
ENDBRANCH   1  31
BRANCH   5  33
HETATM   33  O9  UNL     1      -3.673 -15.081   2.530  1.00  0.00    -0.325 OA
BRANCH  33  34
HETATM   34  C14 UNL     1      -4.266 -15.588   1.395  1.00  0.00     0.299 C 
HETATM   35  O10 UNL     1      -3.608 -15.189   0.210  1.00  0.00    -0.329 OA
HETATM   36  C15 UNL     1      -4.329 -15.223  -0.974  1.00  0.00     0.145 C 
HETATM   37  C16 UNL     1      -5.559 -14.772  -0.958  1.00  0.00    -0.004 C 
HETATM   38  C18 UNL     1      -6.104 -14.252   0.320  1.00  0.00     0.184 C 
HETATM   39  C19 UNL     1      -5.727 -15.186   1.433  1.00  0.00     0.206 C 
BRANCH  37  40
HETATM   40  C17 UNL     1      -6.389 -14.779  -2.188  1.00  0.00     0.203 C 
BRANCH  40  41
HETATM   41  O11 UNL     1      -7.143 -13.643  -2.289  1.00  0.00    -0.397 OA
ATOM     42  H11 UNL     1      -7.759 -13.697  -3.011  1.00  0.00     0.209 HD
ENDBRANCH  40  41
ENDBRANCH  37  40
BRANCH  38  43
HETATM   43  O12 UNL     1      -5.513 -13.006   0.553  1.00  0.00    -0.388 OA
ATOM     44  H12 UNL     1      -6.165 -12.342   0.363  1.00  0.00     0.210 HD
ENDBRANCH  38  43
BRANCH  39  45
HETATM   45  O13 UNL     1      -6.035 -14.500   2.633  1.00  0.00    -0.388 OA
ATOM     46  H13 UNL     1      -6.943 -14.219   2.642  1.00  0.00     0.210 HD
ENDBRANCH  39  45
ENDBRANCH  33  34
ENDBRANCH   5  33
TORSDOF 18
ENDMDL
MODEL 3
REMARK VINA RESULT: -5.456700235      2.651      5.439
REMARK  18 active torsions:
REMARK  status: ('A' for Active; 'I' for Inactive)
REMARK    1  A    between atoms: S1_2  and  C2_3 
REMARK    2  A    between atoms: C2_3  and  O1_4 
REMARK    3  A    between atoms: C3_7  and  N1_8 
REMARK    4  A    between atoms: N1_8  and  C4_10 
REMARK    5  A    between atoms: C4_10  and  O3_11 
REMARK    6  A    between atoms: C5_13  and  O4_14 
REMARK    7  A    between atoms: C7_17  and  C8_18 
REMARK    8  A    between atoms: C7_17  and  C9_21 
REMARK    9  A    between atoms: C8_18  and  O5_19 
REMARK   10  A    between atoms: C9_21  and  O6_22 
REMARK   11  A    between atoms: C10_24  and  O7_26 
REMARK   12  A    between atoms: C12_28  and  O8_29 
REMARK   13  A    between atoms: C13_31  and  O9_32 
REMARK   14  A    between atoms: O9_32  and  C14_33 
REMARK   15  A    between atoms: C16_36  and  C17_37 
REMARK   16  A    between atoms: C17_37  and  O11_38 
REMARK   17  A    between atoms: C18_40  and  O12_41 
REMARK   18  A    between atoms: C19_43  and  O13_44 
ROOT
HETATM    1  C2  UNL     1      -1.795 -16.125   6.782  1.00  0.00     0.341 C 
HETATM    2  O2  UNL     1      -0.903 -16.836   7.450  1.00  0.00    -0.296 OA
HETATM    3  C3  UNL     1      -1.038 -17.135   8.807  1.00  0.00     0.259 C 
HETATM    4  C12 UNL     1      -1.646 -16.051   9.600  1.00  0.00     0.222 C 
HETATM    5  C13 UNL     1      -2.344 -15.017   8.720  1.00  0.00     0.302 C 
HETATM    6  O14 UNL     1      -2.812 -15.636   7.562  1.00  0.00    -0.290 OA
ENDROOT
BRANCH   3   7
HETATM    7  N1  UNL     1       0.154 -17.743   9.256  1.00  0.00    -0.359 N 
ATOM      8  H1  UNL     1       0.915 -17.131   9.552  1.00  0.00     0.159 HD
BRANCH   7   9
HETATM    9  C4  UNL     1       0.364 -19.099   9.323  1.00  0.00     0.188 C 
HETATM   10  C5  UNL     1       0.678 -19.784  10.613  1.00  0.00     0.177 C 
HETATM   11  C6  UNL     1       2.162 -19.400  10.768  1.00  0.00     0.054 C 
HETATM   12  C7  UNL     1       2.700 -19.489   9.345  1.00  0.00     0.040 C 
HETATM   13  C10 UNL     1       1.532 -19.562   8.455  1.00  0.00     0.118 C 
HETATM   14  C11 UNL     1       1.625 -18.866   7.144  1.00  0.00     0.052 C 
BRANCH   9  15
HETATM   15  O3  UNL     1      -0.816 -19.775   8.851  1.00  0.00    -0.366 OA
ATOM     16  H3  UNL     1      -1.579 -19.385   9.262  1.00  0.00     0.212 HD
ENDBRANCH   9  15
BRANCH  10  17
HETATM   17  O4  UNL     1       0.589 -21.180  10.409  1.00  0.00    -0.391 OA
ATOM     18  H4  UNL     1       1.212 -21.606  10.985  1.00  0.00     0.210 HD
ENDBRANCH  10  17
BRANCH  12  19
HETATM   19  C8  UNL     1       3.488 -20.791   9.279  1.00  0.00     0.179 C 
BRANCH  19  20
HETATM   20  O5  UNL     1       3.652 -21.350  10.552  1.00  0.00    -0.400 OA
ATOM     21  H5  UNL     1       3.265 -20.801  11.224  1.00  0.00     0.209 HD
ENDBRANCH  19  20
ENDBRANCH  12  19
BRANCH  12  22
HETATM   22  C9  UNL     1       3.628 -18.346   9.114  1.00  0.00     0.179 C 
BRANCH  22  23
HETATM   23  O6  UNL     1       4.966 -18.729   9.199  1.00  0.00    -0.400 OA
ATOM     24  H6  UNL     1       5.149 -19.506   8.684  1.00  0.00     0.209 HD
ENDBRANCH  22  23
ENDBRANCH  12  22
BRANCH  13  25
HETATM   25  O7  UNL     1       1.261 -20.923   8.172  1.00  0.00    -0.384 OA
ATOM     26  H7  UNL     1       2.107 -21.355   8.208  1.00  0.00     0.210 HD
ENDBRANCH  13  25
ENDBRANCH   7   9
ENDBRANCH   3   7
BRANCH   4  27
HETATM   27  O8  UNL     1      -2.707 -16.516  10.425  1.00  0.00    -0.386 OA
ATOM     28  H8  UNL     1      -3.434 -15.907  10.454  1.00  0.00     0.210 HD
ENDBRANCH   4  27
BRANCH   1  29
HETATM   29  S1  UNL     1      -2.555 -17.228   5.520  1.00  0.00    -0.075 SA
HETATM   30  C1  UNL     1      -2.733 -16.385   3.945  1.00  0.00     0.098 C 
ENDBRANCH   1  29
BRANCH   1  31
HETATM   31  O1  UNL     1      -1.215 -15.056   6.035  1.00  0.00    -0.334 OA
ATOM     32  H1  UNL     1      -1.680 -15.055   5.206  1.00  0.00     0.216 HD
ENDBRANCH   1  31
BRANCH   5  33
HETATM   33  O9  UNL     1      -3.445 -14.458   9.340  1.00  0.00    -0.325 OA
BRANCH  33  34
HETATM   34  C14 UNL     1      -3.984 -13.359   8.709  1.00  0.00     0.299 C 
HETATM   35  O10 UNL     1      -3.167 -12.211   8.819  1.00  0.00    -0.329 OA
HETATM   36  C15 UNL     1      -3.767 -10.971   8.655  1.00  0.00     0.145 C 
HETATM   37  C16 UNL     1      -4.925 -10.768   9.233  1.00  0.00    -0.004 C 
HETATM   38  C18 UNL     1      -5.522 -11.871  10.026  1.00  0.00     0.184 C 
HETATM   39  C19 UNL     1      -5.378 -13.157   9.268  1.00  0.00     0.206 C 
BRANCH  37  40
HETATM   40  C17 UNL     1      -5.625  -9.466   9.100  1.00  0.00     0.203 C 
BRANCH  40  41
HETATM   41  O11 UNL     1      -4.773  -8.417   9.305  1.00  0.00    -0.397 OA
ATOM     42  H11 UNL     1      -4.174  -8.590  10.023  1.00  0.00     0.209 HD
ENDBRANCH  40  41
ENDBRANCH  37  40
BRANCH  38  43
HETATM   43  O12 UNL     1      -4.803 -11.965  11.222  1.00  0.00    -0.388 OA
ATOM     44  H12 UNL     1      -5.159 -12.696  11.713  1.00  0.00     0.210 HD
ENDBRANCH  38  43
BRANCH  39  45
HETATM   45  O13 UNL     1      -5.712 -14.184  10.184  1.00  0.00    -0.388 OA
ATOM     46  H13 UNL     1      -6.591 -14.064  10.526  1.00  0.00     0.210 HD
ENDBRANCH  39  45
ENDBRANCH  33  34
ENDBRANCH   5  33
TORSDOF 18
ENDMDL
MODEL 4
REMARK VINA RESULT: -5.445285400      2.492      4.140
REMARK  18 active torsions:
REMARK  status: ('A' for Active; 'I' for Inactive)
REMARK    1  A    between atoms: S1_2  and  C2_3 
REMARK    2  A    between atoms: C2_3  and  O1_4 
REMARK    3  A    between atoms: C3_7  and  N1_8 
REMARK    4  A    between atoms: N1_8  and  C4_10 
REMARK    5  A    between atoms: C4_10  and  O3_11 
REMARK    6  A    between atoms: C5_13  and  O4_14 
REMARK    7  A    between atoms: C7_17  and  C8_18 
REMARK    8  A    between atoms: C7_17  and  C9_21 
REMARK    9  A    between atoms: C8_18  and  O5_19 
REMARK   10  A    between atoms: C9_21  and  O6_22 
REMARK   11  A    between atoms: C10_24  and  O7_26 
REMARK   12  A    between atoms: C12_28  and  O8_29 
REMARK   13  A    between atoms: C13_31  and  O9_32 
REMARK   14  A    between atoms: O9_32  and  C14_33 
REMARK   15  A    between atoms: C16_36  and  C17_37 
REMARK   16  A    between atoms: C17_37  and  O11_38 
REMARK   17  A    between atoms: C18_40  and  O12_41 
REMARK   18  A    between atoms: C19_43  and  O13_44 
ROOT
HETATM    1  C2  UNL     1      -4.668 -15.934   5.393  1.00  0.00     0.341 C 
HETATM    2  O2  UNL     1      -3.606 -16.349   6.062  1.00  0.00    -0.296 OA
HETATM    3  C3  UNL     1      -2.330 -16.406   5.495  1.00  0.00     0.259 C 
HETATM    4  C12 UNL     1      -2.326 -16.796   4.073  1.00  0.00     0.222 C 
HETATM    5  C13 UNL     1      -3.708 -16.669   3.438  1.00  0.00     0.302 C 
HETATM    6  O14 UNL     1      -4.418 -15.651   4.073  1.00  0.00    -0.290 OA
ENDROOT
BRANCH   3   7
HETATM    7  N1  UNL     1      -1.464 -17.057   6.399  1.00  0.00    -0.359 N 
ATOM      8  H1  UNL     1      -0.999 -16.486   7.105  1.00  0.00     0.159 HD
BRANCH   7   9
HETATM    9  C4  UNL     1      -1.200 -18.406   6.396  1.00  0.00     0.188 C 
HETATM   10  C5  UNL     1      -2.201 -19.401   5.906  1.00  0.00     0.177 C 
HETATM   11  C6  UNL     1      -3.155 -19.442   7.115  1.00  0.00     0.054 C 
HETATM   12  C7  UNL     1      -2.214 -19.364   8.311  1.00  0.00     0.040 C 
HETATM   13  C10 UNL     1      -0.902 -18.954   7.789  1.00  0.00     0.118 C 
HETATM   14  C11 UNL     1      -0.082 -18.046   8.636  1.00  0.00     0.052 C 
BRANCH   9  15
HETATM   15  O3  UNL     1      -0.040 -18.650   5.580  1.00  0.00    -0.366 OA
ATOM     16  H3  UNL     1       0.272 -19.533   5.746  1.00  0.00     0.212 HD
ENDBRANCH   9  15
BRANCH  10  17
HETATM   17  O4  UNL     1      -1.560 -20.656   5.791  1.00  0.00    -0.391 OA
ATOM     18  H4  UNL     1      -1.461 -21.021   6.662  1.00  0.00     0.210 HD
ENDBRANCH  10  17
BRANCH  12  19
HETATM   19  C8  UNL     1      -2.136 -20.778   8.871  1.00  0.00     0.179 C 
BRANCH  19  20
HETATM   20  O5  UNL     1      -2.865 -21.678   8.084  1.00  0.00    -0.400 OA
ATOM     21  H5  UNL     1      -2.701 -21.539   7.158  1.00  0.00     0.209 HD
ENDBRANCH  19  20
ENDBRANCH  12  19
BRANCH  12  22
HETATM   22  C9  UNL     1      -2.820 -18.467   9.335  1.00  0.00     0.179 C 
BRANCH  22  23
HETATM   23  O6  UNL     1      -3.598 -17.462   8.760  1.00  0.00    -0.400 OA
ATOM     24  H6  UNL     1      -4.276 -17.153   9.349  1.00  0.00     0.209 HD
ENDBRANCH  22  23
ENDBRANCH  12  22
BRANCH  13  25
HETATM   25  O7  UNL     1      -0.120 -20.114   7.567  1.00  0.00    -0.384 OA
ATOM     26  H7  UNL     1      -0.706 -20.842   7.736  1.00  0.00     0.210 HD
ENDBRANCH  13  25
ENDBRANCH   7   9
ENDBRANCH   3   7
BRANCH   4  27
HETATM   27  O8  UNL     1      -1.541 -15.916   3.276  1.00  0.00    -0.386 OA
ATOM     28  H8  UNL     1      -0.664 -16.250   3.130  1.00  0.00     0.210 HD
ENDBRANCH   4  27
BRANCH   1  29
HETATM   29  S1  UNL     1      -5.251 -14.378   6.184  1.00  0.00    -0.075 SA
HETATM   30  C1  UNL     1      -4.490 -14.144   7.793  1.00  0.00     0.098 C 
ENDBRANCH   1  29
BRANCH   1  31
HETATM   31  O1  UNL     1      -5.774 -16.831   5.484  1.00  0.00    -0.334 OA
ATOM     32  H1  UNL     1      -5.884 -16.991   6.415  1.00  0.00     0.216 HD
ENDBRANCH   1  31
BRANCH   5  33
HETATM   33  O9  UNL     1      -3.641 -16.324   2.101  1.00  0.00    -0.325 OA
BRANCH  33  34
HETATM   34  C14 UNL     1      -4.841 -15.984   1.518  1.00  0.00     0.299 C 
HETATM   35  O10 UNL     1      -5.325 -16.980   0.641  1.00  0.00    -0.329 OA
HETATM   36  C15 UNL     1      -6.233 -16.599  -0.336  1.00  0.00     0.145 C 
HETATM   37  C16 UNL     1      -6.003 -15.486  -0.987  1.00  0.00    -0.004 C 
HETATM   38  C18 UNL     1      -4.789 -14.705  -0.645  1.00  0.00     0.184 C 
HETATM   39  C19 UNL     1      -4.651 -14.638   0.848  1.00  0.00     0.206 C 
BRANCH  37  40
HETATM   40  C17 UNL     1      -6.933 -15.015  -2.045  1.00  0.00     0.203 C 
BRANCH  40  41
HETATM   41  O11 UNL     1      -7.034 -13.652  -2.051  1.00  0.00    -0.397 OA
ATOM     42  H11 UNL     1      -6.183 -13.240  -1.955  1.00  0.00     0.209 HD
ENDBRANCH  40  41
ENDBRANCH  37  40
BRANCH  38  43
HETATM   43  O12 UNL     1      -3.688 -15.387  -1.174  1.00  0.00    -0.388 OA
ATOM     44  H12 UNL     1      -3.377 -15.986  -0.506  1.00  0.00     0.210 HD
ENDBRANCH  38  43
BRANCH  39  45
HETATM   45  O13 UNL     1      -3.352 -14.128   1.092  1.00  0.00    -0.388 OA
ATOM     46  H13 UNL     1      -3.370 -13.183   1.194  1.00  0.00     0.210 HD
ENDBRANCH  39  45
ENDBRANCH  33  34
ENDBRANCH   5  33
TORSDOF 18
ENDMDL
MODEL 5
REMARK VINA RESULT: -5.406585197      1.878      2.666
REMARK  18 active torsions:
REMARK  status: ('A' for Active; 'I' for Inactive)
REMARK    1  A    between atoms: S1_2  and  C2_3 
REMARK    2  A    between atoms: C2_3  and  O1_4 
REMARK    3  A    between atoms: C3_7  and  N1_8 
REMARK    4  A    between atoms: N1_8  and  C4_10 
REMARK    5  A    between atoms: C4_10  and  O3_11 
REMARK    6  A    between atoms: C5_13  and  O4_14 
REMARK    7  A    between atoms: C7_17  and  C8_18 
REMARK    8  A    between atoms: C7_17  and  C9_21 
REMARK    9  A    between atoms: C8_18  and  O5_19 
REMARK   10  A    between atoms: C9_21  and  O6_22 
REMARK   11  A    between atoms: C10_24  and  O7_26 
REMARK   12  A    between atoms: C12_28  and  O8_29 
REMARK   13  A    between atoms: C13_31  and  O9_32 
REMARK   14  A    between atoms: O9_32  and  C14_33 
REMARK   15  A    between atoms: C16_36  and  C17_37 
REMARK   16  A    between atoms: C17_37  and  O11_38 
REMARK   17  A    between atoms: C18_40  and  O12_41 
REMARK   18  A    between atoms: C19_43  and  O13_44 
ROOT
HETATM    1  C2  UNL     1      -4.362 -16.884   8.118  1.00  0.00     0.341 C 
HETATM    2  O2  UNL     1      -3.541 -17.257   9.085  1.00  0.00    -0.296 OA
HETATM    3  C3  UNL     1      -2.152 -17.265   8.937  1.00  0.00     0.259 C 
HETATM    4  C12 UNL     1      -1.699 -17.655   7.589  1.00  0.00     0.222 C 
HETATM    5  C13 UNL     1      -2.824 -17.583   6.560  1.00  0.00     0.302 C 
HETATM    6  O14 UNL     1      -3.731 -16.593   6.935  1.00  0.00    -0.290 OA
ENDROOT
BRANCH   3   7
HETATM    7  N1  UNL     1      -1.580 -17.881  10.070  1.00  0.00    -0.359 N 
ATOM      8  H1  UNL     1      -1.345 -18.871  10.003  1.00  0.00     0.159 HD
BRANCH   7   9
HETATM    9  C4  UNL     1      -1.318 -17.242  11.258  1.00  0.00     0.188 C 
HETATM   10  C5  UNL     1      -0.949 -15.795  11.308  1.00  0.00     0.177 C 
HETATM   11  C6  UNL     1       0.523 -15.876  10.858  1.00  0.00     0.054 C 
HETATM   12  C7  UNL     1       1.032 -17.139  11.541  1.00  0.00     0.040 C 
HETATM   13  C10 UNL     1      -0.152 -17.866  12.021  1.00  0.00     0.118 C 
HETATM   14  C11 UNL     1      -0.114 -19.352  11.960  1.00  0.00     0.052 C 
BRANCH   9  15
HETATM   15  O3  UNL     1      -2.481 -17.332  12.101  1.00  0.00    -0.366 OA
ATOM     16  H3  UNL     1      -3.257 -17.335  11.554  1.00  0.00     0.212 HD
ENDBRANCH   9  15
BRANCH  10  17
HETATM   17  O4  UNL     1      -0.988 -15.372  12.656  1.00  0.00    -0.391 OA
ATOM     18  H4  UNL     1      -1.850 -15.011  12.831  1.00  0.00     0.210 HD
ENDBRANCH  10  17
BRANCH  12  19
HETATM   19  C8  UNL     1       1.868 -16.664  12.722  1.00  0.00     0.179 C 
BRANCH  19  20
HETATM   20  O5  UNL     1       2.248 -15.325  12.570  1.00  0.00    -0.400 OA
ATOM     21  H5  UNL     1       3.064 -15.144  13.021  1.00  0.00     0.209 HD
ENDBRANCH  19  20
ENDBRANCH  12  19
BRANCH  12  22
HETATM   22  C9  UNL     1       1.910 -17.875  10.588  1.00  0.00     0.179 C 
BRANCH  22  23
HETATM   23  O6  UNL     1       1.458 -17.773   9.272  1.00  0.00    -0.400 OA
ATOM     24  H6  UNL     1       1.635 -16.918   8.898  1.00  0.00     0.209 HD
ENDBRANCH  22  23
ENDBRANCH  12  22
BRANCH  13  25
HETATM   25  O7  UNL     1      -0.376 -17.524  13.377  1.00  0.00    -0.384 OA
ATOM     26  H7  UNL     1       0.411 -17.797  13.833  1.00  0.00     0.210 HD
ENDBRANCH  13  25
ENDBRANCH   7   9
ENDBRANCH   3   7
BRANCH   4  27
HETATM   27  O8  UNL     1      -0.740 -16.747   7.059  1.00  0.00    -0.386 OA
ATOM     28  H8  UNL     1       0.113 -17.149   6.947  1.00  0.00     0.210 HD
ENDBRANCH   4  27
BRANCH   1  29
HETATM   29  S1  UNL     1      -5.216 -15.351   8.674  1.00  0.00    -0.075 SA
HETATM   30  C1  UNL     1      -4.148 -13.918   8.512  1.00  0.00     0.098 C 
ENDBRANCH   1  29
BRANCH   1  31
HETATM   31  O1  UNL     1      -5.409 -17.823   7.879  1.00  0.00    -0.334 OA
ATOM     32  H1  UNL     1      -5.304 -18.082   6.970  1.00  0.00     0.216 HD
ENDBRANCH   1  31
BRANCH   5  33
HETATM   33  O9  UNL     1      -2.364 -17.237   5.303  1.00  0.00    -0.325 OA
BRANCH  33  34
HETATM   34  C14 UNL     1      -3.261 -16.555   4.513  1.00  0.00     0.299 C 
HETATM   35  O10 UNL     1      -3.714 -17.319   3.414  1.00  0.00    -0.329 OA
HETATM   36  C15 UNL     1      -4.225 -16.639   2.318  1.00  0.00     0.145 C 
HETATM   37  C16 UNL     1      -3.587 -15.572   1.904  1.00  0.00    -0.004 C 
HETATM   38  C18 UNL     1      -2.359 -15.159   2.627  1.00  0.00     0.184 C 
HETATM   39  C19 UNL     1      -2.603 -15.252   4.105  1.00  0.00     0.206 C 
BRANCH  37  40
HETATM   40  C17 UNL     1      -4.078 -14.795   0.739  1.00  0.00     0.203 C 
BRANCH  40  41
HETATM   41  O11 UNL     1      -3.564 -13.528   0.731  1.00  0.00    -0.397 OA
ATOM     42  H11 UNL     1      -2.813 -13.461   0.153  1.00  0.00     0.209 HD
ENDBRANCH  40  41
ENDBRANCH  37  40
BRANCH  38  43
HETATM   43  O12 UNL     1      -1.344 -16.054   2.276  1.00  0.00    -0.388 OA
ATOM     44  H12 UNL     1      -0.521 -15.683   2.574  1.00  0.00     0.210 HD
ENDBRANCH  38  43
BRANCH  39  45
HETATM   45  O13 UNL     1      -1.332 -15.113   4.715  1.00  0.00    -0.388 OA
ATOM     46  H13 UNL     1      -0.846 -14.391   4.330  1.00  0.00     0.210 HD
ENDBRANCH  39  45
ENDBRANCH  33  34
ENDBRANCH   5  33
TORSDOF 18
ENDMDL
