MODEL 1
REMARK VINA RESULT: -5.239497133      0.000      0.000
REMARK  3 active torsions:
REMARK  status: ('A' for Active; 'I' for Inactive)
REMARK    1  A    between atoms: C7_8  and  O1_9 
REMARK    2  A    between atoms: C8_11  and  O2_12 
REMARK    3  A    between atoms: C8_11  and  O3_14 
ROOT
HETATM    1  C1  UNL     1       1.385   1.956  11.226  1.00  0.00     0.310 C 
HETATM    2  N1  UNL     1       0.703   0.912  12.000  1.00  0.00     0.094 N 
HETATM    3  C2  UNL     1       0.132  -0.013  11.043  1.00  0.00     0.273 C 
HETATM    4  C3  UNL     1       0.744  -1.382  11.360  1.00  0.00     0.037 C 
HETATM    5  C4  UNL     1       1.065  -1.239  12.801  1.00  0.00     0.026 C 
HETATM    6  C5  UNL     1       2.179  -2.090  13.303  1.00  0.00     0.010 C 
HETATM    7  C6  UNL     1       2.411  -1.736  14.760  1.00  0.00     0.038 C 
HETATM    8  C7  UNL     1       2.598  -0.283  15.003  1.00  0.00     0.182 C 
HETATM    9  C8  UNL     1       1.577   0.588  14.284  1.00  0.00     0.218 C 
HETATM   10  C9  UNL     1       1.593   0.204  12.844  1.00  0.00     0.290 C 
ENDROOT
BRANCH   9  11
HETATM   11  O2  UNL     1       0.291   0.299  14.784  1.00  0.00    -0.362 OA
ATOM     12  H2  UNL     1      -0.054  -0.462  14.332  1.00  0.00     0.213 HD
ENDBRANCH   9  11
BRANCH   9  13
HETATM   13  O3  UNL     1       1.903   1.913  14.441  1.00  0.00    -0.362 OA
ATOM     14  H3  UNL     1       1.408   2.441  13.826  1.00  0.00     0.213 HD
ENDBRANCH   9  13
BRANCH   8  15
HETATM   15  O1  UNL     1       2.467  -0.048  16.373  1.00  0.00    -0.390 OA
ATOM     16  H1  UNL     1       1.797   0.614  16.499  1.00  0.00     0.210 HD
ENDBRANCH   8  15
TORSDOF 3
ENDMDL
MODEL 2
REMARK VINA RESULT: -5.202730288      2.360      4.361
REMARK  3 active torsions:
REMARK  status: ('A' for Active; 'I' for Inactive)
REMARK    1  A    between atoms: C7_8  and  O1_9 
REMARK    2  A    between atoms: C8_11  and  O2_12 
REMARK    3  A    between atoms: C8_11  and  O3_14 
ROOT
HETATM    1  C1  UNL     1       2.312  -1.868  14.138  1.00  0.00     0.310 C 
HETATM    2  N1  UNL     1       1.245  -0.879  13.940  1.00  0.00     0.094 N 
HETATM    3  C2  UNL     1       1.249  -0.019  15.105  1.00  0.00     0.273 C 
HETATM    4  C3  UNL     1       1.484   1.403  14.581  1.00  0.00     0.037 C 
HETATM    5  C4  UNL     1       0.949   1.304  13.201  1.00  0.00     0.026 C 
HETATM    6  C5  UNL     1       1.529   2.256  12.214  1.00  0.00     0.010 C 
HETATM    7  C6  UNL     1       0.926   1.940  10.857  1.00  0.00     0.038 C 
HETATM    8  C7  UNL     1       1.042   0.512  10.466  1.00  0.00     0.182 C 
HETATM    9  C8  UNL     1       0.662  -0.454  11.581  1.00  0.00     0.218 C 
HETATM   10  C9  UNL     1       1.457  -0.086  12.786  1.00  0.00     0.290 C 
ENDROOT
BRANCH   9  11
HETATM   11  O2  UNL     1      -0.699  -0.275  11.902  1.00  0.00    -0.362 OA
ATOM     12  H2  UNL     1      -0.810  -0.356  12.841  1.00  0.00     0.213 HD
ENDBRANCH   9  11
BRANCH   9  13
HETATM   13  O3  UNL     1       0.932  -1.744  11.190  1.00  0.00    -0.362 OA
ATOM     14  H3  UNL     1       0.391  -2.348  11.684  1.00  0.00     0.213 HD
ENDBRANCH   9  13
BRANCH   8  15
HETATM   15  O1  UNL     1       0.181   0.281   9.392  1.00  0.00    -0.390 OA
ATOM     16  H1  UNL     1       0.637   0.507   8.590  1.00  0.00     0.210 HD
ENDBRANCH   8  15
TORSDOF 3
ENDMDL
MODEL 3
REMARK VINA RESULT: -5.182046497      1.576      2.273
REMARK  3 active torsions:
REMARK  status: ('A' for Active; 'I' for Inactive)
REMARK    1  A    between atoms: C7_8  and  O1_9 
REMARK    2  A    between atoms: C8_11  and  O2_12 
REMARK    3  A    between atoms: C8_11  and  O3_14 
ROOT
HETATM    1  C1  UNL     1       3.007   2.913  14.057  1.00  0.00     0.310 C 
HETATM    2  N1  UNL     1       1.840   2.022  14.072  1.00  0.00     0.094 N 
HETATM    3  C2  UNL     1       0.907   2.538  13.092  1.00  0.00     0.273 C 
HETATM    4  C3  UNL     1       0.681   1.404  12.084  1.00  0.00     0.037 C 
HETATM    5  C4  UNL     1       0.965   0.208  12.914  1.00  0.00     0.026 C 
HETATM    6  C5  UNL     1       1.431  -0.997  12.172  1.00  0.00     0.010 C 
HETATM    7  C6  UNL     1       1.751  -2.073  13.194  1.00  0.00     0.038 C 
HETATM    8  C7  UNL     1       2.673  -1.626  14.269  1.00  0.00     0.182 C 
HETATM    9  C8  UNL     1       2.305  -0.269  14.857  1.00  0.00     0.218 C 
HETATM   10  C9  UNL     1       2.178   0.691  13.724  1.00  0.00     0.290 C 
ENDROOT
BRANCH   9  11
HETATM   11  O2  UNL     1       1.043  -0.363  15.476  1.00  0.00    -0.362 OA
ATOM     12  H2  UNL     1       0.366  -0.255  14.819  1.00  0.00     0.213 HD
ENDBRANCH   9  11
BRANCH   9  13
HETATM   13  O3  UNL     1       3.281   0.136  15.736  1.00  0.00    -0.362 OA
ATOM     14  H3  UNL     1       3.922  -0.556  15.845  1.00  0.00     0.213 HD
ENDBRANCH   9  13
BRANCH   8  15
HETATM   15  O1  UNL     1       2.627  -2.563  15.302  1.00  0.00    -0.390 OA
ATOM     16  H1  UNL     1       2.075  -2.217  15.994  1.00  0.00     0.210 HD
ENDBRANCH   8  15
TORSDOF 3
ENDMDL
MODEL 4
REMARK VINA RESULT: -5.092237592      1.200      1.467
REMARK  3 active torsions:
REMARK  status: ('A' for Active; 'I' for Inactive)
REMARK    1  A    between atoms: C7_8  and  O1_9 
REMARK    2  A    between atoms: C8_11  and  O2_12 
REMARK    3  A    between atoms: C8_11  and  O3_14 
ROOT
HETATM    1  C1  UNL     1       0.820   1.095  10.695  1.00  0.00     0.310 C 
HETATM    2  N1  UNL     1       0.440   0.233  11.820  1.00  0.00     0.094 N 
HETATM    3  C2  UNL     1       0.592  -1.135  11.370  1.00  0.00     0.273 C 
HETATM    4  C3  UNL     1       1.596  -1.787  12.328  1.00  0.00     0.037 C 
HETATM    5  C4  UNL     1       1.411  -0.972  13.553  1.00  0.00     0.026 C 
HETATM    6  C5  UNL     1       2.587  -0.900  14.465  1.00  0.00     0.010 C 
HETATM    7  C6  UNL     1       2.233   0.043  15.601  1.00  0.00     0.038 C 
HETATM    8  C7  UNL     1       1.732   1.366  15.150  1.00  0.00     0.182 C 
HETATM    9  C8  UNL     1       0.690   1.273  14.043  1.00  0.00     0.218 C 
HETATM   10  C9  UNL     1       1.266   0.435  12.953  1.00  0.00     0.290 C 
ENDROOT
BRANCH   9  11
HETATM   11  O2  UNL     1      -0.447   0.602  14.536  1.00  0.00    -0.362 OA
ATOM     12  H2  UNL     1      -1.199   1.178  14.472  1.00  0.00     0.213 HD
ENDBRANCH   9  11
BRANCH   9  13
HETATM   13  O3  UNL     1       0.385   2.532  13.585  1.00  0.00    -0.362 OA
ATOM     14  H3  UNL     1       1.127   3.110  13.718  1.00  0.00     0.213 HD
ENDBRANCH   9  13
BRANCH   8  15
HETATM   15  O1  UNL     1       1.137   2.003  16.241  1.00  0.00    -0.390 OA
ATOM     16  H1  UNL     1       0.297   2.348  15.962  1.00  0.00     0.210 HD
ENDBRANCH   8  15
TORSDOF 3
ENDMDL
MODEL 5
REMARK VINA RESULT: -4.985340879      2.400      3.991
REMARK  3 active torsions:
REMARK  status: ('A' for Active; 'I' for Inactive)
REMARK    1  A    between atoms: C7_8  and  O1_9 
REMARK    2  A    between atoms: C8_11  and  O2_12 
REMARK    3  A    between atoms: C8_11  and  O3_14 
ROOT
HETATM    1  C1  UNL     1       0.389   2.657  14.878  1.00  0.00     0.310 C 
HETATM    2  N1  UNL     1       1.359   1.895  14.081  1.00  0.00     0.094 N 
HETATM    3  C2  UNL     1       1.821   0.805  14.915  1.00  0.00     0.273 C 
HETATM    4  C3  UNL     1       1.482  -0.483  14.154  1.00  0.00     0.037 C 
HETATM    5  C4  UNL     1       1.474  -0.005  12.750  1.00  0.00     0.026 C 
HETATM    6  C5  UNL     1       0.622  -0.784  11.808  1.00  0.00     0.010 C 
HETATM    7  C6  UNL     1       0.676  -0.092  10.457  1.00  0.00     0.038 C 
HETATM    8  C7  UNL     1       0.355   1.357  10.511  1.00  0.00     0.182 C 
HETATM    9  C8  UNL     1       1.066   2.093  11.640  1.00  0.00     0.218 C 
HETATM   10  C9  UNL     1       0.782   1.358  12.905  1.00  0.00     0.290 C 
ENDROOT
BRANCH   9  11
HETATM   11  O2  UNL     1       2.457   2.036  11.422  1.00  0.00    -0.362 OA
ATOM     12  H2  UNL     1       2.899   2.517  12.111  1.00  0.00     0.213 HD
ENDBRANCH   9  11
BRANCH   9  13
HETATM   13  O3  UNL     1       0.610   3.387  11.711  1.00  0.00    -0.362 OA
ATOM     14  H3  UNL     1      -0.130   3.434  12.305  1.00  0.00     0.213 HD
ENDBRANCH   9  13
BRANCH   8  15
HETATM   15  O1  UNL     1       0.755   1.938   9.307  1.00  0.00    -0.390 OA
ATOM     16  H1  UNL     1       1.077   2.813   9.491  1.00  0.00     0.210 HD
ENDBRANCH   8  15
TORSDOF 3
ENDMDL
