MODEL 1
REMARK VINA RESULT: -8.344864993      0.000      0.000
REMARK  9 active torsions:
REMARK  status: ('A' for Active; 'I' for Inactive)
REMARK    1  A    between atoms: C4_8  and  C5_9 
REMARK    2  A    between atoms: C5_9  and  O1_10 
REMARK    3  A    between atoms: C5_9  and  N3_12 
REMARK    4  A    between atoms: C10_17  and  O2_18 
REMARK    5  A    between atoms: O2_18  and  C11_19 
REMARK    6  A    between atoms: C11_19  and  C12_20 
REMARK    7  A    between atoms: C12_20  and  C13_21 
REMARK    8  A    between atoms: C13_21  and  O4_23 
REMARK    9  A    between atoms: O4_23  and  C14_24 
ROOT
HETATM    1  N3  UNL     1      41.332  52.079  17.095  1.00  0.00    -0.348 N 
HETATM    2  C6  UNL     1      40.943  52.153  18.469  1.00  0.00     0.089 C 
HETATM    3  C7  UNL     1      39.463  52.495  18.347  1.00  0.00     0.027 C 
HETATM    4  C8  UNL     1      39.342  53.203  17.011  1.00  0.00     0.030 C 
HETATM    5  C9  UNL     1      40.785  53.408  16.665  1.00  0.00     0.116 C 
HETATM    6  C10 UNL     1      41.406  54.305  17.672  1.00  0.00     0.146 C 
HETATM    7  C21 UNL     1      41.691  53.440  18.884  1.00  0.00     0.059 C 
ENDROOT
BRANCH   6   8
HETATM    8  O2  UNL     1      42.541  54.947  17.263  1.00  0.00    -0.383 OA
BRANCH   8   9
HETATM    9  C11 UNL     1      42.389  56.274  16.975  1.00  0.00     0.178 C 
BRANCH   9  10
HETATM   10  C12 UNL     1      42.595  57.211  18.117  1.00  0.00     0.137 C 
BRANCH  10  11
HETATM   11  C13 UNL     1      43.961  57.805  17.999  1.00  0.00     0.261 C 
HETATM   12  O3  UNL     1      44.384  58.628  18.841  1.00  0.00    -0.265 OA
BRANCH  11  13
HETATM   13  O4  UNL     1      44.818  57.475  16.959  1.00  0.00    -0.314 OA
BRANCH  13  14
HETATM   14  C14 UNL     1      46.088  56.964  17.127  1.00  0.00     0.164 C 
HETATM   15  C15 UNL     1      47.030  57.229  15.975  1.00  0.00     0.072 C 
HETATM   16  C16 UNL     1      48.130  56.231  16.274  1.00  0.00     0.121 C 
HETATM   17  C17 UNL     1      48.734  55.653  15.022  1.00  0.00     0.046 C 
HETATM   18  C18 UNL     1      49.220  57.004  17.010  1.00  0.00     0.046 C 
HETATM   19  N4  UNL     1      47.566  55.182  17.063  1.00  0.00    -0.061 N 
HETATM   20  C19 UNL     1      46.163  55.470  17.260  1.00  0.00     0.212 C 
ATOM     21  H42 UNL     1      47.726  54.259  16.662  1.00  0.00     0.278 HD
ATOM     22  H41 UNL     1      48.064  55.039  17.941  1.00  0.00     0.278 HD
HETATM   23  C20 UNL     1      45.770  54.966  18.618  1.00  0.00     0.043 C 
ENDBRANCH  13  14
ENDBRANCH  11  13
ENDBRANCH  10  11
ENDBRANCH   9  10
ENDBRANCH   8   9
ENDBRANCH   6   8
BRANCH   1  24
HETATM   24  C5  UNL     1      41.994  51.172  16.270  1.00  0.00     0.168 C 
BRANCH  24  25
HETATM   25  C4  UNL     1      42.325  51.240  14.877  1.00  0.00     0.106 A 
HETATM   26  C2  UNL     1      41.425  50.921  13.865  1.00  0.00     0.037 A 
HETATM   27  C1  UNL     1      40.032  50.475  14.001  1.00  0.00     0.070 C 
HETATM   28  N1  UNL     1      42.056  51.092  12.705  1.00  0.00    -0.354 N 
HETATM   29  C3  UNL     1      43.299  51.500  12.948  1.00  0.00     0.181 A 
ATOM     30  H1  UNL     1      41.652  50.935  11.781  1.00  0.00     0.166 HD
HETATM   31  N2  UNL     1      43.470  51.593  14.300  1.00  0.00    -0.347 N 
ATOM     32  H2  UNL     1      44.322  51.882  14.780  1.00  0.00     0.167 HD
ENDBRANCH  24  25
BRANCH  24  33
HETATM   33  O1  UNL     1      42.364  50.087  16.895  1.00  0.00    -0.344 OA
ATOM     34  H1  UNL     1      42.642  50.198  17.796  1.00  0.00     0.219 HD
ENDBRANCH  24  33
ENDBRANCH   1  24
TORSDOF 9
ENDMDL
MODEL 2
REMARK VINA RESULT: -8.315333192      1.914      7.633
REMARK  9 active torsions:
REMARK  status: ('A' for Active; 'I' for Inactive)
REMARK    1  A    between atoms: C4_8  and  C5_9 
REMARK    2  A    between atoms: C5_9  and  O1_10 
REMARK    3  A    between atoms: C5_9  and  N3_12 
REMARK    4  A    between atoms: C10_17  and  O2_18 
REMARK    5  A    between atoms: O2_18  and  C11_19 
REMARK    6  A    between atoms: C11_19  and  C12_20 
REMARK    7  A    between atoms: C12_20  and  C13_21 
REMARK    8  A    between atoms: C13_21  and  O4_23 
REMARK    9  A    between atoms: O4_23  and  C14_24 
ROOT
HETATM    1  N3  UNL     1      46.207  56.665  16.974  1.00  0.00    -0.348 N 
HETATM    2  C6  UNL     1      45.573  57.169  18.153  1.00  0.00     0.089 C 
HETATM    3  C7  UNL     1      46.253  56.343  19.238  1.00  0.00     0.027 C 
HETATM    4  C8  UNL     1      46.678  55.066  18.539  1.00  0.00     0.030 C 
HETATM    5  C9  UNL     1      45.965  55.207  17.229  1.00  0.00     0.116 C 
HETATM    6  C10 UNL     1      44.500  55.205  17.467  1.00  0.00     0.146 C 
HETATM    7  C21 UNL     1      44.152  56.600  17.949  1.00  0.00     0.059 C 
ENDROOT
BRANCH   6   8
HETATM    8  O2  UNL     1      43.733  54.864  16.389  1.00  0.00    -0.383 OA
BRANCH   8   9
HETATM    9  C11 UNL     1      42.383  54.894  16.601  1.00  0.00     0.178 C 
BRANCH   9  10
HETATM   10  C12 UNL     1      41.810  53.702  17.291  1.00  0.00     0.137 C 
BRANCH  10  11
HETATM   11  C13 UNL     1      40.384  53.552  16.870  1.00  0.00     0.261 C 
HETATM   12  O3  UNL     1      39.447  53.919  17.612  1.00  0.00    -0.265 OA
BRANCH  11  13
HETATM   13  O4  UNL     1      40.035  53.002  15.644  1.00  0.00    -0.314 OA
BRANCH  13  14
HETATM   14  C14 UNL     1      40.755  52.021  14.995  1.00  0.00     0.164 C 
HETATM   15  C15 UNL     1      40.883  52.219  13.502  1.00  0.00     0.072 C 
HETATM   16  C16 UNL     1      41.330  50.837  13.071  1.00  0.00     0.121 C 
HETATM   17  C17 UNL     1      40.774  50.448  11.728  1.00  0.00     0.046 C 
HETATM   18  C18 UNL     1      42.851  50.897  12.953  1.00  0.00     0.046 C 
HETATM   19  N4  UNL     1      40.889  49.906  14.061  1.00  0.00    -0.061 N 
HETATM   20  C19 UNL     1      40.175  50.638  15.083  1.00  0.00     0.212 C 
ATOM     21  H42 UNL     1      40.339  49.143  13.667  1.00  0.00     0.278 HD
ATOM     22  H41 UNL     1      41.651  49.344  14.441  1.00  0.00     0.278 HD
HETATM   23  C20 UNL     1      40.425  49.964  16.400  1.00  0.00     0.043 C 
ENDBRANCH  13  14
ENDBRANCH  11  13
ENDBRANCH  10  11
ENDBRANCH   9  10
ENDBRANCH   8   9
ENDBRANCH   6   8
BRANCH   1  24
HETATM   24  C5  UNL     1      46.868  57.194  15.867  1.00  0.00     0.168 C 
BRANCH  24  25
HETATM   25  C4  UNL     1      48.105  56.820  15.247  1.00  0.00     0.106 A 
HETATM   26  C2  UNL     1      49.307  56.730  15.942  1.00  0.00     0.037 A 
HETATM   27  C1  UNL     1      49.548  56.982  17.368  1.00  0.00     0.070 C 
HETATM   28  N1  UNL     1      50.243  56.362  15.069  1.00  0.00    -0.354 N 
HETATM   29  C3  UNL     1      49.682  56.221  13.870  1.00  0.00     0.181 A 
ATOM     30  H1  UNL     1      51.230  56.214  15.283  1.00  0.00     0.166 HD
HETATM   31  N2  UNL     1      48.350  56.505  13.978  1.00  0.00    -0.347 N 
ATOM     32  H2  UNL     1      47.667  56.480  13.222  1.00  0.00     0.167 HD
ENDBRANCH  24  25
BRANCH  24  33
HETATM   33  O1  UNL     1      46.233  58.196  15.322  1.00  0.00    -0.344 OA
ATOM     34  H1  UNL     1      45.364  58.373  15.660  1.00  0.00     0.219 HD
ENDBRANCH  24  33
ENDBRANCH   1  24
TORSDOF 9
ENDMDL
MODEL 3
REMARK VINA RESULT: -8.193093576      1.997      7.045
REMARK  9 active torsions:
REMARK  status: ('A' for Active; 'I' for Inactive)
REMARK    1  A    between atoms: C4_8  and  C5_9 
REMARK    2  A    between atoms: C5_9  and  O1_10 
REMARK    3  A    between atoms: C5_9  and  N3_12 
REMARK    4  A    between atoms: C10_17  and  O2_18 
REMARK    5  A    between atoms: O2_18  and  C11_19 
REMARK    6  A    between atoms: C11_19  and  C12_20 
REMARK    7  A    between atoms: C12_20  and  C13_21 
REMARK    8  A    between atoms: C13_21  and  O4_23 
REMARK    9  A    between atoms: O4_23  and  C14_24 
ROOT
HETATM    1  N3  UNL     1      45.198  56.047  18.604  1.00  0.00    -0.348 N 
HETATM    2  C6  UNL     1      44.488  57.237  18.957  1.00  0.00     0.089 C 
HETATM    3  C7  UNL     1      45.198  57.642  20.243  1.00  0.00     0.027 C 
HETATM    4  C8  UNL     1      45.747  56.343  20.803  1.00  0.00     0.030 C 
HETATM    5  C9  UNL     1      45.067  55.342  19.921  1.00  0.00     0.116 C 
HETATM    6  C10 UNL     1      43.601  55.419  20.135  1.00  0.00     0.146 C 
HETATM    7  C21 UNL     1      43.124  56.623  19.346  1.00  0.00     0.059 C 
ENDROOT
BRANCH   6   8
HETATM    8  O2  UNL     1      42.898  54.302  19.778  1.00  0.00    -0.383 OA
BRANCH   8   9
HETATM    9  C11 UNL     1      41.898  54.508  18.870  1.00  0.00     0.178 C 
BRANCH   9  10
HETATM   10  C12 UNL     1      41.568  53.346  17.996  1.00  0.00     0.137 C 
BRANCH  10  11
HETATM   11  C13 UNL     1      41.727  53.766  16.571  1.00  0.00     0.261 C 
HETATM   12  O3  UNL     1      42.546  54.653  16.244  1.00  0.00    -0.265 OA
BRANCH  11  13
HETATM   13  O4  UNL     1      40.980  53.195  15.550  1.00  0.00    -0.314 OA
BRANCH  13  14
HETATM   14  C14 UNL     1      41.364  52.084  14.830  1.00  0.00     0.164 C 
HETATM   15  C15 UNL     1      41.339  52.266  13.330  1.00  0.00     0.072 C 
HETATM   16  C16 UNL     1      41.396  50.824  12.868  1.00  0.00     0.121 C 
HETATM   17  C17 UNL     1      40.595  50.592  11.615  1.00  0.00     0.046 C 
HETATM   18  C18 UNL     1      42.861  50.534  12.553  1.00  0.00     0.046 C 
HETATM   19  N4  UNL     1      40.885  50.007  13.923  1.00  0.00    -0.061 N 
HETATM   20  C19 UNL     1      40.498  50.871  15.016  1.00  0.00     0.212 C 
ATOM     21  H42 UNL     1      40.128  49.397  13.616  1.00  0.00     0.278 HD
ATOM     22  H41 UNL     1      41.540  49.280  14.210  1.00  0.00     0.278 HD
HETATM   23  C20 UNL     1      40.755  50.139  16.300  1.00  0.00     0.043 C 
ENDBRANCH  13  14
ENDBRANCH  11  13
ENDBRANCH  10  11
ENDBRANCH   9  10
ENDBRANCH   8   9
ENDBRANCH   6   8
BRANCH   1  24
HETATM   24  C5  UNL     1      45.848  55.544  17.478  1.00  0.00     0.168 C 
BRANCH  24  25
HETATM   25  C4  UNL     1      46.996  56.024  16.766  1.00  0.00     0.106 A 
HETATM   26  C2  UNL     1      46.948  57.096  15.880  1.00  0.00     0.037 A 
HETATM   27  C1  UNL     1      45.784  57.912  15.511  1.00  0.00     0.070 C 
HETATM   28  N1  UNL     1      48.178  57.270  15.401  1.00  0.00    -0.354 N 
HETATM   29  C3  UNL     1      48.984  56.361  15.945  1.00  0.00     0.181 A 
ATOM     30  H1  UNL     1      48.457  57.983  14.727  1.00  0.00     0.166 HD
HETATM   31  N2  UNL     1      48.250  55.584  16.796  1.00  0.00    -0.347 N 
ATOM     32  H2  UNL     1      48.602  54.806  17.353  1.00  0.00     0.167 HD
ENDBRANCH  24  25
BRANCH  24  33
HETATM   33  O1  UNL     1      45.300  54.453  17.015  1.00  0.00    -0.344 OA
ATOM     34  H1  UNL     1      44.360  54.379  17.126  1.00  0.00     0.219 HD
ENDBRANCH  24  33
ENDBRANCH   1  24
TORSDOF 9
ENDMDL
MODEL 4
REMARK VINA RESULT: -8.186207714      4.976      9.785
REMARK  9 active torsions:
REMARK  status: ('A' for Active; 'I' for Inactive)
REMARK    1  A    between atoms: C4_8  and  C5_9 
REMARK    2  A    between atoms: C5_9  and  O1_10 
REMARK    3  A    between atoms: C5_9  and  N3_12 
REMARK    4  A    between atoms: C10_17  and  O2_18 
REMARK    5  A    between atoms: O2_18  and  C11_19 
REMARK    6  A    between atoms: C11_19  and  C12_20 
REMARK    7  A    between atoms: C12_20  and  C13_21 
REMARK    8  A    between atoms: C13_21  and  O4_23 
REMARK    9  A    between atoms: O4_23  and  C14_24 
ROOT
HETATM    1  N3  UNL     1      41.297  51.064  14.146  1.00  0.00    -0.348 N 
HETATM    2  C6  UNL     1      42.348  50.707  13.244  1.00  0.00     0.089 C 
HETATM    3  C7  UNL     1      42.783  52.075  12.732  1.00  0.00     0.027 C 
HETATM    4  C8  UNL     1      41.552  52.949  12.877  1.00  0.00     0.030 C 
HETATM    5  C9  UNL     1      40.510  51.922  13.200  1.00  0.00     0.116 C 
HETATM    6  C10 UNL     1      40.358  51.001  12.047  1.00  0.00     0.146 C 
HETATM    7  C21 UNL     1      41.519  50.029  12.131  1.00  0.00     0.059 C 
ENDROOT
BRANCH   6   8
HETATM    8  O2  UNL     1      39.171  50.326  11.990  1.00  0.00    -0.383 OA
BRANCH   8   9
HETATM    9  C11 UNL     1      38.250  50.685  12.934  1.00  0.00     0.178 C 
BRANCH   9  10
HETATM   10  C12 UNL     1      36.905  51.065  12.414  1.00  0.00     0.137 C 
BRANCH  10  11
HETATM   11  C13 UNL     1      36.040  49.847  12.407  1.00  0.00     0.261 C 
HETATM   12  O3  UNL     1      36.220  48.929  11.577  1.00  0.00    -0.265 OA
BRANCH  11  13
HETATM   13  O4  UNL     1      35.002  49.678  13.314  1.00  0.00    -0.314 OA
BRANCH  13  14
HETATM   14  C14 UNL     1      34.680  50.578  14.307  1.00  0.00     0.164 C 
HETATM   15  C15 UNL     1      35.378  50.336  15.626  1.00  0.00     0.072 C 
HETATM   16  C16 UNL     1      34.531  51.182  16.554  1.00  0.00     0.121 C 
HETATM   17  C17 UNL     1      34.396  50.569  17.923  1.00  0.00     0.046 C 
HETATM   18  C18 UNL     1      35.261  52.513  16.704  1.00  0.00     0.046 C 
HETATM   19  N4  UNL     1      33.240  51.322  15.961  1.00  0.00    -0.061 N 
HETATM   20  C19 UNL     1      33.234  50.593  14.713  1.00  0.00     0.212 C 
ATOM     21  H42 UNL     1      32.486  51.038  16.587  1.00  0.00     0.278 HD
ATOM     22  H41 UNL     1      32.963  52.297  15.847  1.00  0.00     0.278 HD
HETATM   23  C20 UNL     1      32.347  51.325  13.750  1.00  0.00     0.043 C 
ENDBRANCH  13  14
ENDBRANCH  11  13
ENDBRANCH  10  11
ENDBRANCH   9  10
ENDBRANCH   8   9
ENDBRANCH   6   8
BRANCH   1  24
HETATM   24  C5  UNL     1      40.957  50.799  15.472  1.00  0.00     0.168 C 
BRANCH  24  25
HETATM   25  C4  UNL     1      40.987  51.639  16.632  1.00  0.00     0.106 A 
HETATM   26  C2  UNL     1      40.020  52.603  16.898  1.00  0.00     0.037 A 
HETATM   27  C1  UNL     1      38.837  52.943  16.097  1.00  0.00     0.070 C 
HETATM   28  N1  UNL     1      40.353  53.193  18.045  1.00  0.00    -0.354 N 
HETATM   29  C3  UNL     1      41.476  52.644  18.501  1.00  0.00     0.181 A 
ATOM     30  H1  UNL     1      39.832  53.944  18.499  1.00  0.00     0.166 HD
HETATM   31  N2  UNL     1      41.873  51.675  17.623  1.00  0.00    -0.347 N 
ATOM     32  H2  UNL     1      42.700  51.086  17.713  1.00  0.00     0.167 HD
ENDBRANCH  24  25
BRANCH  24  33
HETATM   33  O1  UNL     1      40.546  49.574  15.660  1.00  0.00    -0.344 OA
ATOM     34  H1  UNL     1      40.031  49.194  14.958  1.00  0.00     0.219 HD
ENDBRANCH  24  33
ENDBRANCH   1  24
TORSDOF 9
ENDMDL
MODEL 5
REMARK VINA RESULT: -8.167892778      1.850      7.517
REMARK  9 active torsions:
REMARK  status: ('A' for Active; 'I' for Inactive)
REMARK    1  A    between atoms: C4_8  and  C5_9 
REMARK    2  A    between atoms: C5_9  and  O1_10 
REMARK    3  A    between atoms: C5_9  and  N3_12 
REMARK    4  A    between atoms: C10_17  and  O2_18 
REMARK    5  A    between atoms: O2_18  and  C11_19 
REMARK    6  A    between atoms: C11_19  and  C12_20 
REMARK    7  A    between atoms: C12_20  and  C13_21 
REMARK    8  A    between atoms: C13_21  and  O4_23 
REMARK    9  A    between atoms: O4_23  and  C14_24 
ROOT
HETATM    1  N3  UNL     1      44.981  56.366  17.431  1.00  0.00    -0.348 N 
HETATM    2  C6  UNL     1      44.372  57.615  17.094  1.00  0.00     0.089 C 
HETATM    3  C7  UNL     1      43.936  58.118  18.464  1.00  0.00     0.027 C 
HETATM    4  C8  UNL     1      43.750  56.861  19.293  1.00  0.00     0.030 C 
HETATM    5  C9  UNL     1      43.846  55.805  18.235  1.00  0.00     0.116 C 
HETATM    6  C10 UNL     1      42.721  55.967  17.281  1.00  0.00     0.146 C 
HETATM    7  C21 UNL     1      43.115  57.103  16.357  1.00  0.00     0.059 C 
ENDROOT
BRANCH   6   8
HETATM    8  O2  UNL     1      42.401  54.851  16.559  1.00  0.00    -0.383 OA
BRANCH   8   9
HETATM    9  C11 UNL     1      41.936  53.796  17.293  1.00  0.00     0.178 C 
BRANCH   9  10
HETATM   10  C12 UNL     1      40.645  53.207  16.832  1.00  0.00     0.137 C 
BRANCH  10  11
HETATM   11  C13 UNL     1      40.716  51.724  16.999  1.00  0.00     0.261 C 
HETATM   12  O3  UNL     1      40.672  51.197  18.133  1.00  0.00    -0.265 OA
BRANCH  11  13
HETATM   13  O4  UNL     1      40.832  50.867  15.914  1.00  0.00    -0.314 OA
BRANCH  13  14
HETATM   14  C14 UNL     1      41.020  51.279  14.611  1.00  0.00     0.164 C 
HETATM   15  C15 UNL     1      40.088  50.639  13.608  1.00  0.00     0.072 C 
HETATM   16  C16 UNL     1      40.801  50.965  12.312  1.00  0.00     0.121 C 
HETATM   17  C17 UNL     1      40.660  49.869  11.290  1.00  0.00     0.046 C 
HETATM   18  C18 UNL     1      40.128  52.217  11.757  1.00  0.00     0.046 C 
HETATM   19  N4  UNL     1      42.183  51.168  12.612  1.00  0.00    -0.061 N 
HETATM   20  C19 UNL     1      42.371  50.969  14.031  1.00  0.00     0.212 C 
ATOM     21  H42 UNL     1      42.798  50.581  12.048  1.00  0.00     0.278 HD
ATOM     22  H41 UNL     1      42.526  52.073  12.293  1.00  0.00     0.278 HD
HETATM   23  C20 UNL     1      43.452  51.902  14.492  1.00  0.00     0.043 C 
ENDBRANCH  13  14
ENDBRANCH  11  13
ENDBRANCH  10  11
ENDBRANCH   9  10
ENDBRANCH   8   9
ENDBRANCH   6   8
BRANCH   1  24
HETATM   24  C5  UNL     1      46.194  55.723  17.186  1.00  0.00     0.168 C 
BRANCH  24  25
HETATM   25  C4  UNL     1      47.541  56.207  17.250  1.00  0.00     0.106 A 
HETATM   26  C2  UNL     1      48.163  56.868  16.195  1.00  0.00     0.037 A 
HETATM   27  C1  UNL     1      47.605  57.189  14.875  1.00  0.00     0.070 C 
HETATM   28  N1  UNL     1      49.397  57.174  16.591  1.00  0.00    -0.354 N 
HETATM   29  C3  UNL     1      49.570  56.737  17.836  1.00  0.00     0.181 A 
ATOM     30  H1  UNL     1      50.095  57.664  16.031  1.00  0.00     0.166 HD
HETATM   31  N2  UNL     1      48.416  56.135  18.249  1.00  0.00    -0.347 N 
ATOM     32  H2  UNL     1      48.254  55.706  19.160  1.00  0.00     0.167 HD
ENDBRANCH  24  25
BRANCH  24  33
HETATM   33  O1  UNL     1      46.049  54.472  16.842  1.00  0.00    -0.344 OA
ATOM     34  H1  UNL     1      45.411  54.297  16.161  1.00  0.00     0.219 HD
ENDBRANCH  24  33
ENDBRANCH   1  24
TORSDOF 9
ENDMDL
