MODEL 1
REMARK VINA RESULT: -7.183896032      0.000      0.000
REMARK  6 active torsions:
REMARK  status: ('A' for Active; 'I' for Inactive)
REMARK    1  A    between atoms: C2_5  and  N2_6 
REMARK    2  A    between atoms: N2_6  and  C3_8 
REMARK    3  A    between atoms: C8_16  and  N4_17 
REMARK    4  A    between atoms: C13_22  and  N5_23 
REMARK    5  A    between atoms: N5_23  and  N6_25 
REMARK    6  A    between atoms: N6_25  and  C14_27 
ROOT
HETATM    1  O1  UNL     1       3.378   6.958  28.579  1.00  0.00    -0.265 OA
HETATM    2  C1  UNL     1       3.379   5.764  28.204  1.00  0.00     0.291 A 
HETATM    3  N1  UNL     1       4.477   5.015  28.376  1.00  0.00    -0.154 N 
ATOM      4  H1  UNL     1       5.293   5.443  28.814  1.00  0.00     0.187 HD
HETATM    5  C2  UNL     1       4.553   3.726  27.999  1.00  0.00     0.683 A 
HETATM    6  N3  UNL     1       3.447   3.169  27.413  1.00  0.00    -0.174 N 
ATOM      7  H3  UNL     1       3.491   2.192  27.122  1.00  0.00     0.186 HD
HETATM    8  C8  UNL     1       2.311   3.848  27.205  1.00  0.00     0.153 A 
HETATM    9  C13 UNL     1       2.272   5.166  27.605  1.00  0.00     0.161 A 
ENDROOT
BRANCH   9  10
HETATM   10  N5  UNL     1       1.099   5.925  27.408  1.00  0.00    -0.292 N 
ATOM     11  H5  UNL     1       0.556   5.785  26.556  1.00  0.00     0.187 HD
BRANCH  10  12
HETATM   12  N6  UNL     1       0.692   6.791  28.273  1.00  0.00    -0.297 N 
ATOM     13  H6  UNL     1       1.221   7.649  28.430  1.00  0.00     0.187 HD
BRANCH  12  14
HETATM   14  C14 UNL     1      -0.495   6.538  29.003  1.00  0.00     0.081 A 
HETATM   15  C15 UNL     1      -1.485   7.427  29.390  1.00  0.00     0.139 A 
HETATM   16  N7  UNL     1      -2.404   6.692  30.064  1.00  0.00    -0.310 N 
HETATM   17  N8  UNL     1      -2.006   5.423  30.092  1.00  0.00    -0.310 N 
ATOM     18  H7  UNL     1      -3.261   7.053  30.482  1.00  0.00     0.186 HD
HETATM   19  C16 UNL     1      -0.846   5.284  29.456  1.00  0.00     0.139 A 
ATOM     20  H8  UNL     1      -2.518   4.663  30.539  1.00  0.00     0.186 HD
ENDBRANCH  12  14
ENDBRANCH  10  12
ENDBRANCH   9  10
BRANCH   8  21
HETATM   21  N4  UNL     1       1.151   3.299  26.602  1.00  0.00    -0.365 N 
HETATM   22  C9  UNL     1       0.673   3.363  25.248  1.00  0.00     0.124 C 
HETATM   23  C10 UNL     1       0.304   1.906  24.984  1.00  0.00     0.021 C 
HETATM   24  C11 UNL     1      -0.036   1.347  26.363  1.00  0.00     0.021 C 
HETATM   25  C12 UNL     1       0.159   2.506  27.328  1.00  0.00     0.124 C 
ENDBRANCH   8  21
BRANCH   5  26
HETATM   26  N2  UNL     1       5.616   3.014  28.170  1.00  0.00    -0.218 N 
ATOM     27  H2  UNL     1       5.961   2.433  27.405  1.00  0.00     0.178 HD
BRANCH  26  28
HETATM   28  C3  UNL     1       6.309   3.029  29.409  1.00  0.00     0.133 C 
HETATM   29  C4  UNL     1       5.725   2.089  30.449  1.00  0.00     0.029 C 
HETATM   30  C5  UNL     1       6.808   2.142  31.520  1.00  0.00     0.005 C 
HETATM   31  C6  UNL     1       8.107   2.416  30.772  1.00  0.00     0.039 C 
HETATM   32  C7  UNL     1       7.715   2.422  29.287  1.00  0.00     0.193 C 
HETATM   33  F1  UNL     1       8.542   3.201  28.539  1.00  0.00    -0.247 F 
ENDBRANCH  26  28
ENDBRANCH   5  26
TORSDOF 6
ENDMDL
MODEL 2
REMARK VINA RESULT: -7.154292183      2.701      6.601
REMARK  6 active torsions:
REMARK  status: ('A' for Active; 'I' for Inactive)
REMARK    1  A    between atoms: C2_5  and  N2_6 
REMARK    2  A    between atoms: N2_6  and  C3_8 
REMARK    3  A    between atoms: C8_16  and  N4_17 
REMARK    4  A    between atoms: C13_22  and  N5_23 
REMARK    5  A    between atoms: N5_23  and  N6_25 
REMARK    6  A    between atoms: N6_25  and  C14_27 
ROOT
HETATM    1  O1  UNL     1       3.721   6.109  28.482  1.00  0.00    -0.265 OA
HETATM    2  C1  UNL     1       2.635   5.486  28.491  1.00  0.00     0.291 A 
HETATM    3  N1  UNL     1       1.745   5.716  29.466  1.00  0.00    -0.154 N 
ATOM      4  H1  UNL     1       1.978   6.401  30.185  1.00  0.00     0.187 HD
HETATM    5  C2  UNL     1       0.559   5.086  29.541  1.00  0.00     0.683 A 
HETATM    6  N3  UNL     1       0.263   4.170  28.566  1.00  0.00    -0.174 N 
ATOM      7  H3  UNL     1      -0.633   3.685  28.611  1.00  0.00     0.186 HD
HETATM    8  C8  UNL     1       1.097   3.882  27.558  1.00  0.00     0.153 A 
HETATM    9  C13 UNL     1       2.302   4.548  27.515  1.00  0.00     0.161 A 
ENDROOT
BRANCH   9  10
HETATM   10  N5  UNL     1       3.216   4.281  26.474  1.00  0.00    -0.292 N 
ATOM     11  H5  UNL     1       2.881   4.283  25.510  1.00  0.00     0.187 HD
BRANCH  10  12
HETATM   12  N6  UNL     1       4.461   4.036  26.703  1.00  0.00    -0.297 N 
ATOM     13  H6  UNL     1       5.177   4.710  26.429  1.00  0.00     0.187 HD
BRANCH  12  14
HETATM   14  C14 UNL     1       4.825   2.824  27.339  1.00  0.00     0.081 A 
HETATM   15  C15 UNL     1       5.175   2.606  28.661  1.00  0.00     0.139 A 
HETATM   16  N7  UNL     1       5.434   1.278  28.763  1.00  0.00    -0.310 N 
HETATM   17  N8  UNL     1       5.254   0.710  27.575  1.00  0.00    -0.310 N 
ATOM     18  H7  UNL     1       5.720   0.795  29.614  1.00  0.00     0.186 HD
HETATM   19  C16 UNL     1       4.881   1.616  26.676  1.00  0.00     0.139 A 
ATOM     20  H8  UNL     1       5.384  -0.283  27.380  1.00  0.00     0.186 HD
ENDBRANCH  12  14
ENDBRANCH  10  12
ENDBRANCH   9  10
BRANCH   8  21
HETATM   21  N4  UNL     1       0.819   2.939  26.535  1.00  0.00    -0.365 N 
HETATM   22  C9  UNL     1       0.446   3.125  25.160  1.00  0.00     0.124 C 
HETATM   23  C10 UNL     1       1.378   2.143  24.455  1.00  0.00     0.021 C 
HETATM   24  C11 UNL     1       1.652   1.065  25.500  1.00  0.00     0.021 C 
HETATM   25  C12 UNL     1       0.871   1.491  26.733  1.00  0.00     0.124 C 
ENDBRANCH   8  21
BRANCH   5  26
HETATM   26  N2  UNL     1      -0.291   5.315  30.485  1.00  0.00    -0.218 N 
ATOM     27  H2  UNL     1      -0.017   5.167  31.457  1.00  0.00     0.178 HD
BRANCH  26  28
HETATM   28  C3  UNL     1      -1.603   5.770  30.187  1.00  0.00     0.133 C 
HETATM   29  C4  UNL     1      -2.595   5.563  31.318  1.00  0.00     0.029 C 
HETATM   30  C5  UNL     1      -3.785   6.363  30.802  1.00  0.00     0.005 C 
HETATM   31  C6  UNL     1      -3.188   7.471  29.941  1.00  0.00     0.039 C 
HETATM   32  C7  UNL     1      -1.668   7.301  30.076  1.00  0.00     0.193 C 
HETATM   33  F1  UNL     1      -1.000   7.761  28.984  1.00  0.00    -0.247 F 
ENDBRANCH  26  28
ENDBRANCH   5  26
TORSDOF 6
ENDMDL
MODEL 3
REMARK VINA RESULT: -6.946253253      1.029      1.395
REMARK  6 active torsions:
REMARK  status: ('A' for Active; 'I' for Inactive)
REMARK    1  A    between atoms: C2_5  and  N2_6 
REMARK    2  A    between atoms: N2_6  and  C3_8 
REMARK    3  A    between atoms: C8_16  and  N4_17 
REMARK    4  A    between atoms: C13_22  and  N5_23 
REMARK    5  A    between atoms: N5_23  and  N6_25 
REMARK    6  A    between atoms: N6_25  and  C14_27 
ROOT
HETATM    1  O1  UNL     1       3.299   7.109  28.579  1.00  0.00    -0.265 OA
HETATM    2  C1  UNL     1       3.328   5.911  28.218  1.00  0.00     0.291 A 
HETATM    3  N1  UNL     1       4.444   5.191  28.395  1.00  0.00    -0.154 N 
ATOM      4  H1  UNL     1       5.251   5.644  28.825  1.00  0.00     0.187 HD
HETATM    5  C2  UNL     1       4.551   3.900  28.033  1.00  0.00     0.683 A 
HETATM    6  N3  UNL     1       3.456   3.309  27.458  1.00  0.00    -0.174 N 
ATOM      7  H3  UNL     1       3.523   2.331  27.179  1.00  0.00     0.186 HD
HETATM    8  C8  UNL     1       2.303   3.958  27.246  1.00  0.00     0.153 A 
HETATM    9  C13 UNL     1       2.233   5.279  27.631  1.00  0.00     0.161 A 
ENDROOT
BRANCH   9  10
HETATM   10  N5  UNL     1       1.042   6.007  27.430  1.00  0.00    -0.292 N 
ATOM     11  H5  UNL     1       0.530   5.886  26.556  1.00  0.00     0.187 HD
BRANCH  10  12
HETATM   12  N6  UNL     1       0.580   6.821  28.317  1.00  0.00    -0.297 N 
ATOM     13  H6  UNL     1       1.041   7.716  28.484  1.00  0.00     0.187 HD
BRANCH  12  14
HETATM   14  C14 UNL     1      -0.572   6.461  29.058  1.00  0.00     0.081 A 
HETATM   15  C15 UNL     1      -0.940   5.218  29.547  1.00  0.00     0.139 A 
HETATM   16  N7  UNL     1      -2.123   5.403  30.183  1.00  0.00    -0.310 N 
HETATM   17  N8  UNL     1      -2.467   6.685  30.093  1.00  0.00    -0.310 N 
ATOM     18  H7  UNL     1      -2.662   4.677  30.654  1.00  0.00     0.186 HD
HETATM   19  C16 UNL     1      -1.549   7.367  29.415  1.00  0.00     0.139 A 
ATOM     20  H8  UNL     1      -3.316   7.088  30.489  1.00  0.00     0.186 HD
ENDBRANCH  12  14
ENDBRANCH  10  12
ENDBRANCH   9  10
BRANCH   8  21
HETATM   21  N4  UNL     1       1.155   3.374  26.654  1.00  0.00    -0.365 N 
HETATM   22  C9  UNL     1       0.653   3.437  25.309  1.00  0.00     0.124 C 
HETATM   23  C10 UNL     1       0.335   1.971  25.031  1.00  0.00     0.021 C 
HETATM   24  C11 UNL     1       0.038   1.381  26.408  1.00  0.00     0.021 C 
HETATM   25  C12 UNL     1       0.206   2.534  27.385  1.00  0.00     0.124 C 
ENDBRANCH   8  21
BRANCH   5  26
HETATM   26  N2  UNL     1       5.631   3.216  28.209  1.00  0.00    -0.218 N 
ATOM     27  H2  UNL     1       6.463   3.441  27.663  1.00  0.00     0.178 HD
BRANCH  26  28
HETATM   28  C3  UNL     1       5.674   2.155  29.151  1.00  0.00     0.133 C 
HETATM   29  C4  UNL     1       6.696   1.082  28.819  1.00  0.00     0.029 C 
HETATM   30  C5  UNL     1       6.679   0.264  30.105  1.00  0.00     0.005 C 
HETATM   31  C6  UNL     1       6.317   1.252  31.209  1.00  0.00     0.039 C 
HETATM   32  C7  UNL     1       6.229   2.615  30.508  1.00  0.00     0.193 C 
HETATM   33  F1  UNL     1       5.379   3.466  31.142  1.00  0.00    -0.247 F 
ENDBRANCH  26  28
ENDBRANCH   5  26
TORSDOF 6
ENDMDL
MODEL 4
REMARK VINA RESULT: -6.930469832      2.957      6.517
REMARK  6 active torsions:
REMARK  status: ('A' for Active; 'I' for Inactive)
REMARK    1  A    between atoms: C2_5  and  N2_6 
REMARK    2  A    between atoms: N2_6  and  C3_8 
REMARK    3  A    between atoms: C8_16  and  N4_17 
REMARK    4  A    between atoms: C13_22  and  N5_23 
REMARK    5  A    between atoms: N5_23  and  N6_25 
REMARK    6  A    between atoms: N6_25  and  C14_27 
ROOT
HETATM    1  O1  UNL     1       3.520   6.904  28.540  1.00  0.00    -0.265 OA
HETATM    2  C1  UNL     1       2.488   6.229  28.325  1.00  0.00     0.291 A 
HETATM    3  N1  UNL     1       1.311   6.639  28.819  1.00  0.00    -0.154 N 
ATOM      4  H1  UNL     1       1.287   7.502  29.364  1.00  0.00     0.187 HD
HETATM    5  C2  UNL     1       0.161   5.968  28.631  1.00  0.00     0.683 A 
HETATM    6  N3  UNL     1       0.213   4.812  27.896  1.00  0.00    -0.174 N 
ATOM      7  H3  UNL     1      -0.651   4.293  27.745  1.00  0.00     0.186 HD
HETATM    8  C8  UNL     1       1.347   4.334  27.367  1.00  0.00     0.153 A 
HETATM    9  C13 UNL     1       2.505   5.050  27.582  1.00  0.00     0.161 A 
ENDROOT
BRANCH   9  10
HETATM   10  N5  UNL     1       3.726   4.589  27.047  1.00  0.00    -0.292 N 
ATOM     11  H5  UNL     1       3.770   4.344  26.058  1.00  0.00     0.187 HD
BRANCH  10  12
HETATM   12  N6  UNL     1       4.787   4.470  27.769  1.00  0.00    -0.297 N 
ATOM     13  H6  UNL     1       5.463   5.232  27.821  1.00  0.00     0.187 HD
BRANCH  12  14
HETATM   14  C14 UNL     1       5.005   3.270  28.490  1.00  0.00     0.081 A 
HETATM   15  C15 UNL     1       4.936   3.050  29.856  1.00  0.00     0.139 A 
HETATM   16  N7  UNL     1       5.228   1.738  30.038  1.00  0.00    -0.310 N 
HETATM   17  N8  UNL     1       5.464   1.180  28.854  1.00  0.00    -0.310 N 
ATOM     18  H7  UNL     1       5.263   1.258  30.936  1.00  0.00     0.186 HD
HETATM   19  C16 UNL     1       5.338   2.078  27.881  1.00  0.00     0.139 A 
ATOM     20  H8  UNL     1       5.707   0.199  28.712  1.00  0.00     0.186 HD
ENDBRANCH  12  14
ENDBRANCH  10  12
ENDBRANCH   9  10
BRANCH   8  21
HETATM   21  N4  UNL     1       1.432   3.142  26.603  1.00  0.00    -0.365 N 
HETATM   22  C9  UNL     1       1.701   1.787  26.998  1.00  0.00     0.124 C 
HETATM   23  C10 UNL     1       0.612   1.027  26.247  1.00  0.00     0.021 C 
HETATM   24  C11 UNL     1       0.317   1.897  25.028  1.00  0.00     0.021 C 
HETATM   25  C12 UNL     1       1.244   3.096  25.153  1.00  0.00     0.124 C 
ENDBRANCH   8  21
BRANCH   5  26
HETATM   26  N2  UNL     1      -0.966   6.372  29.112  1.00  0.00    -0.218 N 
ATOM     27  H2  UNL     1      -1.405   7.211  28.730  1.00  0.00     0.178 HD
BRANCH  26  28
HETATM   28  C3  UNL     1      -1.603   5.663  30.164  1.00  0.00     0.133 C 
HETATM   29  C4  UNL     1      -0.725   5.463  31.387  1.00  0.00     0.029 C 
HETATM   30  C5  UNL     1      -1.745   4.931  32.387  1.00  0.00     0.005 C 
HETATM   31  C6  UNL     1      -3.077   5.550  31.976  1.00  0.00     0.039 C 
HETATM   32  C7  UNL     1      -2.735   6.482  30.804  1.00  0.00     0.193 C 
HETATM   33  F1  UNL     1      -3.785   6.647  29.955  1.00  0.00    -0.247 F 
ENDBRANCH  26  28
ENDBRANCH   5  26
TORSDOF 6
ENDMDL
MODEL 5
REMARK VINA RESULT: -6.725018318      1.197      1.737
REMARK  6 active torsions:
REMARK  status: ('A' for Active; 'I' for Inactive)
REMARK    1  A    between atoms: C2_5  and  N2_6 
REMARK    2  A    between atoms: N2_6  and  C3_8 
REMARK    3  A    between atoms: C8_16  and  N4_17 
REMARK    4  A    between atoms: C13_22  and  N5_23 
REMARK    5  A    between atoms: N5_23  and  N6_25 
REMARK    6  A    between atoms: N6_25  and  C14_27 
ROOT
HETATM    1  O1  UNL     1       3.866   5.799  28.298  1.00  0.00    -0.265 OA
HETATM    2  C1  UNL     1       3.925   4.567  28.084  1.00  0.00     0.291 A 
HETATM    3  N1  UNL     1       4.905   3.843  28.642  1.00  0.00    -0.154 N 
ATOM      4  H1  UNL     1       5.585   4.320  29.234  1.00  0.00     0.187 HD
HETATM    5  C2  UNL     1       5.034   2.517  28.458  1.00  0.00     0.683 A 
HETATM    6  N3  UNL     1       4.111   1.893  27.661  1.00  0.00    -0.174 N 
ATOM      7  H3  UNL     1       4.196   0.887  27.513  1.00  0.00     0.186 HD
HETATM    8  C8  UNL     1       3.102   2.543  27.066  1.00  0.00     0.153 A 
HETATM    9  C13 UNL     1       3.003   3.901  27.279  1.00  0.00     0.161 A 
ENDROOT
BRANCH   9  10
HETATM   10  N5  UNL     1       1.958   4.632  26.676  1.00  0.00    -0.292 N 
ATOM     11  H5  UNL     1       1.604   4.331  25.768  1.00  0.00     0.187 HD
BRANCH  10  12
HETATM   12  N6  UNL     1       1.438   5.670  27.238  1.00  0.00    -0.297 N 
ATOM     13  H6  UNL     1       1.801   6.602  27.036  1.00  0.00     0.187 HD
BRANCH  12  14
HETATM   14  C14 UNL     1       0.357   5.504  28.138  1.00  0.00     0.081 A 
HETATM   15  C15 UNL     1      -0.151   4.336  28.682  1.00  0.00     0.139 A 
HETATM   16  N7  UNL     1      -1.181   4.713  29.480  1.00  0.00    -0.310 N 
HETATM   17  N8  UNL     1      -1.302   6.037  29.432  1.00  0.00    -0.310 N 
ATOM     18  H7  UNL     1      -1.768   4.084  30.028  1.00  0.00     0.186 HD
HETATM   19  C16 UNL     1      -0.384   6.560  28.625  1.00  0.00     0.139 A 
ATOM     20  H8  UNL     1      -2.002   6.575  29.943  1.00  0.00     0.186 HD
ENDBRANCH  12  14
ENDBRANCH  10  12
ENDBRANCH   9  10
BRANCH   8  21
HETATM   21  N4  UNL     1       2.131   1.926  26.237  1.00  0.00    -0.365 N 
HETATM   22  C9  UNL     1       0.784   1.508  26.513  1.00  0.00     0.124 C 
HETATM   23  C10 UNL     1       0.038   2.061  25.303  1.00  0.00     0.021 C 
HETATM   24  C11 UNL     1       1.089   2.104  24.197  1.00  0.00     0.021 C 
HETATM   25  C12 UNL     1       2.367   1.581  24.835  1.00  0.00     0.124 C 
ENDBRANCH   8  21
BRANCH   5  26
HETATM   26  N2  UNL     1       5.982   1.829  29.001  1.00  0.00    -0.218 N 
ATOM     27  H2  UNL     1       6.160   0.877  28.681  1.00  0.00     0.178 HD
BRANCH  26  28
HETATM   28  C3  UNL     1       6.779   2.382  30.038  1.00  0.00     0.133 C 
HETATM   29  C4  UNL     1       6.793   1.550  31.309  1.00  0.00     0.029 C 
HETATM   30  C5  UNL     1       7.900   2.246  32.092  1.00  0.00     0.005 C 
HETATM   31  C6  UNL     1       8.847   2.814  31.040  1.00  0.00     0.039 C 
HETATM   32  C7  UNL     1       8.276   2.338  29.696  1.00  0.00     0.193 C 
HETATM   33  F1  UNL     1       8.590   3.181  28.676  1.00  0.00    -0.247 F 
ENDBRANCH  26  28
ENDBRANCH   5  26
TORSDOF 6
ENDMDL
