MODEL 1
REMARK VINA RESULT: -9.433508799      0.000      0.000
REMARK  7 active torsions:
REMARK  status: ('A' for Active; 'I' for Inactive)
REMARK    1  A    between atoms: C6_8  and  N2_9 
REMARK    2  A    between atoms: N2_9  and  C7_11 
REMARK    3  A    between atoms: C8_14  and  N4_15 
REMARK    4  A    between atoms: N4_15  and  C9_16 
REMARK    5  A    between atoms: C9_16  and  C10_17 
REMARK    6  A    between atoms: C14_24  and  N6_25 
REMARK    7  A    between atoms: N6_25  and  C15_27 
ROOT
HETATM    1  C7  UNL     1      -9.394  -2.634 -12.276  1.00  0.00     0.700 A 
HETATM    2  N3  UNL     1     -10.390  -2.524 -13.169  1.00  0.00    -0.148 N 
ATOM      3  H3  UNL     1     -11.317  -2.264 -12.834  1.00  0.00     0.188 HD
HETATM    4  C8  UNL     1     -10.220  -2.746 -14.510  1.00  0.00     0.287 A 
HETATM    5  N5  UNL     1      -8.948  -3.092 -14.889  1.00  0.00    -0.148 N 
ATOM      6  H5  UNL     1      -8.771  -3.267 -15.878  1.00  0.00     0.188 HD
HETATM    7  C14 UNL     1      -7.930  -3.213 -14.037  1.00  0.00     0.700 A 
HETATM    8  N7  UNL     1      -8.192  -2.976 -12.735  1.00  0.00    -0.022 N 
ATOM      9  H7  UNL     1      -7.427  -3.064 -12.065  1.00  0.00     0.203 HD
ENDROOT
BRANCH   1  10
HETATM   10  N2  UNL     1      -9.673  -2.402 -11.038  1.00  0.00    -0.191 N 
ATOM     11  H2  UNL     1      -9.509  -3.148 -10.362  1.00  0.00     0.184 HD
BRANCH  10  12
HETATM   12  C6  UNL     1     -10.188  -1.183 -10.562  1.00  0.00     0.050 A 
HETATM   13  C5  UNL     1      -9.461  -0.018 -10.436  1.00  0.00     0.043 A 
HETATM   14  C4  UNL     1     -10.031   1.164  -9.955  1.00  0.00    -0.006 A 
HETATM   15  C3  UNL     1      -9.530   2.434  -9.740  1.00  0.00     0.100 A 
HETATM   16  C23 UNL     1     -11.355   1.196  -9.590  1.00  0.00    -0.002 A 
HETATM   17  N1  UNL     1     -10.533   3.189  -9.260  1.00  0.00    -0.368 N 
HETATM   18  C2  UNL     1     -11.666   2.481  -9.150  1.00  0.00     0.016 A 
ATOM     19  H1  UNL     1     -10.443   4.175  -9.011  1.00  0.00     0.165 HD
HETATM   20  C1  UNL     1     -12.999   2.918  -8.670  1.00  0.00     0.069 C 
HETATM   21  C22 UNL     1     -12.094   0.038  -9.710  1.00  0.00     0.016 A 
HETATM   22  C21 UNL     1     -11.515  -1.130 -10.189  1.00  0.00     0.031 A 
ENDBRANCH  10  12
ENDBRANCH   1  10
BRANCH   4  23
HETATM   23  N4  UNL     1     -11.147  -2.632 -15.254  1.00  0.00    -0.380 NA
BRANCH  23  24
HETATM   24  C9  UNL     1     -12.180  -2.494 -16.086  1.00  0.00     0.223 C 
BRANCH  24  25
HETATM   25  C10 UNL     1     -13.143  -1.384 -15.750  1.00  0.00     0.103 A 
HETATM   26  C11 UNL     1     -12.870  -0.047 -15.770  1.00  0.00     0.041 A 
HETATM   27  C12 UNL     1     -14.044   0.600 -15.392  1.00  0.00     0.027 A 
HETATM   28  C13 UNL     1     -14.965  -0.401 -15.165  1.00  0.00     0.142 A 
HETATM   29  O1  UNL     1     -14.379  -1.564 -15.391  1.00  0.00    -0.320 OA
ENDBRANCH  24  25
ENDBRANCH  23  24
ENDBRANCH   4  23
BRANCH   7  30
HETATM   30  N6  UNL     1      -6.743  -3.535 -14.378  1.00  0.00    -0.191 N 
ATOM     31  H6  UNL     1      -6.421  -4.467 -14.116  1.00  0.00     0.184 HD
BRANCH  30  32
HETATM   32  C15 UNL     1      -5.844  -2.726 -15.079  1.00  0.00     0.049 A 
HETATM   33  C16 UNL     1      -6.052  -2.453 -16.413  1.00  0.00     0.030 A 
HETATM   34  C17 UNL     1      -5.181  -1.653 -17.142  1.00  0.00     0.002 A 
HETATM   35  C18 UNL     1      -4.085  -1.119 -16.527  1.00  0.00     0.000 A 
HETATM   36  C19 UNL     1      -3.843  -1.372 -15.186  1.00  0.00     0.002 A 
HETATM   37  C20 UNL     1      -4.734  -2.179 -14.475  1.00  0.00     0.030 A 
ENDBRANCH  30  32
ENDBRANCH   7  30
TORSDOF 7
ENDMDL
MODEL 2
REMARK VINA RESULT: -9.416603138      2.460      2.919
REMARK  7 active torsions:
REMARK  status: ('A' for Active; 'I' for Inactive)
REMARK    1  A    between atoms: C6_8  and  N2_9 
REMARK    2  A    between atoms: N2_9  and  C7_11 
REMARK    3  A    between atoms: C8_14  and  N4_15 
REMARK    4  A    between atoms: N4_15  and  C9_16 
REMARK    5  A    between atoms: C9_16  and  C10_17 
REMARK    6  A    between atoms: C14_24  and  N6_25 
REMARK    7  A    between atoms: N6_25  and  C15_27 
ROOT
HETATM    1  C7  UNL     1     -10.455  -3.290 -11.763  1.00  0.00     0.700 A 
HETATM    2  N3  UNL     1     -10.897  -2.605 -12.829  1.00  0.00    -0.148 N 
ATOM      3  H3  UNL     1     -11.380  -1.720 -12.671  1.00  0.00     0.188 HD
HETATM    4  C8  UNL     1     -10.730  -3.036 -14.118  1.00  0.00     0.287 A 
HETATM    5  N5  UNL     1     -10.072  -4.233 -14.253  1.00  0.00    -0.148 N 
ATOM      6  H5  UNL     1      -9.924  -4.596 -15.194  1.00  0.00     0.188 HD
HETATM    7  C14 UNL     1      -9.617  -4.946 -13.224  1.00  0.00     0.700 A 
HETATM    8  N7  UNL     1      -9.827  -4.442 -11.991  1.00  0.00    -0.022 N 
ATOM      9  H7  UNL     1      -9.488  -4.973 -11.188  1.00  0.00     0.203 HD
ENDROOT
BRANCH   1  10
HETATM   10  N2  UNL     1     -10.670  -2.785 -10.595  1.00  0.00    -0.191 N 
ATOM     11  H2  UNL     1     -10.717  -3.421  -9.799  1.00  0.00     0.184 HD
BRANCH  10  12
HETATM   12  C6  UNL     1     -10.843  -1.410 -10.352  1.00  0.00     0.050 A 
HETATM   13  C5  UNL     1      -9.827  -0.478 -10.346  1.00  0.00     0.043 A 
HETATM   14  C4  UNL     1     -10.062   0.876 -10.097  1.00  0.00    -0.006 A 
HETATM   15  C3  UNL     1      -9.237   1.983 -10.037  1.00  0.00     0.100 A 
HETATM   16  C23 UNL     1     -11.337   1.323  -9.846  1.00  0.00    -0.002 A 
HETATM   17  N1  UNL     1     -10.007   3.048  -9.758  1.00  0.00    -0.368 N 
HETATM   18  C2  UNL     1     -11.295   2.698  -9.632  1.00  0.00     0.016 A 
ATOM     19  H1  UNL     1      -9.656   4.001  -9.655  1.00  0.00     0.165 HD
HETATM   20  C1  UNL     1     -12.470   3.551  -9.330  1.00  0.00     0.069 C 
HETATM   21  C22 UNL     1     -12.364   0.401  -9.848  1.00  0.00     0.016 A 
HETATM   22  C21 UNL     1     -12.115  -0.942 -10.097  1.00  0.00     0.031 A 
ENDBRANCH  10  12
ENDBRANCH   1  10
BRANCH   4  23
HETATM   23  N4  UNL     1     -11.148  -2.380 -15.024  1.00  0.00    -0.380 NA
BRANCH  23  24
HETATM   24  C9  UNL     1     -11.611  -1.638 -16.030  1.00  0.00     0.223 C 
BRANCH  24  25
HETATM   25  C10 UNL     1     -12.930  -0.953 -15.780  1.00  0.00     0.103 A 
HETATM   26  C11 UNL     1     -13.175   0.387 -15.884  1.00  0.00     0.041 A 
HETATM   27  C12 UNL     1     -14.519   0.566 -15.565  1.00  0.00     0.027 A 
HETATM   28  C13 UNL     1     -15.008  -0.693 -15.285  1.00  0.00     0.142 A 
HETATM   29  O1  UNL     1     -14.023  -1.562 -15.427  1.00  0.00    -0.320 OA
ENDBRANCH  24  25
ENDBRANCH  23  24
ENDBRANCH   4  23
BRANCH   7  30
HETATM   30  N6  UNL     1      -9.004  -6.060 -13.338  1.00  0.00    -0.191 N 
ATOM     31  H6  UNL     1      -8.967  -6.657 -12.511  1.00  0.00     0.184 HD
BRANCH  30  32
HETATM   32  C15 UNL     1      -8.379  -6.536 -14.494  1.00  0.00     0.049 A 
HETATM   33  C16 UNL     1      -7.076  -6.184 -14.773  1.00  0.00     0.030 A 
HETATM   34  C17 UNL     1      -6.422  -6.637 -15.912  1.00  0.00     0.002 A 
HETATM   35  C18 UNL     1      -7.081  -7.455 -16.785  1.00  0.00     0.000 A 
HETATM   36  C19 UNL     1      -8.392  -7.830 -16.537  1.00  0.00     0.002 A 
HETATM   37  C20 UNL     1      -9.028  -7.360 -15.386  1.00  0.00     0.030 A 
ENDBRANCH  30  32
ENDBRANCH   7  30
TORSDOF 7
ENDMDL
MODEL 3
REMARK VINA RESULT: -9.383234243      3.055      7.657
REMARK  7 active torsions:
REMARK  status: ('A' for Active; 'I' for Inactive)
REMARK    1  A    between atoms: C6_8  and  N2_9 
REMARK    2  A    between atoms: N2_9  and  C7_11 
REMARK    3  A    between atoms: C8_14  and  N4_15 
REMARK    4  A    between atoms: N4_15  and  C9_16 
REMARK    5  A    between atoms: C9_16  and  C10_17 
REMARK    6  A    between atoms: C14_24  and  N6_25 
REMARK    7  A    between atoms: N6_25  and  C15_27 
ROOT
HETATM    1  C7  UNL     1     -10.875  -2.923 -11.452  1.00  0.00     0.700 A 
HETATM    2  N3  UNL     1     -11.287  -2.718 -12.712  1.00  0.00    -0.148 N 
ATOM      3  H3  UNL     1     -10.916  -3.318 -13.449  1.00  0.00     0.188 HD
HETATM    4  C8  UNL     1     -12.185  -1.742 -13.057  1.00  0.00     0.287 A 
HETATM    5  N5  UNL     1     -12.642  -0.975 -12.015  1.00  0.00    -0.148 N 
ATOM      6  H5  UNL     1     -13.313  -0.235 -12.221  1.00  0.00     0.188 HD
HETATM    7  C14 UNL     1     -12.259  -1.143 -10.750  1.00  0.00     0.700 A 
HETATM    8  N7  UNL     1     -11.372  -2.129 -10.506  1.00  0.00    -0.022 N 
ATOM      9  H7  UNL     1     -11.064  -2.274  -9.544  1.00  0.00     0.203 HD
ENDROOT
BRANCH   1  10
HETATM   10  N2  UNL     1     -10.025  -3.873 -11.247  1.00  0.00    -0.191 N 
ATOM     11  H2  UNL     1      -9.675  -4.006 -10.298  1.00  0.00     0.184 HD
BRANCH  10  12
HETATM   12  C6  UNL     1      -9.552  -4.736 -12.252  1.00  0.00     0.050 A 
HETATM   13  C5  UNL     1      -9.876  -4.638 -13.589  1.00  0.00     0.043 A 
HETATM   14  C4  UNL     1      -9.373  -5.528 -14.541  1.00  0.00    -0.006 A 
HETATM   15  C3  UNL     1      -9.540  -5.641 -15.908  1.00  0.00     0.100 A 
HETATM   16  C23 UNL     1      -8.528  -6.543 -14.163  1.00  0.00    -0.002 A 
HETATM   17  N1  UNL     1      -8.813  -6.694 -16.320  1.00  0.00    -0.368 N 
HETATM   18  C2  UNL     1      -8.177  -7.278 -15.293  1.00  0.00     0.016 A 
ATOM     19  H1  UNL     1      -8.753  -7.009 -17.288  1.00  0.00     0.165 HD
HETATM   20  C1  UNL     1      -7.278  -8.457 -15.299  1.00  0.00     0.069 C 
HETATM   21  C22 UNL     1      -8.196  -6.653 -12.829  1.00  0.00     0.016 A 
HETATM   22  C21 UNL     1      -8.703  -5.762 -11.892  1.00  0.00     0.031 A 
ENDBRANCH  10  12
ENDBRANCH   1  10
BRANCH   4  23
HETATM   23  N4  UNL     1     -12.512  -1.611 -14.197  1.00  0.00    -0.380 NA
BRANCH  23  24
HETATM   24  C9  UNL     1     -12.868  -1.467 -15.474  1.00  0.00     0.223 C 
BRANCH  24  25
HETATM   25  C10 UNL     1     -11.828  -1.868 -16.489  1.00  0.00     0.103 A 
HETATM   26  C11 UNL     1     -10.481  -1.666 -16.384  1.00  0.00     0.041 A 
HETATM   27  C12 UNL     1      -9.914  -2.193 -17.543  1.00  0.00     0.027 A 
HETATM   28  C13 UNL     1     -10.968  -2.685 -18.283  1.00  0.00     0.142 A 
HETATM   29  O1  UNL     1     -12.086  -2.467 -17.612  1.00  0.00    -0.320 OA
ENDBRANCH  24  25
ENDBRANCH  23  24
ENDBRANCH   4  23
BRANCH   7  30
HETATM   30  N6  UNL     1     -12.678  -0.435  -9.773  1.00  0.00    -0.191 N 
ATOM     31  H6  UNL     1     -13.334  -0.876  -9.128  1.00  0.00     0.184 HD
BRANCH  30  32
HETATM   32  C15 UNL     1     -12.318   0.889  -9.508  1.00  0.00     0.049 A 
HETATM   33  C16 UNL     1     -13.215   1.910  -9.733  1.00  0.00     0.030 A 
HETATM   34  C17 UNL     1     -12.893   3.238  -9.482  1.00  0.00     0.002 A 
HETATM   35  C18 UNL     1     -11.655   3.549  -8.998  1.00  0.00     0.000 A 
HETATM   36  C19 UNL     1     -10.726   2.549  -8.759  1.00  0.00     0.002 A 
HETATM   37  C20 UNL     1     -11.074   1.222  -9.021  1.00  0.00     0.030 A 
ENDBRANCH  30  32
ENDBRANCH   7  30
TORSDOF 7
ENDMDL
MODEL 4
REMARK VINA RESULT: -9.320729306      1.679      5.715
REMARK  7 active torsions:
REMARK  status: ('A' for Active; 'I' for Inactive)
REMARK    1  A    between atoms: C6_8  and  N2_9 
REMARK    2  A    between atoms: N2_9  and  C7_11 
REMARK    3  A    between atoms: C8_14  and  N4_15 
REMARK    4  A    between atoms: N4_15  and  C9_16 
REMARK    5  A    between atoms: C9_16  and  C10_17 
REMARK    6  A    between atoms: C14_24  and  N6_25 
REMARK    7  A    between atoms: N6_25  and  C15_27 
ROOT
HETATM    1  C7  UNL     1     -10.163  -2.303 -12.512  1.00  0.00     0.700 A 
HETATM    2  N3  UNL     1      -8.930  -2.537 -12.985  1.00  0.00    -0.148 N 
ATOM      3  H3  UNL     1      -8.149  -2.540 -12.328  1.00  0.00     0.188 HD
HETATM    4  C8  UNL     1      -8.668  -2.774 -14.309  1.00  0.00     0.287 A 
HETATM    5  N5  UNL     1      -9.765  -2.756 -15.133  1.00  0.00    -0.148 N 
ATOM      6  H5  UNL     1      -9.622  -2.927 -16.128  1.00  0.00     0.188 HD
HETATM    7  C14 UNL     1     -11.006  -2.527 -14.706  1.00  0.00     0.700 A 
HETATM    8  N7  UNL     1     -11.167  -2.304 -13.386  1.00  0.00    -0.022 N 
ATOM      9  H7  UNL     1     -12.110  -2.125 -13.038  1.00  0.00     0.203 HD
ENDROOT
BRANCH   1  10
HETATM   10  N2  UNL     1     -10.288  -2.093 -11.245  1.00  0.00    -0.191 N 
ATOM     11  H2  UNL     1     -10.143  -2.879 -10.612  1.00  0.00     0.184 HD
BRANCH  10  12
HETATM   12  C6  UNL     1     -10.612  -0.844 -10.683  1.00  0.00     0.050 A 
HETATM   13  C5  UNL     1      -9.704   0.016 -10.103  1.00  0.00     0.043 A 
HETATM   14  C4  UNL     1     -10.088   1.245  -9.560  1.00  0.00    -0.006 A 
HETATM   15  C3  UNL     1      -9.389   2.262  -8.938  1.00  0.00     0.100 A 
HETATM   16  C23 UNL     1     -11.405   1.635  -9.590  1.00  0.00    -0.002 A 
HETATM   17  N1  UNL     1     -10.272   3.222  -8.613  1.00  0.00    -0.368 N 
HETATM   18  C2  UNL     1     -11.515   2.887  -8.990  1.00  0.00     0.016 A 
ATOM     19  H1  UNL     1     -10.028   4.092  -8.141  1.00  0.00     0.165 HD
HETATM   20  C1  UNL     1     -12.777   3.647  -8.828  1.00  0.00     0.069 C 
HETATM   21  C22 UNL     1     -12.324   0.784 -10.167  1.00  0.00     0.016 A 
HETATM   22  C21 UNL     1     -11.929  -0.435 -10.703  1.00  0.00     0.031 A 
ENDBRANCH  10  12
ENDBRANCH   1  10
BRANCH   4  23
HETATM   23  N4  UNL     1      -7.548  -2.976 -14.667  1.00  0.00    -0.380 NA
BRANCH  23  24
HETATM   24  C9  UNL     1      -6.294  -3.190 -15.068  1.00  0.00     0.223 C 
BRANCH  24  25
HETATM   25  C10 UNL     1      -5.751  -2.199 -16.065  1.00  0.00     0.103 A 
HETATM   26  C11 UNL     1      -4.491  -1.671 -16.072  1.00  0.00     0.041 A 
HETATM   27  C12 UNL     1      -4.433  -0.808 -17.165  1.00  0.00     0.027 A 
HETATM   28  C13 UNL     1      -5.677  -0.871 -17.756  1.00  0.00     0.142 A 
HETATM   29  O1  UNL     1      -6.425  -1.712 -17.063  1.00  0.00    -0.320 OA
ENDBRANCH  24  25
ENDBRANCH  23  24
ENDBRANCH   4  23
BRANCH   7  30
HETATM   30  N6  UNL     1     -12.034  -2.508 -15.464  1.00  0.00    -0.191 N 
ATOM     31  H6  UNL     1     -12.189  -3.323 -16.057  1.00  0.00     0.184 HD
BRANCH  30  32
HETATM   32  C15 UNL     1     -12.965  -1.470 -15.555  1.00  0.00     0.049 A 
HETATM   33  C16 UNL     1     -12.579  -0.229 -16.014  1.00  0.00     0.030 A 
HETATM   34  C17 UNL     1     -13.476   0.827 -16.117  1.00  0.00     0.002 A 
HETATM   35  C18 UNL     1     -14.779   0.639 -15.756  1.00  0.00     0.000 A 
HETATM   36  C19 UNL     1     -15.205  -0.595 -15.290  1.00  0.00     0.002 A 
HETATM   37  C20 UNL     1     -14.283  -1.640 -15.195  1.00  0.00     0.030 A 
ENDBRANCH  30  32
ENDBRANCH   7  30
TORSDOF 7
ENDMDL
MODEL 5
REMARK VINA RESULT: -9.145592772      3.097      8.408
REMARK  7 active torsions:
REMARK  status: ('A' for Active; 'I' for Inactive)
REMARK    1  A    between atoms: C6_8  and  N2_9 
REMARK    2  A    between atoms: N2_9  and  C7_11 
REMARK    3  A    between atoms: C8_14  and  N4_15 
REMARK    4  A    between atoms: N4_15  and  C9_16 
REMARK    5  A    between atoms: C9_16  and  C10_17 
REMARK    6  A    between atoms: C14_24  and  N6_25 
REMARK    7  A    between atoms: N6_25  and  C15_27 
ROOT
HETATM    1  C7  UNL     1      -9.227  -2.963 -12.119  1.00  0.00     0.700 A 
HETATM    2  N3  UNL     1      -8.053  -2.755 -12.735  1.00  0.00    -0.148 N 
ATOM      3  H3  UNL     1      -7.831  -3.312 -13.559  1.00  0.00     0.188 HD
HETATM    4  C8  UNL     1      -7.138  -1.829 -12.308  1.00  0.00     0.287 A 
HETATM    5  N5  UNL     1      -7.504  -1.116 -11.194  1.00  0.00    -0.148 N 
ATOM      6  H5  UNL     1      -6.856  -0.414 -10.838  1.00  0.00     0.188 HD
HETATM    7  C14 UNL     1      -8.659  -1.291 -10.552  1.00  0.00     0.700 A 
HETATM    8  N7  UNL     1      -9.497  -2.226 -11.044  1.00  0.00    -0.022 N 
ATOM      9  H7  UNL     1     -10.386  -2.376 -10.567  1.00  0.00     0.203 HD
ENDROOT
BRANCH   1  10
HETATM   10  N2  UNL     1     -10.009  -3.864 -12.612  1.00  0.00    -0.191 N 
ATOM     11  H2  UNL     1     -10.995  -3.837 -12.350  1.00  0.00     0.184 HD
BRANCH  10  12
HETATM   12  C6  UNL     1      -9.587  -4.880 -13.487  1.00  0.00     0.050 A 
HETATM   13  C5  UNL     1      -8.915  -6.021 -13.101  1.00  0.00     0.043 A 
HETATM   14  C4  UNL     1      -8.520  -6.997 -14.020  1.00  0.00    -0.006 A 
HETATM   15  C3  UNL     1      -7.853  -8.200 -13.891  1.00  0.00     0.100 A 
HETATM   16  C23 UNL     1      -8.796  -6.842 -15.357  1.00  0.00    -0.002 A 
HETATM   17  N1  UNL     1      -7.740  -8.735 -15.119  1.00  0.00    -0.368 N 
HETATM   18  C2  UNL     1      -8.299  -7.945 -16.047  1.00  0.00     0.016 A 
ATOM     19  H1  UNL     1      -7.287  -9.627 -15.319  1.00  0.00     0.165 HD
HETATM   20  C1  UNL     1      -8.398  -8.150 -17.512  1.00  0.00     0.069 C 
HETATM   21  C22 UNL     1      -9.466  -5.705 -15.757  1.00  0.00     0.016 A 
HETATM   22  C21 UNL     1      -9.853  -4.743 -14.833  1.00  0.00     0.031 A 
ENDBRANCH  10  12
ENDBRANCH   1  10
BRANCH   4  23
HETATM   23  N4  UNL     1      -6.111  -1.691 -12.899  1.00  0.00    -0.380 NA
BRANCH  23  24
HETATM   24  C9  UNL     1      -4.967  -1.540 -13.569  1.00  0.00     0.223 C 
BRANCH  24  25
HETATM   25  C10 UNL     1      -5.075  -1.634 -15.070  1.00  0.00     0.103 A 
HETATM   26  C11 UNL     1      -4.138  -1.219 -15.973  1.00  0.00     0.041 A 
HETATM   27  C12 UNL     1      -4.657  -1.500 -17.235  1.00  0.00     0.027 A 
HETATM   28  C13 UNL     1      -5.891  -2.074 -17.011  1.00  0.00     0.142 A 
HETATM   29  O1  UNL     1      -6.093  -2.131 -15.706  1.00  0.00    -0.320 OA
ENDBRANCH  24  25
ENDBRANCH  23  24
ENDBRANCH   4  23
BRANCH   7  30
HETATM   30  N6  UNL     1      -9.009  -0.634  -9.514  1.00  0.00    -0.191 N 
ATOM     31  H6  UNL     1      -8.724  -1.009  -8.609  1.00  0.00     0.184 HD
BRANCH  30  32
HETATM   32  C15 UNL     1      -9.747   0.553  -9.507  1.00  0.00     0.049 A 
HETATM   33  C16 UNL     1      -9.213   1.705 -10.040  1.00  0.00     0.030 A 
HETATM   34  C17 UNL     1      -9.917   2.903 -10.050  1.00  0.00     0.002 A 
HETATM   35  C18 UNL     1     -11.174   2.948  -9.519  1.00  0.00     0.000 A 
HETATM   36  C19 UNL     1     -11.745   1.809  -8.975  1.00  0.00     0.002 A 
HETATM   37  C20 UNL     1     -11.016   0.617  -8.976  1.00  0.00     0.030 A 
ENDBRANCH  30  32
ENDBRANCH   7  30
TORSDOF 7
ENDMDL
