MODEL 1
REMARK VINA RESULT: -10.079418327      0.000      0.000
REMARK  10 active torsions:
REMARK  status: ('A' for Active; 'I' for Inactive)
REMARK    1  A    between atoms: N1_1  and  C1_4 
REMARK    2  A    between atoms: C2_7  and  N3_8 
REMARK    3  A    between atoms: C3_13  and  N5_14 
REMARK    4  A    between atoms: N5_14  and  C4_16 
REMARK    5  A    between atoms: C7_19  and  C8_20 
REMARK       I    between atoms: C8_20  and  N6_22 
REMARK    6  A    between atoms: N6_22  and  C9_24 
REMARK    7  A    between atoms: C12_27  and  O2_28 
REMARK    8  A    between atoms: O2_28  and  C13_29 
REMARK    9  A    between atoms: C16_32  and  N7_33 
REMARK       I    between atoms: N7_33  and  C17_35 
REMARK   10  A    between atoms: C17_35  and  C18_37 
ROOT
HETATM    1  C8  UNL     1      -9.108 -24.729 -15.957  1.00  0.00     0.256 C 
HETATM    2  O1  UNL     1      -9.074 -25.303 -14.848  1.00  0.00    -0.267 OA
HETATM    3  N6  UNL     1      -8.516 -25.198 -17.143  1.00  0.00    -0.323 N 
ATOM      4  H6  UNL     1      -8.607 -24.638 -17.991  1.00  0.00     0.169 HD
ENDROOT
BRANCH   1   5
HETATM    5  C7  UNL     1      -9.841 -23.454 -15.979  1.00  0.00     0.032 A 
HETATM    6  C6  UNL     1     -10.161 -22.869 -14.783  1.00  0.00     0.019 A 
HETATM    7  C5  UNL     1     -10.846 -21.660 -14.812  1.00  0.00     0.031 A 
HETATM    8  C4  UNL     1     -11.187 -21.079 -16.014  1.00  0.00     0.049 A 
HETATM    9  C27 UNL     1     -10.871 -21.656 -17.230  1.00  0.00     0.031 A 
HETATM   10  C26 UNL     1     -10.193 -22.854 -17.192  1.00  0.00     0.019 A 
BRANCH   8  11
HETATM   11  N5  UNL     1     -11.889 -19.837 -16.005  1.00  0.00    -0.191 N 
ATOM     12  H5  UNL     1     -11.580 -19.091 -16.628  1.00  0.00     0.184 HD
BRANCH  11  13
HETATM   13  C3  UNL     1     -12.901 -19.628 -15.236  1.00  0.00     0.711 A 
HETATM   14  N4  UNL     1     -14.091 -20.152 -15.533  1.00  0.00    -0.021 N 
HETATM   15  C2  UNL     1     -15.188 -19.981 -14.785  1.00  0.00     0.705 A 
ATOM     16  H4  UNL     1     -14.169 -20.715 -16.379  1.00  0.00     0.203 HD
HETATM   17  N2  UNL     1     -15.069 -19.236 -13.674  1.00  0.00    -0.022 N 
HETATM   18  C1  UNL     1     -13.895 -18.681 -13.318  1.00  0.00     0.705 A 
ATOM     19  H2  UNL     1     -15.888 -19.089 -13.083  1.00  0.00     0.203 HD
HETATM   20  N8  UNL     1     -12.812 -18.887 -14.116  1.00  0.00    -0.021 N 
ATOM     21  H8  UNL     1     -11.917 -18.472 -13.860  1.00  0.00     0.203 HD
BRANCH  15  22
HETATM   22  N3  UNL     1     -16.294 -20.506 -15.120  1.00  0.00    -0.234 N 
ATOM     23  H32 UNL     1     -16.614 -21.374 -14.690  1.00  0.00     0.174 HD
ATOM     24  H31 UNL     1     -16.896 -20.082 -15.826  1.00  0.00     0.174 HD
ENDBRANCH  15  22
BRANCH  18  25
HETATM   25  N1  UNL     1     -13.821 -17.969 -12.239  1.00  0.00    -0.234 N 
ATOM     26  H12 UNL     1     -13.171 -17.189 -12.154  1.00  0.00     0.174 HD
ATOM     27  H11 UNL     1     -14.426 -18.187 -11.447  1.00  0.00     0.174 HD
ENDBRANCH  18  25
ENDBRANCH  11  13
ENDBRANCH   8  11
ENDBRANCH   1   5
BRANCH   3  28
HETATM   28  C9  UNL     1      -7.802 -26.414 -17.204  1.00  0.00     0.035 A 
HETATM   29  C10 UNL     1      -8.325 -27.654 -17.442  1.00  0.00     0.032 A 
HETATM   30  C11 UNL     1      -7.535 -28.812 -17.463  1.00  0.00     0.039 A 
HETATM   31  C12 UNL     1      -6.189 -28.755 -17.242  1.00  0.00     0.076 A 
HETATM   32  C24 UNL     1      -5.632 -27.516 -16.999  1.00  0.00     0.039 A 
HETATM   33  C25 UNL     1      -6.409 -26.398 -16.982  1.00  0.00     0.032 A 
BRANCH  31  34
HETATM   34  O2  UNL     1      -5.375 -29.902 -17.257  1.00  0.00    -0.311 OA
BRANCH  34  35
HETATM   35  C13 UNL     1      -5.083 -30.443 -15.991  1.00  0.00     0.076 A 
HETATM   36  C14 UNL     1      -3.855 -30.958 -15.706  1.00  0.00     0.039 A 
HETATM   37  C15 UNL     1      -3.595 -31.488 -14.442  1.00  0.00     0.032 A 
HETATM   38  C16 UNL     1      -4.573 -31.495 -13.472  1.00  0.00     0.035 A 
HETATM   39  C22 UNL     1      -5.815 -30.964 -13.788  1.00  0.00     0.032 A 
HETATM   40  C23 UNL     1      -6.061 -30.450 -15.025  1.00  0.00     0.039 A 
BRANCH  38  41
HETATM   41  N7  UNL     1      -4.400 -31.990 -12.165  1.00  0.00    -0.321 N 
HETATM   42  C17 UNL     1      -4.688 -33.268 -11.668  1.00  0.00     0.279 C 
HETATM   43  O3  UNL     1      -5.158 -34.161 -12.399  1.00  0.00    -0.265 OA
ATOM     44  H7  UNL     1      -4.015 -31.329 -11.490  1.00  0.00     0.169 HD
BRANCH  42  45
HETATM   45  C18 UNL     1      -4.424 -33.567 -10.230  1.00  0.00     0.142 A 
HETATM   46  C19 UNL     1      -5.351 -33.462  -9.224  1.00  0.00     0.045 A 
HETATM   47  C20 UNL     1      -4.680 -33.833  -8.060  1.00  0.00     0.027 A 
HETATM   48  C21 UNL     1      -3.393 -34.137  -8.435  1.00  0.00     0.143 A 
HETATM   49  O4  UNL     1      -3.295 -33.962  -9.729  1.00  0.00    -0.317 OA
ENDBRANCH  42  45
ENDBRANCH  38  41
ENDBRANCH  34  35
ENDBRANCH  31  34
ENDBRANCH   3  28
TORSDOF 10
ENDMDL
MODEL 2
REMARK VINA RESULT: -10.040911464      0.048      1.273
REMARK  10 active torsions:
REMARK  status: ('A' for Active; 'I' for Inactive)
REMARK    1  A    between atoms: N1_1  and  C1_4 
REMARK    2  A    between atoms: C2_7  and  N3_8 
REMARK    3  A    between atoms: C3_13  and  N5_14 
REMARK    4  A    between atoms: N5_14  and  C4_16 
REMARK    5  A    between atoms: C7_19  and  C8_20 
REMARK       I    between atoms: C8_20  and  N6_22 
REMARK    6  A    between atoms: N6_22  and  C9_24 
REMARK    7  A    between atoms: C12_27  and  O2_28 
REMARK    8  A    between atoms: O2_28  and  C13_29 
REMARK    9  A    between atoms: C16_32  and  N7_33 
REMARK       I    between atoms: N7_33  and  C17_35 
REMARK   10  A    between atoms: C17_35  and  C18_37 
ROOT
HETATM    1  C8  UNL     1      -9.084 -24.737 -15.949  1.00  0.00     0.256 C 
HETATM    2  O1  UNL     1      -9.032 -25.307 -14.838  1.00  0.00    -0.267 OA
HETATM    3  N6  UNL     1      -8.510 -25.209 -17.142  1.00  0.00    -0.323 N 
ATOM      4  H6  UNL     1      -8.615 -24.652 -17.990  1.00  0.00     0.169 HD
ENDROOT
BRANCH   1   5
HETATM    5  C7  UNL     1      -9.819 -23.462 -15.963  1.00  0.00     0.032 A 
HETATM    6  C6  UNL     1     -10.126 -22.876 -14.765  1.00  0.00     0.019 A 
HETATM    7  C5  UNL     1     -10.813 -21.669 -14.788  1.00  0.00     0.031 A 
HETATM    8  C4  UNL     1     -11.169 -21.090 -15.986  1.00  0.00     0.049 A 
HETATM    9  C27 UNL     1     -10.867 -21.669 -17.205  1.00  0.00     0.031 A 
HETATM   10  C26 UNL     1     -10.187 -22.865 -17.173  1.00  0.00     0.019 A 
BRANCH   8  11
HETATM   11  N5  UNL     1     -11.873 -19.849 -15.971  1.00  0.00    -0.191 N 
ATOM     12  H5  UNL     1     -11.537 -19.084 -16.555  1.00  0.00     0.184 HD
BRANCH  11  13
HETATM   13  C3  UNL     1     -12.920 -19.665 -15.243  1.00  0.00     0.711 A 
HETATM   14  N4  UNL     1     -12.855 -18.902 -14.152  1.00  0.00    -0.021 N 
HETATM   15  C2  UNL     1     -13.897 -18.662 -13.345  1.00  0.00     0.705 A 
ATOM     16  H4  UNL     1     -11.959 -18.475 -13.918  1.00  0.00     0.203 HD
HETATM   17  N2  UNL     1     -15.070 -19.231 -13.667  1.00  0.00    -0.022 N 
HETATM   18  C1  UNL     1     -15.202 -20.011 -14.756  1.00  0.00     0.705 A 
ATOM     19  H2  UNL     1     -15.883 -19.066 -13.072  1.00  0.00     0.203 HD
HETATM   20  N8  UNL     1     -14.110 -20.221 -15.539  1.00  0.00    -0.021 N 
ATOM     21  H8  UNL     1     -14.194 -20.810 -16.367  1.00  0.00     0.203 HD
BRANCH  15  22
HETATM   22  N3  UNL     1     -13.772 -17.926 -12.320  1.00  0.00    -0.234 N 
ATOM     23  H32 UNL     1     -13.565 -18.330 -11.406  1.00  0.00     0.174 HD
ATOM     24  H31 UNL     1     -13.873 -16.912 -12.372  1.00  0.00     0.174 HD
ENDBRANCH  15  22
BRANCH  18  25
HETATM   25  N1  UNL     1     -16.350 -20.541 -15.032  1.00  0.00    -0.234 N 
ATOM     26  H12 UNL     1     -16.866 -20.296 -15.876  1.00  0.00     0.174 HD
ATOM     27  H11 UNL     1     -16.759 -21.224 -14.394  1.00  0.00     0.174 HD
ENDBRANCH  18  25
ENDBRANCH  11  13
ENDBRANCH   8  11
ENDBRANCH   1   5
BRANCH   3  28
HETATM   28  C9  UNL     1      -7.795 -26.424 -17.210  1.00  0.00     0.035 A 
HETATM   29  C10 UNL     1      -8.308 -27.654 -17.512  1.00  0.00     0.032 A 
HETATM   30  C11 UNL     1      -7.518 -28.813 -17.533  1.00  0.00     0.039 A 
HETATM   31  C12 UNL     1      -6.184 -28.767 -17.250  1.00  0.00     0.076 A 
HETATM   32  C24 UNL     1      -5.638 -27.537 -16.943  1.00  0.00     0.039 A 
HETATM   33  C25 UNL     1      -6.414 -26.418 -16.924  1.00  0.00     0.032 A 
BRANCH  31  34
HETATM   34  O2  UNL     1      -5.371 -29.914 -17.265  1.00  0.00    -0.311 OA
BRANCH  34  35
HETATM   35  C13 UNL     1      -5.078 -30.455 -15.999  1.00  0.00     0.076 A 
HETATM   36  C14 UNL     1      -3.853 -30.975 -15.716  1.00  0.00     0.039 A 
HETATM   37  C15 UNL     1      -3.591 -31.505 -14.453  1.00  0.00     0.032 A 
HETATM   38  C16 UNL     1      -4.568 -31.506 -13.480  1.00  0.00     0.035 A 
HETATM   39  C22 UNL     1      -5.808 -30.970 -13.793  1.00  0.00     0.032 A 
HETATM   40  C23 UNL     1      -6.055 -30.456 -15.031  1.00  0.00     0.039 A 
BRANCH  38  41
HETATM   41  N7  UNL     1      -4.394 -32.000 -12.173  1.00  0.00    -0.321 N 
HETATM   42  C17 UNL     1      -4.741 -33.256 -11.658  1.00  0.00     0.279 C 
HETATM   43  O3  UNL     1      -5.276 -34.127 -12.371  1.00  0.00    -0.265 OA
ATOM     44  H7  UNL     1      -3.958 -31.356 -11.512  1.00  0.00     0.169 HD
BRANCH  42  45
HETATM   45  C18 UNL     1      -4.463 -33.559 -10.224  1.00  0.00     0.142 A 
HETATM   46  C19 UNL     1      -5.380 -33.457  -9.209  1.00  0.00     0.045 A 
HETATM   47  C20 UNL     1      -4.697 -33.831  -8.052  1.00  0.00     0.027 A 
HETATM   48  C21 UNL     1      -3.413 -34.131  -8.441  1.00  0.00     0.143 A 
HETATM   49  O4  UNL     1      -3.329 -33.953  -9.735  1.00  0.00    -0.317 OA
ENDBRANCH  42  45
ENDBRANCH  38  41
ENDBRANCH  34  35
ENDBRANCH  31  34
ENDBRANCH   3  28
TORSDOF 10
ENDMDL
MODEL 3
REMARK VINA RESULT: -9.666551523      1.135      1.679
REMARK  10 active torsions:
REMARK  status: ('A' for Active; 'I' for Inactive)
REMARK    1  A    between atoms: N1_1  and  C1_4 
REMARK    2  A    between atoms: C2_7  and  N3_8 
REMARK    3  A    between atoms: C3_13  and  N5_14 
REMARK    4  A    between atoms: N5_14  and  C4_16 
REMARK    5  A    between atoms: C7_19  and  C8_20 
REMARK       I    between atoms: C8_20  and  N6_22 
REMARK    6  A    between atoms: N6_22  and  C9_24 
REMARK    7  A    between atoms: C12_27  and  O2_28 
REMARK    8  A    between atoms: O2_28  and  C13_29 
REMARK    9  A    between atoms: C16_32  and  N7_33 
REMARK       I    between atoms: N7_33  and  C17_35 
REMARK   10  A    between atoms: C17_35  and  C18_37 
ROOT
HETATM    1  C8  UNL     1      -9.010 -24.769 -15.806  1.00  0.00     0.256 C 
HETATM    2  O1  UNL     1      -8.896 -25.274 -14.668  1.00  0.00    -0.267 OA
HETATM    3  N6  UNL     1      -8.484 -25.300 -16.996  1.00  0.00    -0.323 N 
ATOM      4  H6  UNL     1      -8.638 -24.795 -17.869  1.00  0.00     0.169 HD
ENDROOT
BRANCH   1   5
HETATM    5  C7  UNL     1      -9.768 -23.509 -15.857  1.00  0.00     0.032 A 
HETATM    6  C6  UNL     1     -10.082 -22.990 -17.084  1.00  0.00     0.019 A 
HETATM    7  C5  UNL     1     -10.805 -21.805 -17.125  1.00  0.00     0.031 A 
HETATM    8  C4  UNL     1     -11.190 -21.182 -15.958  1.00  0.00     0.049 A 
HETATM    9  C27 UNL     1     -10.882 -21.693 -14.710  1.00  0.00     0.031 A 
HETATM   10  C26 UNL     1     -10.165 -22.867 -14.680  1.00  0.00     0.019 A 
BRANCH   8  11
HETATM   11  N5  UNL     1     -11.934 -19.966 -16.038  1.00  0.00    -0.191 N 
ATOM     12  H5  UNL     1     -11.666 -19.268 -16.731  1.00  0.00     0.184 HD
BRANCH  11  13
HETATM   13  C3  UNL     1     -12.933 -19.723 -15.262  1.00  0.00     0.711 A 
HETATM   14  N4  UNL     1     -14.126 -20.264 -15.512  1.00  0.00    -0.021 N 
HETATM   15  C2  UNL     1     -15.211 -20.060 -14.754  1.00  0.00     0.705 A 
ATOM     16  H4  UNL     1     -14.217 -20.869 -16.328  1.00  0.00     0.203 HD
HETATM   17  N2  UNL     1     -15.075 -19.261 -13.683  1.00  0.00    -0.022 N 
HETATM   18  C1  UNL     1     -13.898 -18.685 -13.376  1.00  0.00     0.705 A 
ATOM     19  H2  UNL     1     -15.884 -19.087 -13.087  1.00  0.00     0.203 HD
HETATM   20  N8  UNL     1     -12.828 -18.927 -14.182  1.00  0.00    -0.021 N 
ATOM     21  H8  UNL     1     -11.930 -18.497 -13.962  1.00  0.00     0.203 HD
BRANCH  15  22
HETATM   22  N3  UNL     1     -16.320 -20.604 -15.044  1.00  0.00    -0.234 N 
ATOM     23  H32 UNL     1     -16.663 -21.408 -14.519  1.00  0.00     0.174 HD
ATOM     24  H31 UNL     1     -16.903 -20.259 -15.807  1.00  0.00     0.174 HD
ENDBRANCH  15  22
BRANCH  18  25
HETATM   25  N1  UNL     1     -13.808 -17.921 -12.335  1.00  0.00    -0.234 N 
ATOM     26  H12 UNL     1     -13.880 -16.906 -12.405  1.00  0.00     0.174 HD
ATOM     27  H11 UNL     1     -13.662 -18.335 -11.415  1.00  0.00     0.174 HD
ENDBRANCH  18  25
ENDBRANCH  11  13
ENDBRANCH   8  11
ENDBRANCH   1   5
BRANCH   3  28
HETATM   28  C9  UNL     1      -7.751 -26.506 -17.029  1.00  0.00     0.035 A 
HETATM   29  C10 UNL     1      -6.394 -26.630 -17.128  1.00  0.00     0.032 A 
HETATM   30  C11 UNL     1      -5.755 -27.878 -17.176  1.00  0.00     0.039 A 
HETATM   31  C12 UNL     1      -6.467 -29.041 -17.125  1.00  0.00     0.076 A 
HETATM   32  C24 UNL     1      -7.840 -28.946 -17.025  1.00  0.00     0.039 A 
HETATM   33  C25 UNL     1      -8.450 -27.730 -16.979  1.00  0.00     0.032 A 
BRANCH  31  34
HETATM   34  O2  UNL     1      -5.850 -30.304 -17.172  1.00  0.00    -0.311 OA
BRANCH  34  35
HETATM   35  C13 UNL     1      -5.863 -31.019 -15.959  1.00  0.00     0.076 A 
HETATM   36  C14 UNL     1      -6.436 -32.250 -15.868  1.00  0.00     0.039 A 
HETATM   37  C15 UNL     1      -6.434 -32.936 -14.653  1.00  0.00     0.032 A 
HETATM   38  C16 UNL     1      -5.852 -32.376 -13.536  1.00  0.00     0.035 A 
HETATM   39  C22 UNL     1      -5.274 -31.121 -13.656  1.00  0.00     0.032 A 
HETATM   40  C23 UNL     1      -5.282 -30.459 -14.846  1.00  0.00     0.039 A 
BRANCH  38  41
HETATM   41  N7  UNL     1      -5.784 -32.997 -12.274  1.00  0.00    -0.321 N 
HETATM   42  C17 UNL     1      -6.623 -32.822 -11.166  1.00  0.00     0.279 C 
HETATM   43  O3  UNL     1      -7.592 -32.038 -11.200  1.00  0.00    -0.265 OA
ATOM     44  H7  UNL     1      -5.021 -33.662 -12.150  1.00  0.00     0.169 HD
BRANCH  42  45
HETATM   45  C18 UNL     1      -6.352 -33.591  -9.917  1.00  0.00     0.142 A 
HETATM   46  C19 UNL     1      -6.617 -33.144  -8.647  1.00  0.00     0.045 A 
HETATM   47  C20 UNL     1      -6.209 -34.173  -7.799  1.00  0.00     0.027 A 
HETATM   48  C21 UNL     1      -5.723 -35.172  -8.608  1.00  0.00     0.143 A 
HETATM   49  O4  UNL     1      -5.831 -34.776  -9.851  1.00  0.00    -0.317 OA
ENDBRANCH  42  45
ENDBRANCH  38  41
ENDBRANCH  34  35
ENDBRANCH  31  34
ENDBRANCH   3  28
TORSDOF 10
ENDMDL
MODEL 4
REMARK VINA RESULT: -9.573182058      6.146     15.156
REMARK  10 active torsions:
REMARK  status: ('A' for Active; 'I' for Inactive)
REMARK    1  A    between atoms: N1_1  and  C1_4 
REMARK    2  A    between atoms: C2_7  and  N3_8 
REMARK    3  A    between atoms: C3_13  and  N5_14 
REMARK    4  A    between atoms: N5_14  and  C4_16 
REMARK    5  A    between atoms: C7_19  and  C8_20 
REMARK       I    between atoms: C8_20  and  N6_22 
REMARK    6  A    between atoms: N6_22  and  C9_24 
REMARK    7  A    between atoms: C12_27  and  O2_28 
REMARK    8  A    between atoms: O2_28  and  C13_29 
REMARK    9  A    between atoms: C16_32  and  N7_33 
REMARK       I    between atoms: N7_33  and  C17_35 
REMARK   10  A    between atoms: C17_35  and  C18_37 
ROOT
HETATM    1  C8  UNL     1      -9.322 -22.237 -13.405  1.00  0.00     0.256 C 
HETATM    2  O1  UNL     1      -9.761 -21.487 -14.303  1.00  0.00    -0.267 OA
HETATM    3  N6  UNL     1      -8.963 -21.839 -12.106  1.00  0.00    -0.323 N 
ATOM      4  H6  UNL     1      -8.611 -22.543 -11.457  1.00  0.00     0.169 HD
ENDROOT
BRANCH   1   5
HETATM    5  C7  UNL     1      -9.185 -23.652 -13.785  1.00  0.00     0.032 A 
HETATM    6  C6  UNL     1      -9.418 -24.000 -15.088  1.00  0.00     0.019 A 
HETATM    7  C5  UNL     1      -9.278 -25.336 -15.440  1.00  0.00     0.031 A 
HETATM    8  C4  UNL     1      -8.915 -26.273 -14.497  1.00  0.00     0.049 A 
HETATM    9  C27 UNL     1      -8.675 -25.938 -13.177  1.00  0.00     0.031 A 
HETATM   10  C26 UNL     1      -8.817 -24.612 -12.837  1.00  0.00     0.019 A 
BRANCH   8  11
HETATM   11  N5  UNL     1      -8.779 -27.636 -14.896  1.00  0.00    -0.191 N 
ATOM     12  H5  UNL     1      -9.197 -28.364 -14.316  1.00  0.00     0.184 HD
BRANCH  11  13
HETATM   13  C3  UNL     1      -8.146 -27.977 -15.965  1.00  0.00     0.711 A 
HETATM   14  N4  UNL     1      -6.866 -27.641 -16.125  1.00  0.00    -0.021 N 
HETATM   15  C2  UNL     1      -6.141 -27.958 -17.205  1.00  0.00     0.705 A 
ATOM     16  H4  UNL     1      -6.413 -27.111 -15.381  1.00  0.00     0.203 HD
HETATM   17  N2  UNL     1      -6.752 -28.657 -18.176  1.00  0.00    -0.022 N 
HETATM   18  C1  UNL     1      -8.042 -29.027 -18.074  1.00  0.00     0.705 A 
ATOM     19  H2  UNL     1      -6.225 -28.913 -19.011  1.00  0.00     0.203 HD
HETATM   20  N8  UNL     1      -8.731 -28.677 -16.954  1.00  0.00    -0.021 N 
ATOM     21  H8  UNL     1      -9.709 -28.951 -16.864  1.00  0.00     0.203 HD
BRANCH  15  22
HETATM   22  N3  UNL     1      -4.925 -27.609 -17.299  1.00  0.00    -0.234 N 
ATOM     23  H32 UNL     1      -4.572 -26.797 -16.792  1.00  0.00     0.174 HD
ATOM     24  H31 UNL     1      -4.263 -28.123 -17.880  1.00  0.00     0.174 HD
ENDBRANCH  15  22
BRANCH  18  25
HETATM   25  N1  UNL     1      -8.595 -29.700 -19.032  1.00  0.00    -0.234 N 
ATOM     26  H12 UNL     1      -8.498 -30.712 -19.103  1.00  0.00     0.174 HD
ATOM     27  H11 UNL     1      -9.144 -29.214 -19.741  1.00  0.00     0.174 HD
ENDBRANCH  18  25
ENDBRANCH  11  13
ENDBRANCH   8  11
ENDBRANCH   1   5
BRANCH   3  28
HETATM   28  C9  UNL     1      -9.072 -20.503 -11.665  1.00  0.00     0.035 A 
HETATM   29  C10 UNL     1     -10.228 -19.799 -11.480  1.00  0.00     0.032 A 
HETATM   30  C11 UNL     1     -10.234 -18.461 -11.058  1.00  0.00     0.039 A 
HETATM   31  C12 UNL     1      -9.071 -17.791 -10.808  1.00  0.00     0.076 A 
HETATM   32  C24 UNL     1      -7.888 -18.478 -10.985  1.00  0.00     0.039 A 
HETATM   33  C25 UNL     1      -7.893 -19.776 -11.396  1.00  0.00     0.032 A 
BRANCH  31  34
HETATM   34  O2  UNL     1      -9.051 -16.451 -10.384  1.00  0.00    -0.311 OA
BRANCH  34  35
HETATM   35  C13 UNL     1     -10.318 -15.870 -10.181  1.00  0.00     0.076 A 
HETATM   36  C14 UNL     1     -11.066 -15.419 -11.225  1.00  0.00     0.039 A 
HETATM   37  C15 UNL     1     -12.317 -14.848 -10.995  1.00  0.00     0.032 A 
HETATM   38  C16 UNL     1     -12.808 -14.734  -9.712  1.00  0.00     0.035 A 
HETATM   39  C22 UNL     1     -12.025 -15.201  -8.665  1.00  0.00     0.032 A 
HETATM   40  C23 UNL     1     -10.804 -15.756  -8.900  1.00  0.00     0.039 A 
BRANCH  38  41
HETATM   41  N7  UNL     1     -14.063 -14.190  -9.381  1.00  0.00    -0.321 N 
HETATM   42  C17 UNL     1     -14.508 -12.868  -9.515  1.00  0.00     0.279 C 
HETATM   43  O3  UNL     1     -13.771 -11.978  -9.982  1.00  0.00    -0.265 OA
ATOM     44  H7  UNL     1     -14.740 -14.846  -8.991  1.00  0.00     0.169 HD
BRANCH  42  45
HETATM   45  C18 UNL     1     -15.893 -12.517  -9.087  1.00  0.00     0.142 A 
HETATM   46  C19 UNL     1     -16.343 -12.536  -7.791  1.00  0.00     0.045 A 
HETATM   47  C20 UNL     1     -17.680 -12.144  -7.857  1.00  0.00     0.027 A 
HETATM   48  C21 UNL     1     -17.952 -11.915  -9.184  1.00  0.00     0.143 A 
HETATM   49  O4  UNL     1     -16.861 -12.151  -9.869  1.00  0.00    -0.317 OA
ENDBRANCH  42  45
ENDBRANCH  38  41
ENDBRANCH  34  35
ENDBRANCH  31  34
ENDBRANCH   3  28
TORSDOF 10
ENDMDL
MODEL 5
REMARK VINA RESULT: -9.562514187      4.178     13.308
REMARK  10 active torsions:
REMARK  status: ('A' for Active; 'I' for Inactive)
REMARK    1  A    between atoms: N1_1  and  C1_4 
REMARK    2  A    between atoms: C2_7  and  N3_8 
REMARK    3  A    between atoms: C3_13  and  N5_14 
REMARK    4  A    between atoms: N5_14  and  C4_16 
REMARK    5  A    between atoms: C7_19  and  C8_20 
REMARK       I    between atoms: C8_20  and  N6_22 
REMARK    6  A    between atoms: N6_22  and  C9_24 
REMARK    7  A    between atoms: C12_27  and  O2_28 
REMARK    8  A    between atoms: O2_28  and  C13_29 
REMARK    9  A    between atoms: C16_32  and  N7_33 
REMARK       I    between atoms: N7_33  and  C17_35 
REMARK   10  A    between atoms: C17_35  and  C18_37 
ROOT
HETATM    1  C8  UNL     1      -7.132 -27.621 -17.498  1.00  0.00     0.256 C 
HETATM    2  O1  UNL     1      -8.248 -28.044 -17.868  1.00  0.00    -0.267 OA
HETATM    3  N6  UNL     1      -6.853 -26.317 -17.053  1.00  0.00    -0.323 N 
ATOM      4  H6  UNL     1      -5.898 -26.085 -16.780  1.00  0.00     0.169 HD
ENDROOT
BRANCH   1   5
HETATM    5  C7  UNL     1      -6.042 -28.608 -17.550  1.00  0.00     0.032 A 
HETATM    6  C6  UNL     1      -5.106 -28.490 -18.542  1.00  0.00     0.019 A 
HETATM    7  C5  UNL     1      -4.076 -29.422 -18.578  1.00  0.00     0.031 A 
HETATM    8  C4  UNL     1      -4.009 -30.427 -17.638  1.00  0.00     0.049 A 
HETATM    9  C27 UNL     1      -4.946 -30.560 -16.630  1.00  0.00     0.031 A 
HETATM   10  C26 UNL     1      -5.963 -29.633 -16.602  1.00  0.00     0.019 A 
BRANCH   8  11
HETATM   11  N5  UNL     1      -2.936 -31.365 -17.706  1.00  0.00    -0.191 N 
ATOM     12  H5  UNL     1      -2.836 -31.941 -18.542  1.00  0.00     0.184 HD
BRANCH  11  13
HETATM   13  C3  UNL     1      -2.088 -31.506 -16.746  1.00  0.00     0.711 A 
HETATM   14  N4  UNL     1      -1.599 -32.711 -16.453  1.00  0.00    -0.021 N 
HETATM   15  C2  UNL     1      -0.716 -32.940 -15.472  1.00  0.00     0.705 A 
ATOM     16  H4  UNL     1      -1.916 -33.505 -17.009  1.00  0.00     0.203 HD
HETATM   17  N2  UNL     1      -0.309 -31.883 -14.750  1.00  0.00    -0.022 N 
HETATM   18  C1  UNL     1      -0.765 -30.641 -14.996  1.00  0.00     0.705 A 
ATOM     19  H2  UNL     1       0.364 -32.026 -13.996  1.00  0.00     0.203 HD
HETATM   20  N8  UNL     1      -1.661 -30.467 -16.005  1.00  0.00    -0.021 N 
ATOM     21  H8  UNL     1      -2.015 -29.532 -16.203  1.00  0.00     0.203 HD
BRANCH  15  22
HETATM   22  N3  UNL     1      -0.287 -34.111 -15.242  1.00  0.00    -0.234 N 
ATOM     23  H32 UNL     1      -0.222 -34.802 -15.989  1.00  0.00     0.174 HD
ATOM     24  H31 UNL     1       0.006 -34.401 -14.309  1.00  0.00     0.174 HD
ENDBRANCH  15  22
BRANCH  18  25
HETATM   25  N1  UNL     1      -0.347 -29.649 -14.277  1.00  0.00    -0.234 N 
ATOM     26  H12 UNL     1      -0.200 -28.722 -14.674  1.00  0.00     0.174 HD
ATOM     27  H11 UNL     1      -0.158 -29.788 -13.284  1.00  0.00     0.174 HD
ENDBRANCH  18  25
ENDBRANCH  11  13
ENDBRANCH   8  11
ENDBRANCH   1   5
BRANCH   3  28
HETATM   28  C9  UNL     1      -7.846 -25.316 -16.971  1.00  0.00     0.035 A 
HETATM   29  C10 UNL     1      -8.814 -25.208 -16.012  1.00  0.00     0.032 A 
HETATM   30  C11 UNL     1      -9.774 -24.186 -16.026  1.00  0.00     0.039 A 
HETATM   31  C12 UNL     1      -9.787 -23.239 -17.010  1.00  0.00     0.076 A 
HETATM   32  C24 UNL     1      -8.821 -23.323 -17.991  1.00  0.00     0.039 A 
HETATM   33  C25 UNL     1      -7.893 -24.320 -17.968  1.00  0.00     0.032 A 
BRANCH  31  34
HETATM   34  O2  UNL     1     -10.739 -22.205 -17.046  1.00  0.00    -0.311 OA
BRANCH  34  35
HETATM   35  C13 UNL     1     -10.918 -21.515 -15.832  1.00  0.00     0.076 A 
HETATM   36  C14 UNL     1     -10.568 -22.074 -14.641  1.00  0.00     0.039 A 
HETATM   37  C15 UNL     1     -10.756 -21.367 -13.454  1.00  0.00     0.032 A 
HETATM   38  C16 UNL     1     -11.296 -20.099 -13.473  1.00  0.00     0.035 A 
HETATM   39  C22 UNL     1     -11.645 -19.552 -14.700  1.00  0.00     0.032 A 
HETATM   40  C23 UNL     1     -11.458 -20.251 -15.854  1.00  0.00     0.039 A 
BRANCH  38  41
HETATM   41  N7  UNL     1     -11.508 -19.302 -12.332  1.00  0.00    -0.321 N 
HETATM   42  C17 UNL     1     -10.561 -18.637 -11.541  1.00  0.00     0.279 C 
HETATM   43  O3  UNL     1      -9.343 -18.692 -11.798  1.00  0.00    -0.265 OA
ATOM     44  H7  UNL     1     -12.480 -19.195 -12.043  1.00  0.00     0.169 HD
BRANCH  42  45
HETATM   45  C18 UNL     1     -11.022 -17.846 -10.363  1.00  0.00     0.142 A 
HETATM   46  C19 UNL     1     -11.379 -18.380  -9.150  1.00  0.00     0.045 A 
HETATM   47  C20 UNL     1     -11.739 -17.292  -8.357  1.00  0.00     0.027 A 
HETATM   48  C21 UNL     1     -11.578 -16.173  -9.139  1.00  0.00     0.143 A 
HETATM   49  O4  UNL     1     -11.154 -16.557 -10.315  1.00  0.00    -0.317 OA
ENDBRANCH  42  45
ENDBRANCH  38  41
ENDBRANCH  34  35
ENDBRANCH  31  34
ENDBRANCH   3  28
TORSDOF 10
ENDMDL
