MODEL 1
REMARK VINA RESULT: -6.659741643      0.000      0.000
REMARK  7 active torsions:
REMARK  status: ('A' for Active; 'I' for Inactive)
REMARK    1  A    between atoms: C2_2  and  C3_3 
REMARK    2  A    between atoms: N1_6  and  C6_7 
REMARK    3  A    between atoms: C6_7  and  C8_9 
REMARK    4  A    between atoms: C8_9  and  C9_10 
REMARK    5  A    between atoms: C9_10  and  C10_11 
REMARK    6  A    between atoms: C10_11  and  N2_12 
REMARK    7  A    between atoms: C13_22  and  N5_23 
ROOT
HETATM    1  C3  UNL     1      25.694  -4.966  31.119  1.00  0.00    -0.018 A 
HETATM    2  C4  UNL     1      26.549  -6.042  30.891  1.00  0.00     0.017 A 
HETATM    3  C5  UNL     1      26.131  -7.332  30.339  1.00  0.00     0.069 C 
HETATM    4  N1  UNL     1      27.793  -5.685  31.260  1.00  0.00    -0.332 N 
HETATM    5  C11 UNL     1      27.750  -4.403  31.719  1.00  0.00     0.123 A 
HETATM    6  N3  UNL     1      28.738  -3.626  32.191  1.00  0.00    -0.338 N 
ATOM      7  H3  UNL     1      29.695  -3.974  32.248  1.00  0.00     0.168 HD
HETATM    8  C12 UNL     1      28.429  -2.370  32.588  1.00  0.00     0.183 A 
HETATM    9  N4  UNL     1      27.185  -1.881  32.528  1.00  0.00    -0.338 N 
ATOM     10  H4  UNL     1      26.996  -0.928  32.838  1.00  0.00     0.168 HD
HETATM   11  C13 UNL     1      26.185  -2.647  32.057  1.00  0.00     0.114 A 
HETATM   12  C14 UNL     1      26.453  -3.929  31.642  1.00  0.00     0.060 A 
ENDROOT
BRANCH   4  13
HETATM   13  C6  UNL     1      28.979  -6.512  31.188  1.00  0.00     0.087 C 
HETATM   14  C7  UNL     1      29.587  -6.832  32.507  1.00  0.00     0.033 C 
BRANCH  13  15
HETATM   15  C8  UNL     1      29.971  -5.989  30.177  1.00  0.00     0.027 C 
BRANCH  15  16
HETATM   16  C9  UNL     1      30.807  -7.097  29.579  1.00  0.00     0.029 C 
BRANCH  16  17
HETATM   17  C10 UNL     1      32.264  -6.943  29.896  1.00  0.00     0.230 C 
BRANCH  17  18
HETATM   18  N2  UNL     1      33.065  -8.080  29.559  1.00  0.00    -0.079 N 
ATOM     19  H23 UNL     1      33.045  -8.764  30.315  1.00  0.00     0.274 HD
ATOM     20  H22 UNL     1      32.619  -8.623  28.819  1.00  0.00     0.274 HD
ATOM     21  H21 UNL     1      34.028  -7.856  29.306  1.00  0.00     0.274 HD
ENDBRANCH  17  18
ENDBRANCH  16  17
ENDBRANCH  15  16
ENDBRANCH  13  15
ENDBRANCH   4  13
BRANCH   1  22
HETATM   22  C2  UNL     1      24.259  -4.962  30.844  1.00  0.00     0.037 C 
HETATM   23  C1  UNL     1      23.983  -4.460  29.419  1.00  0.00     0.010 C 
ENDBRANCH   1  22
BRANCH  11  24
HETATM   24  N5  UNL     1      24.990  -2.206  31.985  1.00  0.00    -0.385 N 
ATOM     25  H52 UNL     1      24.822  -1.205  32.085  1.00  0.00     0.157 HD
ATOM     26  H51 UNL     1      24.202  -2.835  31.832  1.00  0.00     0.157 HD
ENDBRANCH  11  24
TORSDOF 7
ENDMDL
MODEL 2
REMARK VINA RESULT: -6.417634720      3.003      5.257
REMARK  7 active torsions:
REMARK  status: ('A' for Active; 'I' for Inactive)
REMARK    1  A    between atoms: C2_2  and  C3_3 
REMARK    2  A    between atoms: N1_6  and  C6_7 
REMARK    3  A    between atoms: C6_7  and  C8_9 
REMARK    4  A    between atoms: C8_9  and  C9_10 
REMARK    5  A    between atoms: C9_10  and  C10_11 
REMARK    6  A    between atoms: C10_11  and  N2_12 
REMARK    7  A    between atoms: C13_22  and  N5_23 
ROOT
HETATM    1  C3  UNL     1      27.572  -1.893  32.164  1.00  0.00    -0.018 A 
HETATM    2  C4  UNL     1      27.259  -2.942  31.302  1.00  0.00     0.017 A 
HETATM    3  C5  UNL     1      27.998  -4.203  31.225  1.00  0.00     0.069 C 
HETATM    4  N1  UNL     1      26.181  -2.590  30.576  1.00  0.00    -0.332 N 
HETATM    5  C11 UNL     1      25.801  -1.339  30.956  1.00  0.00     0.123 A 
HETATM    6  N3  UNL     1      24.786  -0.579  30.516  1.00  0.00    -0.338 N 
ATOM      7  H3  UNL     1      24.158  -0.916  29.786  1.00  0.00     0.168 HD
HETATM    8  C12 UNL     1      24.618   0.646  31.066  1.00  0.00     0.183 A 
HETATM    9  N4  UNL     1      25.422   1.121  32.024  1.00  0.00    -0.338 N 
ATOM     10  H4  UNL     1      25.260   2.051  32.412  1.00  0.00     0.168 HD
HETATM   11  C13 UNL     1      26.443   0.371  32.476  1.00  0.00     0.114 A 
HETATM   12  C14 UNL     1      26.650  -0.879  31.946  1.00  0.00     0.060 A 
ENDROOT
BRANCH   4  13
HETATM   13  C6  UNL     1      25.532  -3.394  29.562  1.00  0.00     0.087 C 
HETATM   14  C7  UNL     1      25.518  -2.782  28.206  1.00  0.00     0.033 C 
BRANCH  13  15
HETATM   15  C8  UNL     1      24.179  -3.888  30.014  1.00  0.00     0.027 C 
BRANCH  15  16
HETATM   16  C9  UNL     1      24.104  -5.397  30.031  1.00  0.00     0.029 C 
BRANCH  16  17
HETATM   17  C10 UNL     1      24.850  -5.990  31.188  1.00  0.00     0.230 C 
BRANCH  17  18
HETATM   18  N2  UNL     1      25.610  -7.158  30.865  1.00  0.00    -0.079 N 
ATOM     19  H23 UNL     1      25.070  -7.999  31.063  1.00  0.00     0.274 HD
ATOM     20  H22 UNL     1      25.710  -7.248  29.853  1.00  0.00     0.274 HD
ATOM     21  H21 UNL     1      26.523  -7.205  31.319  1.00  0.00     0.274 HD
ENDBRANCH  17  18
ENDBRANCH  16  17
ENDBRANCH  15  16
ENDBRANCH  13  15
ENDBRANCH   4  13
BRANCH   1  22
HETATM   22  C2  UNL     1      28.681  -1.893  33.116  1.00  0.00     0.037 C 
HETATM   23  C1  UNL     1      28.205  -2.364  34.498  1.00  0.00     0.010 C 
ENDBRANCH   1  22
BRANCH  11  24
HETATM   24  N5  UNL     1      27.224   0.797  33.391  1.00  0.00    -0.385 N 
ATOM     25  H52 UNL     1      27.740   0.125  33.958  1.00  0.00     0.157 HD
ATOM     26  H51 UNL     1      27.339   1.795  33.567  1.00  0.00     0.157 HD
ENDBRANCH  11  24
TORSDOF 7
ENDMDL
MODEL 3
REMARK VINA RESULT: -6.268618629      0.805      1.231
REMARK  7 active torsions:
REMARK  status: ('A' for Active; 'I' for Inactive)
REMARK    1  A    between atoms: C2_2  and  C3_3 
REMARK    2  A    between atoms: N1_6  and  C6_7 
REMARK    3  A    between atoms: C6_7  and  C8_9 
REMARK    4  A    between atoms: C8_9  and  C9_10 
REMARK    5  A    between atoms: C9_10  and  C10_11 
REMARK    6  A    between atoms: C10_11  and  N2_12 
REMARK    7  A    between atoms: C13_22  and  N5_23 
ROOT
HETATM    1  C3  UNL     1      25.670  -4.861  31.215  1.00  0.00    -0.018 A 
HETATM    2  C4  UNL     1      26.584  -5.819  30.782  1.00  0.00     0.017 A 
HETATM    3  C5  UNL     1      26.219  -7.102  30.177  1.00  0.00     0.069 C 
HETATM    4  N1  UNL     1      27.827  -5.360  31.015  1.00  0.00    -0.332 N 
HETATM    5  C11 UNL     1      27.726  -4.128  31.588  1.00  0.00     0.123 A 
HETATM    6  N3  UNL     1      28.691  -3.288  31.993  1.00  0.00    -0.338 N 
ATOM      7  H3  UNL     1      29.676  -3.535  31.894  1.00  0.00     0.168 HD
HETATM    8  C12 UNL     1      28.322  -2.106  32.538  1.00  0.00     0.183 A 
HETATM    9  N4  UNL     1      27.041  -1.749  32.686  1.00  0.00    -0.338 N 
ATOM     10  H4  UNL     1      26.807  -0.848  33.102  1.00  0.00     0.168 HD
HETATM   11  C13 UNL     1      26.063  -2.581  32.284  1.00  0.00     0.114 A 
HETATM   12  C14 UNL     1      26.392  -3.792  31.725  1.00  0.00     0.060 A 
ENDROOT
BRANCH   4  13
HETATM   13  C6  UNL     1      29.065  -6.048  30.714  1.00  0.00     0.087 C 
HETATM   14  C7  UNL     1      29.249  -6.386  29.278  1.00  0.00     0.033 C 
BRANCH  13  15
HETATM   15  C8  UNL     1      29.302  -7.214  31.644  1.00  0.00     0.027 C 
BRANCH  15  16
HETATM   16  C9  UNL     1      30.716  -7.234  32.177  1.00  0.00     0.029 C 
BRANCH  16  17
HETATM   17  C10 UNL     1      31.662  -7.940  31.253  1.00  0.00     0.230 C 
BRANCH  17  18
HETATM   18  N2  UNL     1      32.528  -7.071  30.518  1.00  0.00    -0.079 N 
ATOM     19  H23 UNL     1      33.240  -6.676  31.132  1.00  0.00     0.274 HD
ATOM     20  H22 UNL     1      33.121  -7.611  29.887  1.00  0.00     0.274 HD
ATOM     21  H21 UNL     1      32.046  -6.331  30.008  1.00  0.00     0.274 HD
ENDBRANCH  17  18
ENDBRANCH  16  17
ENDBRANCH  15  16
ENDBRANCH  13  15
ENDBRANCH   4  13
BRANCH   1  22
HETATM   22  C2  UNL     1      24.217  -4.990  31.132  1.00  0.00     0.037 C 
HETATM   23  C1  UNL     1      23.708  -4.504  29.767  1.00  0.00     0.010 C 
ENDBRANCH   1  22
BRANCH  11  24
HETATM   24  N5  UNL     1      24.833  -2.266  32.409  1.00  0.00    -0.385 N 
ATOM     25  H52 UNL     1      24.532  -1.751  33.236  1.00  0.00     0.157 HD
ATOM     26  H51 UNL     1      24.146  -2.521  31.699  1.00  0.00     0.157 HD
ENDBRANCH  11  24
TORSDOF 7
ENDMDL
MODEL 4
REMARK VINA RESULT: -6.066650444      2.226      3.847
REMARK  7 active torsions:
REMARK  status: ('A' for Active; 'I' for Inactive)
REMARK    1  A    between atoms: C2_2  and  C3_3 
REMARK    2  A    between atoms: N1_6  and  C6_7 
REMARK    3  A    between atoms: C6_7  and  C8_9 
REMARK    4  A    between atoms: C8_9  and  C9_10 
REMARK    5  A    between atoms: C9_10  and  C10_11 
REMARK    6  A    between atoms: C10_11  and  N2_12 
REMARK    7  A    between atoms: C13_22  and  N5_23 
ROOT
HETATM    1  C3  UNL     1      26.884  -2.134  32.089  1.00  0.00    -0.018 A 
HETATM    2  C4  UNL     1      27.752  -3.223  32.092  1.00  0.00     0.017 A 
HETATM    3  C5  UNL     1      28.799  -3.447  33.091  1.00  0.00     0.069 C 
HETATM    4  N1  UNL     1      27.458  -4.007  31.039  1.00  0.00    -0.332 N 
HETATM    5  C11 UNL     1      26.420  -3.440  30.362  1.00  0.00     0.123 A 
HETATM    6  N3  UNL     1      25.786  -3.858  29.256  1.00  0.00    -0.338 N 
ATOM      7  H3  UNL     1      26.064  -4.721  28.787  1.00  0.00     0.168 HD
HETATM    8  C12 UNL     1      24.769  -3.104  28.777  1.00  0.00     0.183 A 
HETATM    9  N4  UNL     1      24.378  -1.967  29.365  1.00  0.00    -0.338 N 
ATOM     10  H4  UNL     1      23.607  -1.429  28.971  1.00  0.00     0.168 HD
HETATM   11  C13 UNL     1      25.003  -1.536  30.475  1.00  0.00     0.114 A 
HETATM   12  C14 UNL     1      26.041  -2.271  30.995  1.00  0.00     0.060 A 
ENDROOT
BRANCH   4  13
HETATM   13  C6  UNL     1      28.124  -5.240  30.676  1.00  0.00     0.087 C 
HETATM   14  C7  UNL     1      28.465  -5.354  29.233  1.00  0.00     0.033 C 
BRANCH  13  15
HETATM   15  C8  UNL     1      27.408  -6.451  31.224  1.00  0.00     0.027 C 
BRANCH  15  16
HETATM   16  C9  UNL     1      28.372  -7.490  31.746  1.00  0.00     0.029 C 
BRANCH  16  17
HETATM   17  C10 UNL     1      29.612  -6.875  32.322  1.00  0.00     0.230 C 
BRANCH  17  18
HETATM   18  N2  UNL     1      29.932  -7.319  33.644  1.00  0.00    -0.079 N 
ATOM     19  H23 UNL     1      29.164  -7.113  34.283  1.00  0.00     0.274 HD
ATOM     20  H22 UNL     1      29.927  -8.339  33.688  1.00  0.00     0.274 HD
ATOM     21  H21 UNL     1      30.810  -6.951  34.011  1.00  0.00     0.274 HD
ENDBRANCH  17  18
ENDBRANCH  16  17
ENDBRANCH  15  16
ENDBRANCH  13  15
ENDBRANCH   4  13
BRANCH   1  22
HETATM   22  C2  UNL     1      26.886  -1.056  33.076  1.00  0.00     0.037 C 
HETATM   23  C1  UNL     1      27.531   0.210  32.491  1.00  0.00     0.010 C 
ENDBRANCH   1  22
BRANCH  11  24
HETATM   24  N5  UNL     1      24.649  -0.458  31.058  1.00  0.00    -0.385 N 
ATOM     25  H52 UNL     1      23.930   0.126  30.632  1.00  0.00     0.157 HD
ATOM     26  H51 UNL     1      25.073  -0.169  31.940  1.00  0.00     0.157 HD
ENDBRANCH  11  24
TORSDOF 7
ENDMDL
MODEL 5
REMARK VINA RESULT: -6.016249996      1.954      3.129
REMARK  7 active torsions:
REMARK  status: ('A' for Active; 'I' for Inactive)
REMARK    1  A    between atoms: C2_2  and  C3_3 
REMARK    2  A    between atoms: N1_6  and  C6_7 
REMARK    3  A    between atoms: C6_7  and  C8_9 
REMARK    4  A    between atoms: C8_9  and  C9_10 
REMARK    5  A    between atoms: C9_10  and  C10_11 
REMARK    6  A    between atoms: C10_11  and  N2_12 
REMARK    7  A    between atoms: C13_22  and  N5_23 
ROOT
HETATM    1  C3  UNL     1      25.801  -1.674  30.494  1.00  0.00    -0.018 A 
HETATM    2  C4  UNL     1      25.632  -2.865  29.791  1.00  0.00     0.017 A 
HETATM    3  C5  UNL     1      24.691  -3.050  28.685  1.00  0.00     0.069 C 
HETATM    4  N1  UNL     1      26.471  -3.785  30.302  1.00  0.00    -0.332 N 
HETATM    5  C11 UNL     1      27.172  -3.206  31.317  1.00  0.00     0.123 A 
HETATM    6  N3  UNL     1      28.116  -3.728  32.114  1.00  0.00    -0.338 N 
ATOM      7  H3  UNL     1      28.411  -4.699  32.011  1.00  0.00     0.168 HD
HETATM    8  C12 UNL     1      28.667  -2.930  33.060  1.00  0.00     0.183 A 
HETATM    9  N4  UNL     1      28.305  -1.653  33.224  1.00  0.00    -0.338 N 
ATOM     10  H4  UNL     1      28.746  -1.087  33.949  1.00  0.00     0.168 HD
HETATM   11  C13 UNL     1      27.360  -1.116  32.431  1.00  0.00     0.114 A 
HETATM   12  C14 UNL     1      26.774  -1.889  31.458  1.00  0.00     0.060 A 
ENDROOT
BRANCH   4  13
HETATM   13  C6  UNL     1      26.611  -5.156  29.859  1.00  0.00     0.087 C 
HETATM   14  C7  UNL     1      26.070  -6.167  30.805  1.00  0.00     0.033 C 
BRANCH  13  15
HETATM   15  C8  UNL     1      28.016  -5.457  29.393  1.00  0.00     0.027 C 
BRANCH  15  16
HETATM   16  C9  UNL     1      28.490  -6.812  29.865  1.00  0.00     0.029 C 
BRANCH  16  17
HETATM   17  C10 UNL     1      29.731  -6.720  30.701  1.00  0.00     0.230 C 
BRANCH  17  18
HETATM   18  N2  UNL     1      29.536  -7.028  32.084  1.00  0.00    -0.079 N 
ATOM     19  H23 UNL     1      28.634  -7.483  32.223  1.00  0.00     0.274 HD
ATOM     20  H22 UNL     1      30.159  -7.783  32.372  1.00  0.00     0.274 HD
ATOM     21  H21 UNL     1      29.632  -6.229  32.710  1.00  0.00     0.274 HD
ENDBRANCH  17  18
ENDBRANCH  16  17
ENDBRANCH  15  16
ENDBRANCH  13  15
ENDBRANCH   4  13
BRANCH   1  22
HETATM   22  C2  UNL     1      25.067  -0.436  30.235  1.00  0.00     0.037 C 
HETATM   23  C1  UNL     1      25.783   0.402  29.166  1.00  0.00     0.010 C 
ENDBRANCH   1  22
BRANCH  11  24
HETATM   24  N5  UNL     1      26.998   0.100  32.563  1.00  0.00    -0.385 N 
ATOM     25  H52 UNL     1      27.034   0.721  31.756  1.00  0.00     0.157 HD
ATOM     26  H51 UNL     1      26.675   0.462  33.461  1.00  0.00     0.157 HD
ENDBRANCH  11  24
TORSDOF 7
ENDMDL
