MODEL 1
REMARK VINA RESULT: -5.933592302      0.000      0.000
REMARK  4 active torsions:
REMARK  status: ('A' for Active; 'I' for Inactive)
REMARK    1  A    between atoms: C2_2  and  N1_3 
REMARK    2  A    between atoms: N1_3  and  C3_4 
REMARK    3  A    between atoms: N1_3  and  C5_6 
REMARK    4  A    between atoms: C5_6  and  O1_7 
ROOT
HETATM    1  C5  UNL     1      54.950  34.666  86.436  1.00  0.00     0.335 C 
HETATM    2  S1  UNL     1      55.956  35.652  87.617  1.00  0.00    -0.061 SA
HETATM    3  C6  UNL     1      55.028  35.135  89.061  1.00  0.00    -0.002 C 
HETATM    4  C7  UNL     1      55.504  35.304  90.465  1.00  0.00     0.057 C 
HETATM    5  C8  UNL     1      53.910  34.609  88.641  1.00  0.00     0.048 C 
HETATM    6 CL1  UNL     1      52.704  33.975  89.786  1.00  0.00    -0.086 Cl
HETATM    7  C9  UNL     1      53.689  34.559  87.200  1.00  0.00     0.216 C 
HETATM    8  C10 UNL     1      52.945  33.304  86.899  1.00  0.00     0.075 C 
HETATM    9  N2  UNL     1      52.352  32.335  86.652  1.00  0.00    -0.196 NA
ENDROOT
BRANCH   1  10
HETATM   10  N1  UNL     1      54.925  35.157  85.133  1.00  0.00     0.135 N 
BRANCH  10  11
HETATM   11  C2  UNL     1      55.289  34.154  84.141  1.00  0.00     0.273 C 
HETATM   12  C1  UNL     1      56.189  34.627  83.062  1.00  0.00     0.037 C 
ENDBRANCH  10  11
BRANCH  10  13
HETATM   13  C3  UNL     1      55.617  36.348  84.779  1.00  0.00     0.273 C 
HETATM   14  C4  UNL     1      54.781  37.555  84.513  1.00  0.00     0.037 C 
ENDBRANCH  10  13
ENDBRANCH   1  10
BRANCH   1  15
HETATM   15  O1  UNL     1      55.549  33.388  86.446  1.00  0.00    -0.353 OA
ATOM     16  H1  UNL     1      56.077  33.292  87.230  1.00  0.00     0.213 HD
ENDBRANCH   1  15
TORSDOF 4
ENDMDL
MODEL 2
REMARK VINA RESULT: -5.742913208      2.677      5.202
REMARK  4 active torsions:
REMARK  status: ('A' for Active; 'I' for Inactive)
REMARK    1  A    between atoms: C2_2  and  N1_3 
REMARK    2  A    between atoms: N1_3  and  C3_4 
REMARK    3  A    between atoms: N1_3  and  C5_6 
REMARK    4  A    between atoms: C5_6  and  O1_7 
ROOT
HETATM    1  C5  UNL     1      54.805  34.703  86.467  1.00  0.00     0.335 C 
HETATM    2  S1  UNL     1      54.741  33.548  85.039  1.00  0.00    -0.061 SA
HETATM    3  C6  UNL     1      55.587  34.660  83.917  1.00  0.00    -0.002 C 
HETATM    4  C7  UNL     1      56.188  34.240  82.617  1.00  0.00     0.057 C 
HETATM    5  C8  UNL     1      55.565  35.850  84.454  1.00  0.00     0.048 C 
HETATM    6 CL1  UNL     1      56.308  37.243  83.632  1.00  0.00    -0.086 Cl
HETATM    7  C9  UNL     1      54.912  35.992  85.749  1.00  0.00     0.216 C 
HETATM    8  C10 UNL     1      55.665  37.015  86.527  1.00  0.00     0.075 C 
HETATM    9  N2  UNL     1      56.235  37.823  87.138  1.00  0.00    -0.196 NA
ENDROOT
BRANCH   1  10
HETATM   10  N1  UNL     1      53.800  34.524  87.413  1.00  0.00     0.135 N 
BRANCH  10  11
HETATM   11  C2  UNL     1      54.287  34.604  88.783  1.00  0.00     0.273 C 
HETATM   12  C1  UNL     1      53.943  35.852  89.507  1.00  0.00     0.037 C 
ENDBRANCH  10  11
BRANCH  10  13
HETATM   13  C3  UNL     1      52.924  33.405  87.359  1.00  0.00     0.273 C 
HETATM   14  C4  UNL     1      52.772  32.609  88.612  1.00  0.00     0.037 C 
ENDBRANCH  10  13
ENDBRANCH   1  10
BRANCH   1  15
HETATM   15  O1  UNL     1      56.060  34.456  87.063  1.00  0.00    -0.353 OA
ATOM     16  H1  UNL     1      56.679  35.120  86.783  1.00  0.00     0.213 HD
ENDBRANCH   1  15
TORSDOF 4
ENDMDL
MODEL 3
REMARK VINA RESULT: -5.646968490      0.527      1.623
REMARK  4 active torsions:
REMARK  status: ('A' for Active; 'I' for Inactive)
REMARK    1  A    between atoms: C2_2  and  N1_3 
REMARK    2  A    between atoms: N1_3  and  C3_4 
REMARK    3  A    between atoms: N1_3  and  C5_6 
REMARK    4  A    between atoms: C5_6  and  O1_7 
ROOT
HETATM    1  C5  UNL     1      55.206  34.593  86.824  1.00  0.00     0.335 C 
HETATM    2  S1  UNL     1      56.192  35.459  88.110  1.00  0.00    -0.061 SA
HETATM    3  C6  UNL     1      55.074  35.048  89.448  1.00  0.00    -0.002 C 
HETATM    4  C7  UNL     1      55.423  35.161  90.895  1.00  0.00     0.057 C 
HETATM    5  C8  UNL     1      53.952  34.651  88.913  1.00  0.00     0.048 C 
HETATM    6 CL1  UNL     1      52.575  34.155  89.926  1.00  0.00    -0.086 Cl
HETATM    7  C9  UNL     1      53.871  34.627  87.458  1.00  0.00     0.216 C 
HETATM    8  C10 UNL     1      53.026  33.464  87.069  1.00  0.00     0.075 C 
HETATM    9  N2  UNL     1      52.355  32.568  86.754  1.00  0.00    -0.196 NA
ENDROOT
BRANCH   1  10
HETATM   10  N1  UNL     1      55.366  35.084  85.530  1.00  0.00     0.135 N 
BRANCH  10  11
HETATM   11  C2  UNL     1      54.670  36.344  85.310  1.00  0.00     0.273 C 
HETATM   12  C1  UNL     1      55.540  37.504  85.002  1.00  0.00     0.037 C 
ENDBRANCH  10  11
BRANCH  10  13
HETATM   13  C3  UNL     1      55.103  34.271  84.394  1.00  0.00     0.273 C 
HETATM   14  C4  UNL     1      56.121  34.292  83.302  1.00  0.00     0.037 C 
ENDBRANCH  10  13
ENDBRANCH   1  10
BRANCH   1  15
HETATM   15  O1  UNL     1      55.655  33.256  86.877  1.00  0.00    -0.353 OA
ATOM     16  H1  UNL     1      56.552  33.211  86.567  1.00  0.00     0.213 HD
ENDBRANCH   1  15
TORSDOF 4
ENDMDL
MODEL 4
REMARK VINA RESULT: -5.486049512      2.033      2.934
REMARK  4 active torsions:
REMARK  status: ('A' for Active; 'I' for Inactive)
REMARK    1  A    between atoms: C2_2  and  N1_3 
REMARK    2  A    between atoms: N1_3  and  C3_4 
REMARK    3  A    between atoms: N1_3  and  C5_6 
REMARK    4  A    between atoms: C5_6  and  O1_7 
ROOT
HETATM    1  C5  UNL     1      55.298  35.653  87.536  1.00  0.00     0.335 C 
HETATM    2  S1  UNL     1      54.547  35.868  89.199  1.00  0.00    -0.061 SA
HETATM    3  C6  UNL     1      53.495  34.423  89.069  1.00  0.00    -0.002 C 
HETATM    4  C7  UNL     1      52.813  33.778  90.229  1.00  0.00     0.057 C 
HETATM    5  C8  UNL     1      53.458  34.078  87.811  1.00  0.00     0.048 C 
HETATM    6 CL1  UNL     1      52.504  32.676  87.270  1.00  0.00    -0.086 Cl
HETATM    7  C9  UNL     1      54.227  34.881  86.869  1.00  0.00     0.216 C 
HETATM    8  C10 UNL     1      54.755  33.967  85.818  1.00  0.00     0.075 C 
HETATM    9  N2  UNL     1      55.160  33.266  84.984  1.00  0.00    -0.196 NA
ENDROOT
BRANCH   1  10
HETATM   10  N1  UNL     1      55.770  36.824  86.948  1.00  0.00     0.135 N 
BRANCH  10  11
HETATM   11  C2  UNL     1      56.118  37.849  87.922  1.00  0.00     0.273 C 
HETATM   12  C1  UNL     1      56.061  39.244  87.422  1.00  0.00     0.037 C 
ENDBRANCH  10  11
BRANCH  10  13
HETATM   13  C3  UNL     1      55.043  37.476  85.914  1.00  0.00     0.273 C 
HETATM   14  C4  UNL     1      55.575  37.335  84.527  1.00  0.00     0.037 C 
ENDBRANCH  10  13
ENDBRANCH   1  10
BRANCH   1  15
HETATM   15  O1  UNL     1      56.376  34.767  87.748  1.00  0.00    -0.353 OA
ATOM     16  H1  UNL     1      56.039  33.907  87.969  1.00  0.00     0.213 HD
ENDBRANCH   1  15
TORSDOF 4
ENDMDL
MODEL 5
REMARK VINA RESULT: -5.379894680      1.492      1.648
REMARK  4 active torsions:
REMARK  status: ('A' for Active; 'I' for Inactive)
REMARK    1  A    between atoms: C2_2  and  N1_3 
REMARK    2  A    between atoms: N1_3  and  C3_4 
REMARK    3  A    between atoms: N1_3  and  C5_6 
REMARK    4  A    between atoms: C5_6  and  O1_7 
ROOT
HETATM    1  C5  UNL     1      55.057  34.889  86.928  1.00  0.00     0.335 C 
HETATM    2  S1  UNL     1      56.488  35.091  88.064  1.00  0.00    -0.061 SA
HETATM    3  C6  UNL     1      55.982  33.772  89.167  1.00  0.00    -0.002 C 
HETATM    4  C7  UNL     1      56.877  33.140  90.180  1.00  0.00     0.057 C 
HETATM    5  C8  UNL     1      54.732  33.502  88.907  1.00  0.00     0.048 C 
HETATM    6 CL1  UNL     1      53.858  32.238  89.806  1.00  0.00    -0.086 Cl
HETATM    7  C9  UNL     1      54.082  34.270  87.852  1.00  0.00     0.216 C 
HETATM    8  C10 UNL     1      53.130  33.365  87.151  1.00  0.00     0.075 C 
HETATM    9  N2  UNL     1      52.372  32.671  86.606  1.00  0.00    -0.196 NA
ENDROOT
BRANCH   1  10
HETATM   10  N1  UNL     1      54.702  36.035  86.220  1.00  0.00     0.135 N 
BRANCH  10  11
HETATM   11  C2  UNL     1      54.658  35.823  84.780  1.00  0.00     0.273 C 
HETATM   12  C1  UNL     1      55.517  36.727  83.980  1.00  0.00     0.037 C 
ENDBRANCH  10  11
BRANCH  10  13
HETATM   13  C3  UNL     1      55.376  37.270  86.428  1.00  0.00     0.273 C 
HETATM   14  C4  UNL     1      54.623  38.332  87.158  1.00  0.00     0.037 C 
ENDBRANCH  10  13
ENDBRANCH   1  10
BRANCH   1  15
HETATM   15  O1  UNL     1      55.464  33.886  86.024  1.00  0.00    -0.353 OA
ATOM     16  H1  UNL     1      56.408  33.920  85.917  1.00  0.00     0.213 HD
ENDBRANCH   1  15
TORSDOF 4
ENDMDL
