MODEL 1
REMARK VINA RESULT: -4.922238444      0.000      0.000
REMARK  3 active torsions:
REMARK  status: ('A' for Active; 'I' for Inactive)
REMARK    1  A    between atoms: C2_3  and  N2_4 
REMARK    2  A    between atoms: N4_9  and  C3_10 
REMARK    3  A    between atoms: N5_11  and  N6_13 
REMARK       I    between atoms: N6_13  and  C4_15 
ROOT
HETATM    1  C1  UNL     1      29.325  70.459  57.958  1.00  0.00     0.180 C 
HETATM    2  N1  UNL     1      28.239  70.999  57.168  1.00  0.00    -0.134 N 
HETATM    3  C2  UNL     1      28.323  72.123  56.436  1.00  0.00     0.697 A 
HETATM    4  N3  UNL     1      27.123  72.284  55.860  1.00  0.00    -0.120 N 
ATOM      5  H3  UNL     1      26.875  73.054  55.239  1.00  0.00     0.206 HD
HETATM    6  N4  UNL     1      26.307  71.306  56.209  1.00  0.00    -0.185 N 
HETATM    7  C5  UNL     1      26.997  70.510  57.020  1.00  0.00     0.363 A 
HETATM    8  O1  UNL     1      26.539  69.470  57.550  1.00  0.00    -0.244 OA
ENDROOT
BRANCH   6   9
HETATM    9  C3  UNL     1      24.940  71.164  55.775  1.00  0.00     0.228 C 
HETATM   10  N5  UNL     1      23.989  70.789  56.540  1.00  0.00    -0.292 N 
ATOM     11  H5  UNL     1      24.162  70.566  57.521  1.00  0.00     0.188 HD
BRANCH  10  12
HETATM   12  N6  UNL     1      22.709  70.691  55.999  1.00  0.00    -0.273 N 
HETATM   13  C4  UNL     1      22.025  71.876  55.615  1.00  0.00     0.200 C 
HETATM   14  N7  UNL     1      21.544  72.603  56.563  1.00  0.00    -0.372 N 
HETATM   15  N8  UNL     1      21.855  72.282  54.265  1.00  0.00    -0.062 NA
ATOM     16  H72 UNL     1      21.666  72.311  57.533  1.00  0.00     0.158 HD
ATOM     17  H71 UNL     1      21.054  73.453  56.287  1.00  0.00     0.158 HD
ATOM     18  H6  UNL     1      22.267  69.779  55.880  1.00  0.00     0.189 HD
ENDBRANCH  10  12
ENDBRANCH   6   9
BRANCH   3  19
HETATM   19  N2  UNL     1      29.361  72.911  56.303  1.00  0.00    -0.233 N 
ATOM     20  H22 UNL     1      29.576  73.729  56.872  1.00  0.00     0.174 HD
ATOM     21  H21 UNL     1      30.113  72.835  55.618  1.00  0.00     0.174 HD
ENDBRANCH   3  19
TORSDOF 3
ENDMDL
MODEL 2
REMARK VINA RESULT: -4.875014628      1.500      5.684
REMARK  3 active torsions:
REMARK  status: ('A' for Active; 'I' for Inactive)
REMARK    1  A    between atoms: C2_3  and  N2_4 
REMARK    2  A    between atoms: N4_9  and  C3_10 
REMARK    3  A    between atoms: N5_11  and  N6_13 
REMARK       I    between atoms: N6_13  and  C4_15 
ROOT
HETATM    1  C1  UNL     1      21.903  70.093  56.947  1.00  0.00     0.180 C 
HETATM    2  N1  UNL     1      23.204  70.572  56.532  1.00  0.00    -0.134 N 
HETATM    3  C2  UNL     1      23.412  71.377  55.477  1.00  0.00     0.697 A 
HETATM    4  N3  UNL     1      24.735  71.591  55.425  1.00  0.00    -0.120 N 
ATOM      5  H3  UNL     1      25.204  72.168  54.727  1.00  0.00     0.206 HD
HETATM    6  N4  UNL     1      25.346  70.950  56.405  1.00  0.00    -0.185 N 
HETATM    7  C5  UNL     1      24.398  70.318  57.091  1.00  0.00     0.363 A 
HETATM    8  O1  UNL     1      24.612  69.603  58.099  1.00  0.00    -0.244 OA
ENDROOT
BRANCH   6   9
HETATM    9  C3  UNL     1      26.766  70.958  56.649  1.00  0.00     0.228 C 
HETATM   10  N5  UNL     1      27.558  71.853  56.198  1.00  0.00    -0.292 N 
ATOM     11  H5  UNL     1      27.208  72.623  55.627  1.00  0.00     0.188 HD
BRANCH  10  12
HETATM   12  N6  UNL     1      28.913  71.748  56.505  1.00  0.00    -0.273 N 
HETATM   13  C4  UNL     1      29.706  72.926  56.554  1.00  0.00     0.200 C 
HETATM   14  N7  UNL     1      30.027  73.458  55.426  1.00  0.00    -0.372 N 
HETATM   15  N8  UNL     1      30.149  73.526  57.762  1.00  0.00    -0.062 NA
ATOM     16  H72 UNL     1      29.709  73.027  54.558  1.00  0.00     0.158 HD
ATOM     17  H71 UNL     1      30.596  74.303  55.461  1.00  0.00     0.158 HD
ATOM     18  H6  UNL     1      29.330  70.837  56.693  1.00  0.00     0.189 HD
ENDBRANCH  10  12
ENDBRANCH   6   9
BRANCH   3  19
HETATM   19  N2  UNL     1      22.514  71.863  54.657  1.00  0.00    -0.233 N 
ATOM     20  H22 UNL     1      21.743  72.484  54.903  1.00  0.00     0.174 HD
ATOM     21  H21 UNL     1      22.440  71.702  53.652  1.00  0.00     0.174 HD
ENDBRANCH   3  19
TORSDOF 3
ENDMDL
MODEL 3
REMARK VINA RESULT: -4.665395285      4.019      5.965
REMARK  3 active torsions:
REMARK  status: ('A' for Active; 'I' for Inactive)
REMARK    1  A    between atoms: C2_3  and  N2_4 
REMARK    2  A    between atoms: N4_9  and  C3_10 
REMARK    3  A    between atoms: N5_11  and  N6_13 
REMARK       I    between atoms: N6_13  and  C4_15 
ROOT
HETATM    1  C1  UNL     1      23.512  70.089  55.518  1.00  0.00     0.180 C 
HETATM    2  N1  UNL     1      22.605  71.016  56.161  1.00  0.00    -0.134 N 
HETATM    3  C2  UNL     1      22.173  72.160  55.604  1.00  0.00     0.697 A 
HETATM    4  N3  UNL     1      21.359  72.730  56.504  1.00  0.00    -0.120 N 
ATOM      5  H3  UNL     1      20.874  73.617  56.369  1.00  0.00     0.206 HD
HETATM    6  N4  UNL     1      21.274  71.983  57.589  1.00  0.00    -0.185 N 
HETATM    7  C5  UNL     1      22.046  70.921  57.378  1.00  0.00     0.363 A 
HETATM    8  O1  UNL     1      22.210  69.989  58.201  1.00  0.00    -0.244 OA
ENDROOT
BRANCH   6   9
HETATM    9  C3  UNL     1      20.488  72.292  58.757  1.00  0.00     0.228 C 
HETATM   10  N5  UNL     1      20.752  71.853  59.926  1.00  0.00    -0.292 N 
ATOM     11  H5  UNL     1      21.555  71.245  60.089  1.00  0.00     0.188 HD
BRANCH  10  12
HETATM   12  N6  UNL     1      19.913  72.225  60.975  1.00  0.00    -0.273 N 
HETATM   13  C4  UNL     1      20.164  73.441  61.666  1.00  0.00     0.200 C 
HETATM   14  N7  UNL     1      21.156  73.447  62.488  1.00  0.00    -0.372 N 
HETATM   15  N8  UNL     1      19.389  74.618  61.494  1.00  0.00    -0.062 NA
ATOM     16  H72 UNL     1      21.713  72.602  62.612  1.00  0.00     0.158 HD
ATOM     17  H71 UNL     1      21.336  74.319  62.984  1.00  0.00     0.158 HD
ATOM     18  H6  UNL     1      19.127  71.632  61.242  1.00  0.00     0.189 HD
ENDBRANCH  10  12
ENDBRANCH   6   9
BRANCH   3  19
HETATM   19  N2  UNL     1      22.478  72.635  54.422  1.00  0.00    -0.233 N 
ATOM     20  H22 UNL     1      22.552  72.101  53.556  1.00  0.00     0.174 HD
ATOM     21  H21 UNL     1      22.687  73.603  54.177  1.00  0.00     0.174 HD
ENDBRANCH   3  19
TORSDOF 3
ENDMDL
MODEL 4
REMARK VINA RESULT: -4.612522632      1.458      5.613
REMARK  3 active torsions:
REMARK  status: ('A' for Active; 'I' for Inactive)
REMARK    1  A    between atoms: C2_3  and  N2_4 
REMARK    2  A    between atoms: N4_9  and  C3_10 
REMARK    3  A    between atoms: N5_11  and  N6_13 
REMARK       I    between atoms: N6_13  and  C4_15 
ROOT
HETATM    1  C1  UNL     1      21.879  70.431  57.142  1.00  0.00     0.180 C 
HETATM    2  N1  UNL     1      23.182  70.786  56.620  1.00  0.00    -0.134 N 
HETATM    3  C2  UNL     1      23.378  71.490  55.492  1.00  0.00     0.697 A 
HETATM    4  N3  UNL     1      24.707  71.609  55.352  1.00  0.00    -0.120 N 
ATOM      5  H3  UNL     1      25.169  72.096  54.584  1.00  0.00     0.206 HD
HETATM    6  N4  UNL     1      25.332  71.007  56.347  1.00  0.00    -0.185 N 
HETATM    7  C5  UNL     1      24.389  70.497  57.132  1.00  0.00     0.363 A 
HETATM    8  O1  UNL     1      24.615  69.850  58.184  1.00  0.00    -0.244 OA
ENDROOT
BRANCH   6   9
HETATM    9  C3  UNL     1      26.762  70.938  56.513  1.00  0.00     0.228 C 
HETATM   10  N5  UNL     1      27.560  71.879  56.185  1.00  0.00    -0.292 N 
ATOM     11  H5  UNL     1      27.209  72.747  55.779  1.00  0.00     0.188 HD
BRANCH  10  12
HETATM   12  N6  UNL     1      28.924  71.690  56.397  1.00  0.00    -0.273 N 
HETATM   13  C4  UNL     1      29.363  71.113  57.620  1.00  0.00     0.200 C 
HETATM   14  N7  UNL     1      29.330  71.868  58.663  1.00  0.00    -0.372 N 
HETATM   15  N8  UNL     1      29.825  69.776  57.737  1.00  0.00    -0.062 NA
ATOM     16  H72 UNL     1      28.998  72.829  58.578  1.00  0.00     0.158 HD
ATOM     17  H71 UNL     1      29.645  71.455  59.540  1.00  0.00     0.158 HD
ATOM     18  H6  UNL     1      29.600  71.961  55.683  1.00  0.00     0.189 HD
ENDBRANCH  10  12
ENDBRANCH   6   9
BRANCH   3  19
HETATM   19  N2  UNL     1      22.466  71.970  54.684  1.00  0.00    -0.233 N 
ATOM     20  H22 UNL     1      21.461  71.804  54.740  1.00  0.00     0.174 HD
ATOM     21  H21 UNL     1      22.609  72.579  53.879  1.00  0.00     0.174 HD
ENDBRANCH   3  19
TORSDOF 3
ENDMDL
MODEL 5
REMARK VINA RESULT: -4.583527052      3.956      6.700
REMARK  3 active torsions:
REMARK  status: ('A' for Active; 'I' for Inactive)
REMARK    1  A    between atoms: C2_3  and  N2_4 
REMARK    2  A    between atoms: N4_9  and  C3_10 
REMARK    3  A    between atoms: N5_11  and  N6_13 
REMARK       I    between atoms: N6_13  and  C4_15 
ROOT
HETATM    1  C1  UNL     1      19.742  70.609  62.165  1.00  0.00     0.180 C 
HETATM    2  N1  UNL     1      20.093  71.189  60.886  1.00  0.00    -0.134 N 
HETATM    3  C2  UNL     1      20.028  72.502  60.609  1.00  0.00     0.697 A 
HETATM    4  N3  UNL     1      20.431  72.635  59.336  1.00  0.00    -0.120 N 
ATOM      5  H3  UNL     1      20.489  73.522  58.835  1.00  0.00     0.206 HD
HETATM    6  N4  UNL     1      20.740  71.459  58.824  1.00  0.00    -0.185 N 
HETATM    7  C5  UNL     1      20.531  70.562  59.783  1.00  0.00     0.363 A 
HETATM    8  O1  UNL     1      20.721  69.329  59.653  1.00  0.00    -0.244 OA
ENDROOT
BRANCH   6   9
HETATM    9  C3  UNL     1      21.209  71.231  57.480  1.00  0.00     0.228 C 
HETATM   10  N5  UNL     1      21.853  72.098  56.798  1.00  0.00    -0.292 N 
ATOM     11  H5  UNL     1      22.068  73.016  57.186  1.00  0.00     0.188 HD
BRANCH  10  12
HETATM   12  N6  UNL     1      22.252  71.756  55.507  1.00  0.00    -0.273 N 
HETATM   13  C4  UNL     1      23.437  70.993  55.327  1.00  0.00     0.200 C 
HETATM   14  N7  UNL     1      24.556  71.612  55.484  1.00  0.00    -0.372 N 
HETATM   15  N8  UNL     1      23.440  69.614  54.990  1.00  0.00    -0.062 NA
ATOM     16  H72 UNL     1      24.553  72.603  55.726  1.00  0.00     0.158 HD
ATOM     17  H71 UNL     1      25.406  71.065  55.355  1.00  0.00     0.158 HD
ATOM     18  H6  UNL     1      21.700  72.049  54.701  1.00  0.00     0.189 HD
ENDBRANCH  10  12
ENDBRANCH   6   9
BRANCH   3  19
HETATM   19  N2  UNL     1      19.649  73.467  61.409  1.00  0.00    -0.233 N 
ATOM     20  H22 UNL     1      18.815  74.045  61.307  1.00  0.00     0.174 HD
ATOM     21  H21 UNL     1      20.120  73.794  62.253  1.00  0.00     0.174 HD
ENDBRANCH   3  19
TORSDOF 3
ENDMDL
