MODEL 1
REMARK VINA RESULT: -5.030925010      0.000      0.000
REMARK  2 active torsions:
REMARK  status: ('A' for Active; 'I' for Inactive)
REMARK    1  A    between atoms: C2_2  and  C3_3 
REMARK       I    between atoms: C3_3  and  N1_5 
REMARK    2  A    between atoms: N1_5  and  C4_7 
ROOT
HETATM    1  C3  UNL     1      -3.063   3.682 -20.260  1.00  0.00     0.240 C 
HETATM    2  O1  UNL     1      -3.262   4.896 -19.910  1.00  0.00    -0.269 OA
HETATM    3  N1  UNL     1      -4.105   2.958 -20.899  1.00  0.00    -0.353 N 
ATOM      4  H1  UNL     1      -3.967   1.988 -21.184  1.00  0.00     0.163 HD
ENDROOT
BRANCH   3   5
HETATM    5  C4  UNL     1      -5.393   3.639 -21.142  1.00  0.00     0.084 A 
HETATM    6  C5  UNL     1      -6.268   2.906 -22.127  1.00  0.00     0.027 A 
HETATM    7  C6  UNL     1      -5.662   4.238 -22.467  1.00  0.00     0.027 A 
ENDBRANCH   3   5
BRANCH   1   8
HETATM    8  C2  UNL     1      -1.787   3.068 -19.999  1.00  0.00     0.064 C 
HETATM    9  C1  UNL     1      -1.434   2.690 -18.811  1.00  0.00     0.017 C 
ENDBRANCH   1   8
TORSDOF 2
ENDMDL
MODEL 2
REMARK VINA RESULT: -4.873830091      1.210      1.467
REMARK  2 active torsions:
REMARK  status: ('A' for Active; 'I' for Inactive)
REMARK    1  A    between atoms: C2_2  and  C3_3 
REMARK       I    between atoms: C3_3  and  N1_5 
REMARK    2  A    between atoms: N1_5  and  C4_7 
ROOT
HETATM    1  C3  UNL     1      -2.465   4.431 -20.733  1.00  0.00     0.240 C 
HETATM    2  O1  UNL     1      -2.787   5.644 -20.485  1.00  0.00    -0.269 OA
HETATM    3  N1  UNL     1      -3.480   3.490 -21.056  1.00  0.00    -0.353 N 
ATOM      4  H1  UNL     1      -3.245   2.518 -21.256  1.00  0.00     0.163 HD
ENDROOT
BRANCH   3   5
HETATM    5  C4  UNL     1      -4.884   3.949 -21.095  1.00  0.00     0.084 A 
HETATM    6  C5  UNL     1      -5.828   2.903 -21.631  1.00  0.00     0.027 A 
HETATM    7  C6  UNL     1      -5.545   4.162 -22.401  1.00  0.00     0.027 A 
ENDBRANCH   3   5
BRANCH   1   8
HETATM    8  C2  UNL     1      -1.082   4.038 -20.681  1.00  0.00     0.064 C 
HETATM    9  C1  UNL     1      -0.333   4.010 -21.738  1.00  0.00     0.017 C 
ENDBRANCH   1   8
TORSDOF 2
ENDMDL
MODEL 3
REMARK VINA RESULT: -4.805793598      0.947      4.019
REMARK  2 active torsions:
REMARK  status: ('A' for Active; 'I' for Inactive)
REMARK    1  A    between atoms: C2_2  and  C3_3 
REMARK       I    between atoms: C3_3  and  N1_5 
REMARK    2  A    between atoms: N1_5  and  C4_7 
ROOT
HETATM    1  C3  UNL     1      -3.583   3.986 -21.054  1.00  0.00     0.240 C 
HETATM    2  O1  UNL     1      -2.867   5.046 -21.048  1.00  0.00    -0.269 OA
HETATM    3  N1  UNL     1      -3.050   2.779 -20.525  1.00  0.00    -0.353 N 
ATOM      4  H1  UNL     1      -3.603   1.922 -20.522  1.00  0.00     0.163 HD
ENDROOT
BRANCH   3   5
HETATM    5  C4  UNL     1      -1.677   2.791 -19.979  1.00  0.00     0.084 A 
HETATM    6  C5  UNL     1      -1.236   1.443 -19.468  1.00  0.00     0.027 A 
HETATM    7  C6  UNL     1      -1.466   2.593 -18.529  1.00  0.00     0.027 A 
ENDBRANCH   3   5
BRANCH   1   8
HETATM    8  C2  UNL     1      -4.915   4.030 -21.597  1.00  0.00     0.064 C 
HETATM    9  C1  UNL     1      -5.700   2.999 -21.583  1.00  0.00     0.017 C 
ENDBRANCH   1   8
TORSDOF 2
ENDMDL
MODEL 4
REMARK VINA RESULT: -4.736139297      1.663      4.317
REMARK  2 active torsions:
REMARK  status: ('A' for Active; 'I' for Inactive)
REMARK    1  A    between atoms: C2_2  and  C3_3 
REMARK       I    between atoms: C3_3  and  N1_5 
REMARK    2  A    between atoms: N1_5  and  C4_7 
ROOT
HETATM    1  C3  UNL     1      -3.741   4.470 -21.096  1.00  0.00     0.240 C 
HETATM    2  O1  UNL     1      -3.804   4.905 -19.895  1.00  0.00    -0.269 OA
HETATM    3  N1  UNL     1      -2.477   4.140 -21.656  1.00  0.00    -0.353 N 
ATOM      4  H1  UNL     1      -2.405   3.793 -22.613  1.00  0.00     0.163 HD
ENDROOT
BRANCH   3   5
HETATM    5  C4  UNL     1      -1.269   4.310 -20.823  1.00  0.00     0.084 A 
HETATM    6  C5  UNL     1      -0.005   4.421 -21.637  1.00  0.00     0.027 A 
HETATM    7  C6  UNL     1      -0.265   3.226 -20.765  1.00  0.00     0.027 A 
ENDBRANCH   3   5
BRANCH   1   8
HETATM    8  C2  UNL     1      -4.950   4.324 -21.864  1.00  0.00     0.064 C 
HETATM    9  C1  UNL     1      -5.951   5.137 -21.736  1.00  0.00     0.017 C 
ENDBRANCH   1   8
TORSDOF 2
ENDMDL
MODEL 5
REMARK VINA RESULT: -4.710269650      1.993      4.428
REMARK  2 active torsions:
REMARK  status: ('A' for Active; 'I' for Inactive)
REMARK    1  A    between atoms: C2_2  and  C3_3 
REMARK       I    between atoms: C3_3  and  N1_5 
REMARK    2  A    between atoms: N1_5  and  C4_7 
ROOT
HETATM    1  C3  UNL     1      -3.664   4.147 -21.163  1.00  0.00     0.240 C 
HETATM    2  O1  UNL     1      -3.585   2.890 -20.945  1.00  0.00    -0.269 OA
HETATM    3  N1  UNL     1      -2.502   4.955 -21.033  1.00  0.00    -0.353 N 
ATOM      4  H1  UNL     1      -2.545   5.961 -21.201  1.00  0.00     0.163 HD
ENDROOT
BRANCH   3   5
HETATM    5  C4  UNL     1      -1.231   4.309 -20.649  1.00  0.00     0.084 A 
HETATM    6  C5  UNL     1      -0.062   5.260 -20.659  1.00  0.00     0.027 A 
HETATM    7  C6  UNL     1      -0.163   4.144 -21.659  1.00  0.00     0.027 A 
ENDBRANCH   3   5
BRANCH   1   8
HETATM    8  C2  UNL     1      -4.929   4.726 -21.535  1.00  0.00     0.064 C 
HETATM    9  C1  UNL     1      -5.685   4.202 -22.447  1.00  0.00     0.017 C 
ENDBRANCH   1   8
TORSDOF 2
ENDMDL
