MODEL 1
REMARK VINA RESULT: -5.980525102      0.000      0.000
REMARK  3 active torsions:
REMARK  status: ('A' for Active; 'I' for Inactive)
REMARK    1  A    between atoms: C2_6  and  C3_7 
REMARK    2  A    between atoms: C3_7  and  N3_8 
REMARK    3  A    between atoms: N3_8  and  C4_11 
ROOT
HETATM    1  N3  UNL     1      -7.170 -30.076   7.105  1.00  0.00    -0.063 N 
ATOM      2  H31 UNL     1      -6.998 -29.075   7.194  1.00  0.00     0.278 HD
ATOM      3  H32 UNL     1      -7.030 -30.331   8.082  1.00  0.00     0.278 HD
ENDROOT
BRANCH   1   4
HETATM    4  C3  UNL     1      -6.223 -30.723   6.224  1.00  0.00     0.318 C 
BRANCH   4   5
HETATM    5  C2  UNL     1      -5.203 -29.788   5.712  1.00  0.00     0.165 A 
HETATM    6  N2  UNL     1      -5.439 -28.840   4.791  1.00  0.00    -0.281 N 
HETATM    7  N1  UNL     1      -4.327 -28.168   4.542  1.00  0.00    -0.288 N 
ATOM      8  H2  UNL     1      -6.341 -28.664   4.349  1.00  0.00     0.189 HD
HETATM    9  C1  UNL     1      -3.381 -28.710   5.325  1.00  0.00     0.251 A 
ATOM     10  H1  UNL     1      -4.212 -27.393   3.887  1.00  0.00     0.188 HD
HETATM   11  O1  UNL     1      -3.937 -29.671   6.008  1.00  0.00    -0.289 OA
ENDBRANCH   4   5
ENDBRANCH   1   4
BRANCH   1  12
HETATM   12  C4  UNL     1      -8.482 -30.362   6.652  1.00  0.00     0.191 C 
HETATM   13  C5  UNL     1      -9.213 -29.123   6.124  1.00  0.00     0.038 C 
HETATM   14  C6  UNL     1     -10.645 -29.304   6.544  1.00  0.00    -0.012 C 
HETATM   15  C7  UNL     1     -10.767 -28.789   7.963  1.00  0.00     0.005 C 
HETATM   16  C10 UNL     1     -10.727 -30.808   6.856  1.00  0.00     0.011 C 
HETATM   17  C8  UNL     1      -9.743 -29.674   8.655  1.00  0.00     0.007 C 
HETATM   18  C9  UNL     1      -9.447 -30.815   7.713  1.00  0.00     0.016 C 
ENDBRANCH   1  12
TORSDOF 3
ENDMDL
MODEL 2
REMARK VINA RESULT: -5.977110631      0.838      1.693
REMARK  3 active torsions:
REMARK  status: ('A' for Active; 'I' for Inactive)
REMARK    1  A    between atoms: C2_6  and  C3_7 
REMARK    2  A    between atoms: C3_7  and  N3_8 
REMARK    3  A    between atoms: N3_8  and  C4_11 
ROOT
HETATM    1  N3  UNL     1      -8.022 -29.582   5.646  1.00  0.00    -0.063 N 
ATOM      2  H31 UNL     1      -8.612 -30.042   4.952  1.00  0.00     0.278 HD
ATOM      3  H32 UNL     1      -7.826 -28.729   5.121  1.00  0.00     0.278 HD
ENDROOT
BRANCH   1   4
HETATM    4  C3  UNL     1      -6.825 -30.337   5.943  1.00  0.00     0.318 C 
BRANCH   4   5
HETATM    5  C2  UNL     1      -5.596 -29.608   5.574  1.00  0.00     0.165 A 
HETATM    6  N2  UNL     1      -5.496 -28.775   4.525  1.00  0.00    -0.281 N 
HETATM    7  N1  UNL     1      -4.271 -28.279   4.460  1.00  0.00    -0.288 N 
ATOM      8  H2  UNL     1      -6.251 -28.556   3.876  1.00  0.00     0.189 HD
HETATM    9  C1  UNL     1      -3.597 -28.816   5.489  1.00  0.00     0.251 A 
ATOM     10  H1  UNL     1      -3.911 -27.622   3.768  1.00  0.00     0.188 HD
HETATM   11  O1  UNL     1      -4.416 -29.602   6.131  1.00  0.00    -0.289 OA
ENDBRANCH   4   5
ENDBRANCH   1   4
BRANCH   1  12
HETATM   12  C4  UNL     1      -8.711 -29.326   6.857  1.00  0.00     0.191 C 
HETATM   13  C5  UNL     1      -8.402 -30.358   7.948  1.00  0.00     0.038 C 
HETATM   14  C6  UNL     1      -9.697 -30.547   8.688  1.00  0.00    -0.012 C 
HETATM   15  C7  UNL     1     -10.507 -31.574   7.924  1.00  0.00     0.005 C 
HETATM   16  C10 UNL     1     -10.506 -29.300   8.291  1.00  0.00     0.011 C 
HETATM   17  C8  UNL     1     -10.596 -30.888   6.571  1.00  0.00     0.007 C 
HETATM   18  C9  UNL     1     -10.209 -29.446   6.787  1.00  0.00     0.016 C 
ENDBRANCH   1  12
TORSDOF 3
ENDMDL
MODEL 3
REMARK VINA RESULT: -5.920816225      4.622      6.685
REMARK  3 active torsions:
REMARK  status: ('A' for Active; 'I' for Inactive)
REMARK    1  A    between atoms: C2_6  and  C3_7 
REMARK    2  A    between atoms: C3_7  and  N3_8 
REMARK    3  A    between atoms: N3_8  and  C4_11 
ROOT
HETATM    1  N3  UNL     1     -10.873 -30.822   9.879  1.00  0.00    -0.063 N 
ATOM      2  H31 UNL     1     -11.266 -30.152  10.541  1.00  0.00     0.278 HD
ATOM      3  H32 UNL     1     -11.736 -31.062   9.392  1.00  0.00     0.278 HD
ENDROOT
BRANCH   1   4
HETATM    4  C3  UNL     1     -10.274 -31.961  10.537  1.00  0.00     0.318 C 
BRANCH   4   5
HETATM    5  C2  UNL     1     -11.055 -33.198  10.340  1.00  0.00     0.165 A 
HETATM    6  N2  UNL     1     -11.720 -33.836  11.317  1.00  0.00    -0.281 N 
HETATM    7  N1  UNL     1     -12.319 -34.909  10.826  1.00  0.00    -0.288 N 
ATOM      8  H2  UNL     1     -11.757 -33.539  12.292  1.00  0.00     0.189 HD
HETATM    9  C1  UNL     1     -12.020 -34.937   9.518  1.00  0.00     0.251 A 
ATOM     10  H1  UNL     1     -12.894 -35.579  11.339  1.00  0.00     0.188 HD
HETATM   11  O1  UNL     1     -11.267 -33.904   9.263  1.00  0.00    -0.289 OA
ENDBRANCH   4   5
ENDBRANCH   1   4
BRANCH   1  12
HETATM   12  C4  UNL     1      -9.911 -30.234   9.021  1.00  0.00     0.191 C 
HETATM   13  C5  UNL     1     -10.411 -28.945   8.359  1.00  0.00     0.038 C 
HETATM   14  C6  UNL     1      -9.828 -28.963   6.973  1.00  0.00    -0.012 C 
HETATM   15  C7  UNL     1     -10.755 -29.786   6.105  1.00  0.00     0.005 C 
HETATM   16  C10 UNL     1      -8.684 -29.986   7.093  1.00  0.00     0.011 C 
HETATM   17  C8  UNL     1     -10.731 -31.102   6.864  1.00  0.00     0.007 C 
HETATM   18  C9  UNL     1      -9.552 -31.042   7.804  1.00  0.00     0.016 C 
ENDBRANCH   1  12
TORSDOF 3
ENDMDL
MODEL 4
REMARK VINA RESULT: -5.914157100      4.387      6.539
REMARK  3 active torsions:
REMARK  status: ('A' for Active; 'I' for Inactive)
REMARK    1  A    between atoms: C2_6  and  C3_7 
REMARK    2  A    between atoms: C3_7  and  N3_8 
REMARK    3  A    between atoms: N3_8  and  C4_11 
ROOT
HETATM    1  N3  UNL     1     -10.006 -32.455   8.032  1.00  0.00    -0.063 N 
ATOM      2  H31 UNL     1     -10.646 -33.093   7.559  1.00  0.00     0.278 HD
ATOM      3  H32 UNL     1      -9.182 -32.630   7.458  1.00  0.00     0.278 HD
ENDROOT
BRANCH   1   4
HETATM    4  C3  UNL     1      -9.800 -32.806   9.420  1.00  0.00     0.318 C 
BRANCH   4   5
HETATM    5  C2  UNL     1     -11.053 -32.775  10.200  1.00  0.00     0.165 A 
HETATM    6  N2  UNL     1     -11.211 -32.099  11.349  1.00  0.00    -0.281 N 
HETATM    7  N1  UNL     1     -12.442 -32.268  11.803  1.00  0.00    -0.288 N 
ATOM      8  H2  UNL     1     -10.491 -31.539  11.804  1.00  0.00     0.189 HD
HETATM    9  C1  UNL     1     -13.060 -33.066  10.918  1.00  0.00     0.251 A 
ATOM     10  H1  UNL     1     -12.841 -31.872  12.655  1.00  0.00     0.188 HD
HETATM   11  O1  UNL     1     -12.203 -33.348   9.976  1.00  0.00    -0.289 OA
ENDBRANCH   4   5
ENDBRANCH   1   4
BRANCH   1  12
HETATM   12  C4  UNL     1     -10.438 -31.107   7.964  1.00  0.00     0.191 C 
HETATM   13  C5  UNL     1     -10.887 -30.696   6.557  1.00  0.00     0.038 C 
HETATM   14  C6  UNL     1     -10.438 -29.269   6.403  1.00  0.00    -0.012 C 
HETATM   15  C7  UNL     1      -8.994 -29.297   5.949  1.00  0.00     0.005 C 
HETATM   16  C10 UNL     1     -10.197 -28.824   7.856  1.00  0.00     0.011 C 
HETATM   17  C8  UNL     1      -8.372 -30.081   7.093  1.00  0.00     0.007 C 
HETATM   18  C9  UNL     1      -9.374 -30.075   8.221  1.00  0.00     0.016 C 
ENDBRANCH   1  12
TORSDOF 3
ENDMDL
MODEL 5
REMARK VINA RESULT: -5.878792629      4.243      6.475
REMARK  3 active torsions:
REMARK  status: ('A' for Active; 'I' for Inactive)
REMARK    1  A    between atoms: C2_6  and  C3_7 
REMARK    2  A    between atoms: C3_7  and  N3_8 
REMARK    3  A    between atoms: N3_8  and  C4_11 
ROOT
HETATM    1  N3  UNL     1      -9.982 -32.486   8.133  1.00  0.00    -0.063 N 
ATOM      2  H31 UNL     1      -9.652 -32.853   7.240  1.00  0.00     0.278 HD
ATOM      3  H32 UNL     1      -9.103 -32.550   8.646  1.00  0.00     0.278 HD
ENDROOT
BRANCH   1   4
HETATM    4  C3  UNL     1     -11.024 -33.303   8.715  1.00  0.00     0.318 C 
BRANCH   4   5
HETATM    5  C2  UNL     1     -11.363 -32.885  10.090  1.00  0.00     0.165 A 
HETATM    6  N2  UNL     1     -12.601 -32.919  10.608  1.00  0.00    -0.281 N 
HETATM    7  N1  UNL     1     -12.579 -32.482  11.856  1.00  0.00    -0.288 N 
ATOM      8  H2  UNL     1     -13.435 -33.236  10.113  1.00  0.00     0.189 HD
HETATM    9  C1  UNL     1     -11.300 -32.169  12.118  1.00  0.00     0.251 A 
ATOM     10  H1  UNL     1     -13.373 -32.400  12.491  1.00  0.00     0.188 HD
HETATM   11  O1  UNL     1     -10.604 -32.421  11.045  1.00  0.00    -0.289 OA
ENDBRANCH   4   5
ENDBRANCH   1   4
BRANCH   1  12
HETATM   12  C4  UNL     1     -10.453 -31.154   8.029  1.00  0.00     0.191 C 
HETATM   13  C5  UNL     1     -10.887 -30.784   6.606  1.00  0.00     0.038 C 
HETATM   14  C6  UNL     1     -10.479 -29.347   6.432  1.00  0.00    -0.012 C 
HETATM   15  C7  UNL     1      -9.026 -29.339   6.007  1.00  0.00     0.005 C 
HETATM   16  C10 UNL     1     -10.281 -28.867   7.880  1.00  0.00     0.011 C 
HETATM   17  C8  UNL     1      -8.403 -30.081   7.179  1.00  0.00     0.007 C 
HETATM   18  C9  UNL     1      -9.428 -30.084   8.286  1.00  0.00     0.016 C 
ENDBRANCH   1  12
TORSDOF 3
ENDMDL
