MODEL 1
REMARK VINA RESULT: -5.910419141      0.000      0.000
REMARK  6 active torsions:
REMARK  status: ('A' for Active; 'I' for Inactive)
REMARK    1  A    between atoms: O1_2  and  C2_3 
REMARK    2  A    between atoms: C2_3  and  C4_5 
REMARK    3  A    between atoms: C4_5  and  C5_6 
REMARK    4  A    between atoms: C7_10  and  O2_11 
REMARK    5  A    between atoms: O2_11  and  C8_12 
REMARK    6  A    between atoms: C9_15  and  N3_16 
ROOT
HETATM    1  O2  UNL     1     -47.878  46.383  12.996  1.00  0.00    -0.274 OA
ENDROOT
BRANCH   1   2
HETATM    2  C7  UNL     1     -47.386  45.842  11.820  1.00  0.00     0.166 A 
HETATM    3  C6  UNL     1     -47.408  44.463  11.591  1.00  0.00     0.145 A 
HETATM    4  N1  UNL     1     -46.869  44.255  10.378  1.00  0.00    -0.351 N 
HETATM    5  C5  UNL     1     -46.508  45.421   9.827  1.00  0.00     0.085 A 
ATOM      6  H1  UNL     1     -46.753  43.342   9.940  1.00  0.00     0.166 HD
HETATM    7  N5  UNL     1     -46.838  46.375  10.737  1.00  0.00    -0.325 N 
ATOM      8  H5  UNL     1     -46.684  47.374  10.604  1.00  0.00     0.169 HD
BRANCH   5   9
HETATM    9  C4  UNL     1     -45.877  45.640   8.498  1.00  0.00     0.108 C 
BRANCH   9  10
HETATM   10  C2  UNL     1     -46.897  45.516   7.386  1.00  0.00     0.123 C 
HETATM   11  C3  UNL     1     -47.862  46.691   7.399  1.00  0.00     0.040 C 
BRANCH  10  12
HETATM   12  O1  UNL     1     -47.689  44.389   7.702  1.00  0.00    -0.391 OA
HETATM   13  C1  UNL     1     -47.651  43.567   6.575  1.00  0.00     0.202 C 
ENDBRANCH  10  12
ENDBRANCH   9  10
ENDBRANCH   5   9
ENDBRANCH   1   2
BRANCH   1  14
HETATM   14  C8  UNL     1     -49.067  47.021  13.171  1.00  0.00     0.183 A 
HETATM   15  N2  UNL     1     -50.163  46.299  13.486  1.00  0.00    -0.169 N 
HETATM   16  C9  UNL     1     -51.369  46.848  13.674  1.00  0.00     0.677 A 
ATOM     17  H2  UNL     1     -50.068  45.288  13.585  1.00  0.00     0.186 HD
HETATM   18  N4  UNL     1     -51.469  48.189  13.538  1.00  0.00    -0.201 N 
HETATM   19  C10 UNL     1     -50.420  48.963  13.227  1.00  0.00     0.129 A 
ATOM     20  H4  UNL     1     -52.378  48.630  13.677  1.00  0.00     0.183 HD
HETATM   21  C11 UNL     1     -49.177  48.385  13.035  1.00  0.00     0.078 A 
HETATM   22 BR1  UNL     1     -47.695  49.497  12.601  1.00  0.00    -0.045 Br
BRANCH  16  23
HETATM   23  N3  UNL     1     -52.428  46.172  13.975  1.00  0.00    -0.234 N 
ATOM     24  H32 UNL     1     -52.322  45.289  14.475  1.00  0.00     0.174 HD
ATOM     25  H31 UNL     1     -53.377  46.468  13.742  1.00  0.00     0.174 HD
ENDBRANCH  16  23
ENDBRANCH   1  14
TORSDOF 6
ENDMDL
MODEL 2
REMARK VINA RESULT: -5.870191228      1.936      2.394
REMARK  6 active torsions:
REMARK  status: ('A' for Active; 'I' for Inactive)
REMARK    1  A    between atoms: O1_2  and  C2_3 
REMARK    2  A    between atoms: C2_3  and  C4_5 
REMARK    3  A    between atoms: C4_5  and  C5_6 
REMARK    4  A    between atoms: C7_10  and  O2_11 
REMARK    5  A    between atoms: O2_11  and  C8_12 
REMARK    6  A    between atoms: C9_15  and  N3_16 
ROOT
HETATM    1  O2  UNL     1     -48.555  46.495  12.858  1.00  0.00    -0.274 OA
ENDROOT
BRANCH   1   2
HETATM    2  C7  UNL     1     -48.070  45.953  11.681  1.00  0.00     0.166 A 
HETATM    3  C6  UNL     1     -48.599  44.770  11.155  1.00  0.00     0.145 A 
HETATM    4  N1  UNL     1     -47.928  44.506  10.022  1.00  0.00    -0.351 N 
HETATM    5  C5  UNL     1     -47.005  45.451   9.800  1.00  0.00     0.085 A 
ATOM      6  H1  UNL     1     -48.097  43.702   9.417  1.00  0.00     0.166 HD
HETATM    7  N5  UNL     1     -47.117  46.324  10.837  1.00  0.00    -0.325 N 
ATOM      8  H5  UNL     1     -46.542  47.158  10.950  1.00  0.00     0.169 HD
BRANCH   5   9
HETATM    9  C4  UNL     1     -46.050  45.540   8.663  1.00  0.00     0.108 C 
BRANCH   9  10
HETATM   10  C2  UNL     1     -46.782  45.512   7.337  1.00  0.00     0.123 C 
HETATM   11  C3  UNL     1     -47.874  46.570   7.297  1.00  0.00     0.040 C 
BRANCH  10  12
HETATM   12  O1  UNL     1     -47.466  44.277   7.291  1.00  0.00    -0.391 OA
HETATM   13  C1  UNL     1     -48.129  44.253   6.063  1.00  0.00     0.202 C 
ENDBRANCH  10  12
ENDBRANCH   9  10
ENDBRANCH   5   9
ENDBRANCH   1   2
BRANCH   1  14
HETATM   14  C8  UNL     1     -49.192  47.689  13.010  1.00  0.00     0.183 A 
HETATM   15  N2  UNL     1     -48.484  48.833  12.902  1.00  0.00    -0.169 N 
HETATM   16  C9  UNL     1     -49.033  50.046  13.037  1.00  0.00     0.677 A 
ATOM     17  H2  UNL     1     -47.484  48.770  12.708  1.00  0.00     0.186 HD
HETATM   18  N4  UNL     1     -50.360  50.102  13.292  1.00  0.00    -0.201 N 
HETATM   19  C10 UNL     1     -51.119  49.004  13.411  1.00  0.00     0.129 A 
ATOM     20  H4  UNL     1     -50.800  51.016  13.398  1.00  0.00     0.183 HD
HETATM   21  C11 UNL     1     -50.540  47.754  13.269  1.00  0.00     0.078 A 
HETATM   22 BR1  UNL     1     -51.632  46.205  13.433  1.00  0.00    -0.045 Br
BRANCH  16  23
HETATM   23  N3  UNL     1     -48.371  51.151  12.936  1.00  0.00    -0.234 N 
ATOM     24  H32 UNL     1     -47.582  51.194  12.291  1.00  0.00     0.174 HD
ATOM     25  H31 UNL     1     -48.589  51.994  13.469  1.00  0.00     0.174 HD
ENDBRANCH  16  23
ENDBRANCH   1  14
TORSDOF 6
ENDMDL
MODEL 3
REMARK VINA RESULT: -5.533832620      2.976      4.060
REMARK  6 active torsions:
REMARK  status: ('A' for Active; 'I' for Inactive)
REMARK    1  A    between atoms: O1_2  and  C2_3 
REMARK    2  A    between atoms: C2_3  and  C4_5 
REMARK    3  A    between atoms: C4_5  and  C5_6 
REMARK    4  A    between atoms: C7_10  and  O2_11 
REMARK    5  A    between atoms: O2_11  and  C8_12 
REMARK    6  A    between atoms: C9_15  and  N3_16 
ROOT
HETATM    1  O2  UNL     1     -48.205  48.710  12.834  1.00  0.00    -0.274 OA
ENDROOT
BRANCH   1   2
HETATM    2  C7  UNL     1     -47.853  47.503  12.255  1.00  0.00     0.166 A 
HETATM    3  C6  UNL     1     -47.958  46.301  12.961  1.00  0.00     0.145 A 
HETATM    4  N1  UNL     1     -47.548  45.321  12.139  1.00  0.00    -0.351 N 
HETATM    5  C5  UNL     1     -47.189  45.832  10.954  1.00  0.00     0.085 A 
ATOM      6  H1  UNL     1     -47.515  44.332  12.382  1.00  0.00     0.166 HD
HETATM    7  N5  UNL     1     -47.388  47.174  11.058  1.00  0.00    -0.325 N 
ATOM      8  H5  UNL     1     -47.202  47.841  10.310  1.00  0.00     0.169 HD
BRANCH   5   9
HETATM    9  C4  UNL     1     -46.679  45.098   9.765  1.00  0.00     0.108 C 
BRANCH   9  10
HETATM   10  C2  UNL     1     -47.642  45.214   8.602  1.00  0.00     0.123 C 
HETATM   11  C3  UNL     1     -47.317  44.191   7.525  1.00  0.00     0.040 C 
BRANCH  10  12
HETATM   12  O1  UNL     1     -47.389  46.468   8.005  1.00  0.00    -0.391 OA
HETATM   13  C1  UNL     1     -47.763  46.337   6.667  1.00  0.00     0.202 C 
ENDBRANCH  10  12
ENDBRANCH   9  10
ENDBRANCH   5   9
ENDBRANCH   1   2
BRANCH   1  14
HETATM   14  C8  UNL     1     -47.671  49.934  12.566  1.00  0.00     0.183 A 
HETATM   15  N2  UNL     1     -46.357  50.032  12.275  1.00  0.00    -0.169 N 
HETATM   16  C9  UNL     1     -45.755  51.195  12.001  1.00  0.00     0.677 A 
ATOM     17  H2  UNL     1     -45.797  49.179  12.263  1.00  0.00     0.186 HD
HETATM   18  N4  UNL     1     -46.519  52.310  12.023  1.00  0.00    -0.201 N 
HETATM   19  C10 UNL     1     -47.830  52.281  12.304  1.00  0.00     0.129 A 
ATOM     20  H4  UNL     1     -46.082  53.208  11.816  1.00  0.00     0.183 HD
HETATM   21  C11 UNL     1     -48.442  51.072  12.586  1.00  0.00     0.078 A 
HETATM   22 BR1  UNL     1     -50.304  51.047  12.977  1.00  0.00    -0.045 Br
BRANCH  16  23
HETATM   23  N3  UNL     1     -44.499  51.307  11.720  1.00  0.00    -0.234 N 
ATOM     24  H32 UNL     1     -44.191  51.123  10.765  1.00  0.00     0.174 HD
ATOM     25  H31 UNL     1     -43.786  51.569  12.401  1.00  0.00     0.174 HD
ENDBRANCH  16  23
ENDBRANCH   1  14
TORSDOF 6
ENDMDL
MODEL 4
REMARK VINA RESULT: -5.480174941      1.951      2.364
REMARK  6 active torsions:
REMARK  status: ('A' for Active; 'I' for Inactive)
REMARK    1  A    between atoms: O1_2  and  C2_3 
REMARK    2  A    between atoms: C2_3  and  C4_5 
REMARK    3  A    between atoms: C4_5  and  C5_6 
REMARK    4  A    between atoms: C7_10  and  O2_11 
REMARK    5  A    between atoms: O2_11  and  C8_12 
REMARK    6  A    between atoms: C9_15  and  N3_16 
ROOT
HETATM    1  O2  UNL     1     -49.435  46.120  12.798  1.00  0.00    -0.274 OA
ENDROOT
BRANCH   1   2
HETATM    2  C7  UNL     1     -48.531  45.650  11.860  1.00  0.00     0.166 A 
HETATM    3  C6  UNL     1     -48.297  44.281  11.702  1.00  0.00     0.145 A 
HETATM    4  N1  UNL     1     -47.381  44.147  10.728  1.00  0.00    -0.351 N 
HETATM    5  C5  UNL     1     -47.022  45.349  10.262  1.00  0.00     0.085 A 
ATOM      6  H1  UNL     1     -47.013  43.257  10.392  1.00  0.00     0.166 HD
HETATM    7  N5  UNL     1     -47.745  46.251  10.978  1.00  0.00    -0.325 N 
ATOM      8  H5  UNL     1     -47.690  47.262  10.853  1.00  0.00     0.169 HD
BRANCH   5   9
HETATM    9  C4  UNL     1     -46.039  45.651   9.188  1.00  0.00     0.108 C 
BRANCH   9  10
HETATM   10  C2  UNL     1     -46.635  45.394   7.820  1.00  0.00     0.123 C 
HETATM   11  C3  UNL     1     -47.661  46.459   7.465  1.00  0.00     0.040 C 
BRANCH  10  12
HETATM   12  O1  UNL     1     -47.374  44.196   7.931  1.00  0.00    -0.391 OA
HETATM   13  C1  UNL     1     -47.698  43.823   6.626  1.00  0.00     0.202 C 
ENDBRANCH  10  12
ENDBRANCH   9  10
ENDBRANCH   5   9
ENDBRANCH   1   2
BRANCH   1  14
HETATM   14  C8  UNL     1     -49.356  47.283  13.501  1.00  0.00     0.183 A 
HETATM   15  N2  UNL     1     -49.371  48.458  12.839  1.00  0.00    -0.169 N 
HETATM   16  C9  UNL     1     -49.297  49.644  13.454  1.00  0.00     0.677 A 
ATOM     17  H2  UNL     1     -49.442  48.441  11.821  1.00  0.00     0.186 HD
HETATM   18  N4  UNL     1     -49.205  49.639  14.803  1.00  0.00    -0.201 N 
HETATM   19  C10 UNL     1     -49.185  48.507  15.520  1.00  0.00     0.129 A 
ATOM     20  H4  UNL     1     -49.148  50.531  15.294  1.00  0.00     0.183 HD
HETATM   21  C11 UNL     1     -49.263  47.286  14.873  1.00  0.00     0.078 A 
HETATM   22 BR1  UNL     1     -49.241  45.688  15.906  1.00  0.00    -0.045 Br
BRANCH  16  23
HETATM   23  N3  UNL     1     -49.310  50.778  12.835  1.00  0.00    -0.234 N 
ATOM     24  H32 UNL     1     -50.195  51.277  12.742  1.00  0.00     0.174 HD
ATOM     25  H31 UNL     1     -48.481  51.212  12.427  1.00  0.00     0.174 HD
ENDBRANCH  16  23
ENDBRANCH   1  14
TORSDOF 6
ENDMDL
MODEL 5
REMARK VINA RESULT: -5.438128909      3.003      4.925
REMARK  6 active torsions:
REMARK  status: ('A' for Active; 'I' for Inactive)
REMARK    1  A    between atoms: O1_2  and  C2_3 
REMARK    2  A    between atoms: C2_3  and  C4_5 
REMARK    3  A    between atoms: C4_5  and  C5_6 
REMARK    4  A    between atoms: C7_10  and  O2_11 
REMARK    5  A    between atoms: O2_11  and  C8_12 
REMARK    6  A    between atoms: C9_15  and  N3_16 
ROOT
HETATM    1  O2  UNL     1     -48.373  49.343  13.963  1.00  0.00    -0.274 OA
ENDROOT
BRANCH   1   2
HETATM    2  C7  UNL     1     -48.829  48.087  13.605  1.00  0.00     0.166 A 
HETATM    3  C6  UNL     1     -50.152  47.884  13.199  1.00  0.00     0.145 A 
HETATM    4  N1  UNL     1     -50.284  46.576  12.920  1.00  0.00    -0.351 N 
HETATM    5  C5  UNL     1     -49.124  45.940  13.127  1.00  0.00     0.085 A 
ATOM      6  H1  UNL     1     -51.144  46.132  12.598  1.00  0.00     0.166 HD
HETATM    7  N5  UNL     1     -48.252  46.895  13.547  1.00  0.00    -0.325 N 
ATOM      8  H5  UNL     1     -47.277  46.716  13.788  1.00  0.00     0.169 HD
BRANCH   5   9
HETATM    9  C4  UNL     1     -48.836  44.493  12.941  1.00  0.00     0.108 C 
BRANCH   9  10
HETATM   10  C2  UNL     1     -48.260  44.227  11.566  1.00  0.00     0.123 C 
HETATM   11  C3  UNL     1     -46.817  43.757  11.662  1.00  0.00     0.040 C 
BRANCH  10  12
HETATM   12  O1  UNL     1     -48.194  45.480  10.918  1.00  0.00    -0.391 OA
HETATM   13  C1  UNL     1     -47.786  45.214   9.610  1.00  0.00     0.202 C 
ENDBRANCH  10  12
ENDBRANCH   9  10
ENDBRANCH   5   9
ENDBRANCH   1   2
BRANCH   1  14
HETATM   14  C8  UNL     1     -47.761  50.254  13.158  1.00  0.00     0.183 A 
HETATM   15  N2  UNL     1     -46.442  50.129  12.902  1.00  0.00    -0.169 N 
HETATM   16  C9  UNL     1     -45.766  50.981  12.122  1.00  0.00     0.677 A 
ATOM     17  H2  UNL     1     -45.937  49.349  13.324  1.00  0.00     0.186 HD
HETATM   18  N4  UNL     1     -46.458  52.005  11.575  1.00  0.00    -0.201 N 
HETATM   19  C10 UNL     1     -47.769  52.185  11.788  1.00  0.00     0.129 A 
ATOM     20  H4  UNL     1     -45.964  52.667  10.976  1.00  0.00     0.183 HD
HETATM   21  C11 UNL     1     -48.458  51.298  12.597  1.00  0.00     0.078 A 
HETATM   22 BR1  UNL     1     -50.321  51.563  12.885  1.00  0.00    -0.045 Br
BRANCH  16  23
HETATM   23  N3  UNL     1     -44.504  50.876  11.867  1.00  0.00    -0.234 N 
ATOM     24  H32 UNL     1     -44.212  50.617  10.924  1.00  0.00     0.174 HD
ATOM     25  H31 UNL     1     -43.770  51.037  12.558  1.00  0.00     0.174 HD
ENDBRANCH  16  23
ENDBRANCH   1  14
TORSDOF 6
ENDMDL
