MODEL 1
REMARK VINA RESULT: -7.261541076      0.000      0.000
REMARK  9 active torsions:
REMARK  status: ('A' for Active; 'I' for Inactive)
REMARK    1  A    between atoms: C2_2  and  C3_3 
REMARK    2  A    between atoms: N1_7  and  C7_8 
REMARK    3  A    between atoms: C8_9  and  N2_10 
REMARK    4  A    between atoms: N2_10  and  S1_12 
REMARK    5  A    between atoms: S1_12  and  C9_15 
REMARK    6  A    between atoms: C14_22  and  C15_23 
REMARK    7  A    between atoms: C14_22  and  C18_28 
REMARK    8  A    between atoms: C15_23  and  C16_24 
REMARK    9  A    between atoms: C16_24  and  O5_26 
ROOT
HETATM    1  C3  UNL     1      32.236  34.579  25.166  1.00  0.00    -0.012 C 
HETATM    2  C4  UNL     1      31.779  34.702  23.742  1.00  0.00     0.006 C 
HETATM    3  C5  UNL     1      32.770  33.964  22.888  1.00  0.00     0.020 C 
HETATM    4  C6  UNL     1      33.933  34.845  22.589  1.00  0.00     0.124 C 
HETATM    5  N1  UNL     1      34.122  36.001  23.434  1.00  0.00    -0.358 N 
HETATM    6  C14 UNL     1      34.185  36.188  24.885  1.00  0.00     0.133 C 
HETATM    7  C19 UNL     1      32.984  35.759  25.649  1.00  0.00     0.045 C 
ENDROOT
BRANCH   5   8
HETATM    8  C7  UNL     1      34.332  37.180  22.600  1.00  0.00     0.118 A 
HETATM    9  C8  UNL     1      35.277  37.685  21.785  1.00  0.00     0.127 A 
HETATM   10  C12 UNL     1      34.438  38.793  21.542  1.00  0.00     0.253 A 
HETATM   11  O3  UNL     1      34.492  39.856  20.850  1.00  0.00    -0.281 OA
HETATM   12  C13 UNL     1      33.498  38.265  22.373  1.00  0.00     0.253 A 
HETATM   13  O4  UNL     1      32.336  38.668  22.745  1.00  0.00    -0.281 OA
BRANCH   9  14
HETATM   14  N2  UNL     1      36.562  37.472  21.183  1.00  0.00    -0.278 N 
ATOM     15  H2  UNL     1      37.392  37.810  21.670  1.00  0.00     0.179 HD
BRANCH  14  16
HETATM   16  S1  UNL     1      36.761  36.687  19.702  1.00  0.00     0.234 S 
HETATM   17  O1  UNL     1      36.141  35.301  19.841  1.00  0.00    -0.205 OA
HETATM   18  O2  UNL     1      38.230  36.426  19.443  1.00  0.00    -0.205 OA
BRANCH  16  19
HETATM   19  C9  UNL     1      36.034  37.437  18.291  1.00  0.00     0.121 C 
HETATM   20  C10 UNL     1      36.621  36.919  17.008  1.00  0.00     0.027 C 
HETATM   21  C11 UNL     1      34.536  36.988  18.212  1.00  0.00     0.027 C 
ENDBRANCH  16  19
ENDBRANCH  14  16
ENDBRANCH   9  14
ENDBRANCH   5   8
BRANCH   6  22
HETATM   22  C15 UNL     1      34.522  37.641  25.115  1.00  0.00     0.071 C 
BRANCH  22  23
HETATM   23  C16 UNL     1      33.609  38.390  26.044  1.00  0.00     0.116 C 
HETATM   24  C17 UNL     1      34.438  38.881  27.262  1.00  0.00     0.039 C 
BRANCH  23  25
HETATM   25  O5  UNL     1      33.056  39.541  25.510  1.00  0.00    -0.396 OA
ATOM     26  H5  UNL     1      32.632  40.110  26.142  1.00  0.00     0.210 HD
ENDBRANCH  23  25
ENDBRANCH  22  23
ENDBRANCH   6  22
BRANCH   6  27
HETATM   27  C18 UNL     1      35.364  35.341  25.385  1.00  0.00     0.412 C 
HETATM   28  F1  UNL     1      34.973  34.041  25.681  1.00  0.00    -0.168 F 
HETATM   29  F2  UNL     1      35.757  35.820  26.661  1.00  0.00    -0.168 F 
HETATM   30  F3  UNL     1      36.474  35.416  24.609  1.00  0.00    -0.168 F 
ENDBRANCH   6  27
BRANCH   1  31
HETATM   31  C2  UNL     1      30.965  34.475  26.020  1.00  0.00     0.000 C 
HETATM   32  C1  UNL     1      30.598  33.054  26.289  1.00  0.00     0.005 C 
ENDBRANCH   1  31
TORSDOF 9
ENDMDL
MODEL 2
REMARK VINA RESULT: -7.191148612      1.731      2.159
REMARK  9 active torsions:
REMARK  status: ('A' for Active; 'I' for Inactive)
REMARK    1  A    between atoms: C2_2  and  C3_3 
REMARK    2  A    between atoms: N1_7  and  C7_8 
REMARK    3  A    between atoms: C8_9  and  N2_10 
REMARK    4  A    between atoms: N2_10  and  S1_12 
REMARK    5  A    between atoms: S1_12  and  C9_15 
REMARK    6  A    between atoms: C14_22  and  C15_23 
REMARK    7  A    between atoms: C14_22  and  C18_28 
REMARK    8  A    between atoms: C15_23  and  C16_24 
REMARK    9  A    between atoms: C16_24  and  O5_26 
ROOT
HETATM    1  C3  UNL     1      32.301  36.379  26.503  1.00  0.00    -0.012 C 
HETATM    2  C4  UNL     1      31.480  37.062  25.450  1.00  0.00     0.006 C 
HETATM    3  C5  UNL     1      31.577  36.235  24.200  1.00  0.00     0.020 C 
HETATM    4  C6  UNL     1      32.819  36.585  23.457  1.00  0.00     0.124 C 
HETATM    5  N1  UNL     1      33.855  37.278  24.189  1.00  0.00    -0.358 N 
HETATM    6  C14 UNL     1      34.530  37.023  25.463  1.00  0.00     0.133 C 
HETATM    7  C19 UNL     1      33.653  36.953  26.661  1.00  0.00     0.045 C 
ENDROOT
BRANCH   5   8
HETATM    8  C7  UNL     1      34.300  38.434  23.418  1.00  0.00     0.118 A 
HETATM    9  C8  UNL     1      35.173  38.714  22.432  1.00  0.00     0.127 A 
HETATM   10  C12 UNL     1      34.763  40.063  22.489  1.00  0.00     0.253 A 
HETATM   11  O3  UNL     1      35.055  41.141  21.885  1.00  0.00    -0.281 OA
HETATM   12  C13 UNL     1      33.890  39.758  23.487  1.00  0.00     0.253 A 
HETATM   13  O4  UNL     1      33.058  40.463  24.166  1.00  0.00    -0.281 OA
BRANCH   9  14
HETATM   14  N2  UNL     1      36.138  38.180  21.514  1.00  0.00    -0.278 N 
ATOM     15  H2  UNL     1      37.129  38.275  21.738  1.00  0.00     0.179 HD
BRANCH  14  16
HETATM   16  S1  UNL     1      35.706  37.404  20.080  1.00  0.00     0.234 S 
HETATM   17  O1  UNL     1      34.530  38.174  19.488  1.00  0.00    -0.205 OA
HETATM   18  O2  UNL     1      35.152  36.027  20.378  1.00  0.00    -0.205 OA
BRANCH  16  19
HETATM   19  C9  UNL     1      36.930  37.292  18.826  1.00  0.00     0.121 C 
HETATM   20  C10 UNL     1      38.253  36.822  19.365  1.00  0.00     0.027 C 
HETATM   21  C11 UNL     1      36.517  36.153  17.835  1.00  0.00     0.027 C 
ENDBRANCH  16  19
ENDBRANCH  14  16
ENDBRANCH   9  14
ENDBRANCH   5   8
BRANCH   6  22
HETATM   22  C15 UNL     1      35.603  38.075  25.597  1.00  0.00     0.071 C 
BRANCH  22  23
HETATM   23  C16 UNL     1      35.476  38.999  26.775  1.00  0.00     0.116 C 
HETATM   24  C17 UNL     1      36.501  40.154  26.610  1.00  0.00     0.039 C 
BRANCH  23  25
HETATM   25  O5  UNL     1      34.250  39.632  26.886  1.00  0.00    -0.396 OA
ATOM     26  H5  UNL     1      33.921  39.710  27.775  1.00  0.00     0.210 HD
ENDBRANCH  23  25
ENDBRANCH  22  23
ENDBRANCH   6  22
BRANCH   6  27
HETATM   27  C18 UNL     1      35.218  35.656  25.327  1.00  0.00     0.412 C 
HETATM   28  F1  UNL     1      34.298  34.638  25.106  1.00  0.00    -0.168 F 
HETATM   29  F2  UNL     1      35.752  35.291  26.589  1.00  0.00    -0.168 F 
HETATM   30  F3  UNL     1      36.267  35.642  24.468  1.00  0.00    -0.168 F 
ENDBRANCH   6  27
BRANCH   1  31
HETATM   31  C2  UNL     1      31.564  36.596  27.833  1.00  0.00     0.000 C 
HETATM   32  C1  UNL     1      32.515  36.707  28.977  1.00  0.00     0.005 C 
ENDBRANCH   1  31
TORSDOF 9
ENDMDL
MODEL 3
REMARK VINA RESULT: -7.177805646      3.633      6.732
REMARK  9 active torsions:
REMARK  status: ('A' for Active; 'I' for Inactive)
REMARK    1  A    between atoms: C2_2  and  C3_3 
REMARK    2  A    between atoms: N1_7  and  C7_8 
REMARK    3  A    between atoms: C8_9  and  N2_10 
REMARK    4  A    between atoms: N2_10  and  S1_12 
REMARK    5  A    between atoms: S1_12  and  C9_15 
REMARK    6  A    between atoms: C14_22  and  C15_23 
REMARK    7  A    between atoms: C14_22  and  C18_28 
REMARK    8  A    between atoms: C15_23  and  C16_24 
REMARK    9  A    between atoms: C16_24  and  O5_26 
ROOT
HETATM    1  C3  UNL     1      34.634  35.685  22.657  1.00  0.00    -0.012 C 
HETATM    2  C4  UNL     1      35.689  35.452  23.698  1.00  0.00     0.006 C 
HETATM    3  C5  UNL     1      35.005  34.883  24.909  1.00  0.00     0.020 C 
HETATM    4  C6  UNL     1      34.436  35.985  25.733  1.00  0.00     0.124 C 
HETATM    5  N1  UNL     1      34.262  37.269  25.092  1.00  0.00    -0.358 N 
HETATM    6  C14 UNL     1      33.624  37.693  23.845  1.00  0.00     0.133 C 
HETATM    7  C19 UNL     1      34.159  37.083  22.600  1.00  0.00     0.045 C 
ENDROOT
BRANCH   5   8
HETATM    8  C7  UNL     1      34.824  38.312  25.943  1.00  0.00     0.118 A 
HETATM    9  C8  UNL     1      34.532  38.940  27.098  1.00  0.00     0.127 A 
HETATM   10  C12 UNL     1      35.711  39.701  26.951  1.00  0.00     0.253 A 
HETATM   11  O3  UNL     1      36.307  40.612  27.604  1.00  0.00    -0.281 OA
HETATM   12  C13 UNL     1      35.985  39.056  25.784  1.00  0.00     0.253 A 
HETATM   13  O4  UNL     1      36.946  39.153  24.937  1.00  0.00    -0.281 OA
BRANCH   9  14
HETATM   14  N2  UNL     1      33.626  39.022  28.208  1.00  0.00    -0.278 N 
ATOM     15  H2  UNL     1      32.887  39.725  28.183  1.00  0.00     0.179 HD
BRANCH  14  16
HETATM   16  S1  UNL     1      33.729  38.008  29.552  1.00  0.00     0.234 S 
HETATM   17  O1  UNL     1      33.290  38.822  30.765  1.00  0.00    -0.205 OA
HETATM   18  O2  UNL     1      35.176  37.656  29.830  1.00  0.00    -0.205 OA
BRANCH  16  19
HETATM   19  C9  UNL     1      32.756  36.547  29.533  1.00  0.00     0.121 C 
HETATM   20  C10 UNL     1      31.889  36.458  28.308  1.00  0.00     0.027 C 
HETATM   21  C11 UNL     1      33.716  35.319  29.388  1.00  0.00     0.027 C 
ENDBRANCH  16  19
ENDBRANCH  14  16
ENDBRANCH   9  14
ENDBRANCH   5   8
BRANCH   6  22
HETATM   22  C15 UNL     1      33.692  39.200  23.821  1.00  0.00     0.071 C 
BRANCH  22  23
HETATM   23  C16 UNL     1      34.534  39.805  22.733  1.00  0.00     0.116 C 
HETATM   24  C17 UNL     1      33.622  40.114  21.515  1.00  0.00     0.039 C 
BRANCH  23  25
HETATM   25  O5  UNL     1      35.112  41.021  23.056  1.00  0.00    -0.396 OA
ATOM     26  H5  UNL     1      34.530  41.769  22.988  1.00  0.00     0.210 HD
ENDBRANCH  23  25
ENDBRANCH  22  23
ENDBRANCH   6  22
BRANCH   6  27
HETATM   27  C18 UNL     1      32.147  37.285  23.948  1.00  0.00     0.412 C 
HETATM   28  F1  UNL     1      31.363  37.960  23.020  1.00  0.00    -0.168 F 
HETATM   29  F2  UNL     1      31.626  37.774  25.173  1.00  0.00    -0.168 F 
HETATM   30  F3  UNL     1      31.938  35.945  23.971  1.00  0.00    -0.168 F 
ENDBRANCH   6  27
BRANCH   1  31
HETATM   31  C2  UNL     1      35.290  35.379  21.303  1.00  0.00     0.000 C 
HETATM   32  C1  UNL     1      35.918  36.595  20.708  1.00  0.00     0.005 C 
ENDBRANCH   1  31
TORSDOF 9
ENDMDL
MODEL 4
REMARK VINA RESULT: -7.013474319      3.904      6.896
REMARK  9 active torsions:
REMARK  status: ('A' for Active; 'I' for Inactive)
REMARK    1  A    between atoms: C2_2  and  C3_3 
REMARK    2  A    between atoms: N1_7  and  C7_8 
REMARK    3  A    between atoms: C8_9  and  N2_10 
REMARK    4  A    between atoms: N2_10  and  S1_12 
REMARK    5  A    between atoms: S1_12  and  C9_15 
REMARK    6  A    between atoms: C14_22  and  C15_23 
REMARK    7  A    between atoms: C14_22  and  C18_28 
REMARK    8  A    between atoms: C15_23  and  C16_24 
REMARK    9  A    between atoms: C16_24  and  O5_26 
ROOT
HETATM    1  C3  UNL     1      34.308  38.501  23.384  1.00  0.00    -0.012 C 
HETATM    2  C4  UNL     1      33.857  39.270  24.591  1.00  0.00     0.006 C 
HETATM    3  C5  UNL     1      35.003  39.291  25.562  1.00  0.00     0.020 C 
HETATM    4  C6  UNL     1      35.008  38.036  26.364  1.00  0.00     0.124 C 
HETATM    5  N1  UNL     1      34.256  36.916  25.846  1.00  0.00    -0.358 N 
HETATM    6  C14 UNL     1      34.222  36.242  24.547  1.00  0.00     0.133 C 
HETATM    7  C19 UNL     1      33.862  37.092  23.382  1.00  0.00     0.045 C 
ENDROOT
BRANCH   5   8
HETATM    8  C7  UNL     1      33.414  36.369  26.904  1.00  0.00     0.118 A 
HETATM    9  C8  UNL     1      33.353  35.270  27.679  1.00  0.00     0.127 A 
HETATM   10  C12 UNL     1      32.201  35.803  28.297  1.00  0.00     0.253 A 
HETATM   11  O3  UNL     1      31.397  35.445  29.212  1.00  0.00    -0.281 OA
HETATM   12  C13 UNL     1      32.281  36.903  27.501  1.00  0.00     0.253 A 
HETATM   13  O4  UNL     1      31.561  37.963  27.401  1.00  0.00    -0.281 OA
BRANCH   9  14
HETATM   14  N2  UNL     1      33.980  34.027  28.029  1.00  0.00    -0.278 N 
ATOM     15  H2  UNL     1      34.950  34.042  28.342  1.00  0.00     0.179 HD
BRANCH  14  16
HETATM   16  S1  UNL     1      33.182  32.543  27.945  1.00  0.00     0.234 S 
HETATM   17  O1  UNL     1      32.466  32.340  29.276  1.00  0.00    -0.205 OA
HETATM   18  O2  UNL     1      34.188  31.413  27.874  1.00  0.00    -0.205 OA
BRANCH  16  19
HETATM   19  C9  UNL     1      31.981  32.347  26.679  1.00  0.00     0.121 C 
HETATM   20  C10 UNL     1      31.814  30.910  26.272  1.00  0.00     0.027 C 
HETATM   21  C11 UNL     1      30.580  32.722  27.269  1.00  0.00     0.027 C 
ENDBRANCH  16  19
ENDBRANCH  14  16
ENDBRANCH   9  14
ENDBRANCH   5   8
BRANCH   6  22
HETATM   22  C15 UNL     1      33.296  35.060  24.703  1.00  0.00     0.071 C 
BRANCH  22  23
HETATM   23  C16 UNL     1      32.019  35.115  23.912  1.00  0.00     0.116 C 
HETATM   24  C17 UNL     1      31.848  33.770  23.156  1.00  0.00     0.039 C 
BRANCH  23  25
HETATM   25  O5  UNL     1      30.870  35.236  24.675  1.00  0.00    -0.396 OA
ATOM     26  H5  UNL     1      30.517  36.117  24.726  1.00  0.00     0.210 HD
ENDBRANCH  23  25
ENDBRANCH  22  23
ENDBRANCH   6  22
BRANCH   6  27
HETATM   27  C18 UNL     1      35.639  35.706  24.294  1.00  0.00     0.412 C 
HETATM   28  F1  UNL     1      36.469  36.684  23.759  1.00  0.00    -0.168 F 
HETATM   29  F2  UNL     1      35.585  34.764  23.235  1.00  0.00    -0.168 F 
HETATM   30  F3  UNL     1      36.180  35.042  25.345  1.00  0.00    -0.168 F 
ENDBRANCH   6  27
BRANCH   1  31
HETATM   31  C2  UNL     1      33.653  39.179  22.172  1.00  0.00     0.000 C 
HETATM   32  C1  UNL     1      34.490  40.299  21.650  1.00  0.00     0.005 C 
ENDBRANCH   1  31
TORSDOF 9
ENDMDL
MODEL 5
REMARK VINA RESULT: -6.937353001      1.320      1.842
REMARK  9 active torsions:
REMARK  status: ('A' for Active; 'I' for Inactive)
REMARK    1  A    between atoms: C2_2  and  C3_3 
REMARK    2  A    between atoms: N1_7  and  C7_8 
REMARK    3  A    between atoms: C8_9  and  N2_10 
REMARK    4  A    between atoms: N2_10  and  S1_12 
REMARK    5  A    between atoms: S1_12  and  C9_15 
REMARK    6  A    between atoms: C14_22  and  C15_23 
REMARK    7  A    between atoms: C14_22  and  C18_28 
REMARK    8  A    between atoms: C15_23  and  C16_24 
REMARK    9  A    between atoms: C16_24  and  O5_26 
ROOT
HETATM    1  C3  UNL     1      32.592  35.160  26.201  1.00  0.00    -0.012 C 
HETATM    2  C4  UNL     1      31.600  35.508  25.131  1.00  0.00     0.006 C 
HETATM    3  C5  UNL     1      31.898  34.638  23.944  1.00  0.00     0.020 C 
HETATM    4  C6  UNL     1      32.987  35.247  23.131  1.00  0.00     0.124 C 
HETATM    5  N1  UNL     1      33.808  36.251  23.770  1.00  0.00    -0.358 N 
HETATM    6  C14 UNL     1      34.546  36.292  25.033  1.00  0.00     0.133 C 
HETATM    7  C19 UNL     1      33.741  36.088  26.265  1.00  0.00     0.045 C 
ENDROOT
BRANCH   5   8
HETATM    8  C7  UNL     1      33.911  37.416  22.898  1.00  0.00     0.118 A 
HETATM    9  C8  UNL     1      34.689  37.860  21.893  1.00  0.00     0.127 A 
HETATM   10  C12 UNL     1      33.894  39.023  21.826  1.00  0.00     0.253 A 
HETATM   11  O3  UNL     1      33.869  40.084  21.129  1.00  0.00    -0.281 OA
HETATM   12  C13 UNL     1      33.122  38.557  22.846  1.00  0.00     0.253 A 
HETATM   13  O4  UNL     1      32.099  39.036  23.457  1.00  0.00    -0.281 OA
BRANCH   9  14
HETATM   14  N2  UNL     1      35.796  37.563  21.030  1.00  0.00    -0.278 N 
ATOM     15  H2  UNL     1      36.693  38.012  21.215  1.00  0.00     0.179 HD
BRANCH  14  16
HETATM   16  S1  UNL     1      35.679  36.505  19.721  1.00  0.00     0.234 S 
HETATM   17  O1  UNL     1      34.658  37.096  18.754  1.00  0.00    -0.205 OA
HETATM   18  O2  UNL     1      35.071  35.191  20.165  1.00  0.00    -0.205 OA
BRANCH  16  19
HETATM   19  C9  UNL     1      37.143  36.199  18.801  1.00  0.00     0.121 C 
HETATM   20  C10 UNL     1      37.083  36.799  17.424  1.00  0.00     0.027 C 
HETATM   21  C11 UNL     1      38.322  36.972  19.482  1.00  0.00     0.027 C 
ENDBRANCH  16  19
ENDBRANCH  14  16
ENDBRANCH   9  14
ENDBRANCH   5   8
BRANCH   6  22
HETATM   22  C15 UNL     1      35.296  37.601  25.048  1.00  0.00     0.071 C 
BRANCH  22  23
HETATM   23  C16 UNL     1      34.949  38.548  26.163  1.00  0.00     0.116 C 
HETATM   24  C17 UNL     1      36.085  39.597  26.293  1.00  0.00     0.039 C 
BRANCH  23  25
HETATM   25  O5  UNL     1      33.803  39.296  25.952  1.00  0.00    -0.396 OA
ATOM     26  H5  UNL     1      33.584  39.441  25.039  1.00  0.00     0.210 HD
ENDBRANCH  23  25
ENDBRANCH  22  23
ENDBRANCH   6  22
BRANCH   6  27
HETATM   27  C18 UNL     1      35.577  35.155  24.975  1.00  0.00     0.412 C 
HETATM   28  F1  UNL     1      36.793  35.535  25.531  1.00  0.00    -0.168 F 
HETATM   29  F2  UNL     1      35.937  34.938  23.620  1.00  0.00    -0.168 F 
HETATM   30  F3  UNL     1      35.117  33.962  25.426  1.00  0.00    -0.168 F 
ENDBRANCH   6  27
BRANCH   1  31
HETATM   31  C2  UNL     1      31.845  35.280  27.537  1.00  0.00     0.000 C 
HETATM   32  C1  UNL     1      31.975  36.647  28.120  1.00  0.00     0.005 C 
ENDBRANCH   1  31
TORSDOF 9
ENDMDL
