MODEL 1
REMARK VINA RESULT: -7.236413107      0.000      0.000
REMARK  2 active torsions:
REMARK  status: ('A' for Active; 'I' for Inactive)
REMARK    1  A    between atoms: O1_1  and  O2_3 
REMARK    2  A    between atoms: O2_3  and  C1_4 
ROOT
HETATM    1  C1  UNL     1      71.938  50.074  12.875  1.00  0.00     0.165 C 
HETATM    2  C2  UNL     1      72.872  49.179  12.126  1.00  0.00     0.040 C 
HETATM    3  C3  UNL     1      72.382  48.767  10.774  1.00  0.00    -0.012 C 
HETATM    4  C4  UNL     1      72.893  49.626   9.672  1.00  0.00     0.005 C 
HETATM    5  C5  UNL     1      71.901  49.938   8.603  1.00  0.00     0.003 C 
HETATM    6  C6  UNL     1      70.974  51.074   8.963  1.00  0.00     0.032 C 
HETATM    7  C7  UNL     1      69.809  50.600   9.791  1.00  0.00     0.126 C 
HETATM    8  O3  UNL     1      68.844  51.569   9.889  1.00  0.00    -0.385 OA
HETATM    9  C8  UNL     1      69.106  52.562  10.795  1.00  0.00     0.168 C 
HETATM   10  C9  UNL     1      68.870  52.112  12.229  1.00  0.00     0.027 C 
HETATM   11  C10 UNL     1      70.137  51.696  12.893  1.00  0.00     0.010 C 
HETATM   12  C11 UNL     1      71.060  50.911  11.949  1.00  0.00     0.024 C 
HETATM   13  C12 UNL     1      70.230  50.009  11.105  1.00  0.00     0.022 C 
HETATM   14  C13 UNL     1      70.874  48.675  10.827  1.00  0.00     0.012 C 
ENDROOT
BRANCH   1  15
HETATM   15  O2  UNL     1      72.706  50.925  13.667  1.00  0.00    -0.237 OA
BRANCH  15  16
HETATM   16  O1  UNL     1      73.513  50.172  14.384  1.00  0.00    -0.250 OA
ATOM     17  H1  UNL     1      74.390  50.525  14.287  1.00  0.00     0.253 HD
ENDBRANCH  15  16
ENDBRANCH   1  15
TORSDOF 2
ENDMDL
MODEL 2
REMARK VINA RESULT: -7.136114022      1.274      3.483
REMARK  2 active torsions:
REMARK  status: ('A' for Active; 'I' for Inactive)
REMARK    1  A    between atoms: O1_1  and  O2_3 
REMARK    2  A    between atoms: O2_3  and  C1_4 
ROOT
HETATM    1  C1  UNL     1      71.834  50.793  13.061  1.00  0.00     0.165 C 
HETATM    2  C2  UNL     1      70.841  51.736  13.661  1.00  0.00     0.040 C 
HETATM    3  C3  UNL     1      69.750  52.159  12.729  1.00  0.00    -0.012 C 
HETATM    4  C4  UNL     1      68.513  51.342  12.854  1.00  0.00     0.005 C 
HETATM    5  C5  UNL     1      67.837  51.019  11.566  1.00  0.00     0.003 C 
HETATM    6  C6  UNL     1      68.454  49.846  10.845  1.00  0.00     0.032 C 
HETATM    7  C7  UNL     1      69.643  50.261  10.021  1.00  0.00     0.126 C 
HETATM    8  O3  UNL     1      70.033  49.258   9.172  1.00  0.00    -0.385 OA
HETATM    9  C8  UNL     1      70.764  48.256   9.752  1.00  0.00     0.168 C 
HETATM   10  C9  UNL     1      72.207  48.666  10.008  1.00  0.00     0.027 C 
HETATM   11  C10 UNL     1      72.412  49.111  11.415  1.00  0.00     0.010 C 
HETATM   12  C11 UNL     1      71.236  49.947  11.940  1.00  0.00     0.024 C 
HETATM   13  C12 UNL     1      70.754  50.839  10.851  1.00  0.00     0.022 C 
HETATM   14  C13 UNL     1      70.316  52.199  11.328  1.00  0.00     0.012 C 
ENDROOT
BRANCH   1  15
HETATM   15  O2  UNL     1      72.290  49.952  14.074  1.00  0.00    -0.237 OA
BRANCH  15  16
HETATM   16  O1  UNL     1      73.504  50.347  14.395  1.00  0.00    -0.250 OA
ATOM     17  H1  UNL     1      73.685  51.136  13.896  1.00  0.00     0.253 HD
ENDBRANCH  15  16
ENDBRANCH   1  15
TORSDOF 2
ENDMDL
MODEL 3
REMARK VINA RESULT: -6.903836488      1.632      3.627
REMARK  2 active torsions:
REMARK  status: ('A' for Active; 'I' for Inactive)
REMARK    1  A    between atoms: O1_1  and  O2_3 
REMARK    2  A    between atoms: O2_3  and  C1_4 
ROOT
HETATM    1  C1  UNL     1      71.152  51.370  12.883  1.00  0.00     0.165 C 
HETATM    2  C2  UNL     1      69.840  52.083  12.834  1.00  0.00     0.040 C 
HETATM    3  C3  UNL     1      69.102  51.931  11.541  1.00  0.00    -0.012 C 
HETATM    4  C4  UNL     1      68.098  50.833  11.557  1.00  0.00     0.005 C 
HETATM    5  C5  UNL     1      68.019  50.032  10.303  1.00  0.00     0.003 C 
HETATM    6  C6  UNL     1      69.081  48.964  10.208  1.00  0.00     0.032 C 
HETATM    7  C7  UNL     1      70.377  49.514   9.677  1.00  0.00     0.126 C 
HETATM    8  O3  UNL     1      71.245  48.505   9.346  1.00  0.00    -0.385 OA
HETATM    9  C8  UNL     1      71.901  47.932  10.402  1.00  0.00     0.168 C 
HETATM   10  C9  UNL     1      73.036  48.804  10.920  1.00  0.00     0.027 C 
HETATM   11  C10 UNL     1      72.619  49.604  12.106  1.00  0.00     0.010 C 
HETATM   12  C11 UNL     1      71.189  50.147  11.970  1.00  0.00     0.024 C 
HETATM   13  C12 UNL     1      70.967  50.574  10.562  1.00  0.00     0.022 C 
HETATM   14  C13 UNL     1      70.119  51.812  10.430  1.00  0.00     0.012 C 
ENDROOT
BRANCH   1  15
HETATM   15  O2  UNL     1      71.368  50.964  14.199  1.00  0.00    -0.237 OA
BRANCH  15  16
HETATM   16  O1  UNL     1      70.591  51.696  14.967  1.00  0.00    -0.250 OA
ATOM     17  H1  UNL     1      70.444  51.207  15.769  1.00  0.00     0.253 HD
ENDBRANCH  15  16
ENDBRANCH   1  15
TORSDOF 2
ENDMDL
MODEL 4
REMARK VINA RESULT: -6.872874625      1.908      3.113
REMARK  2 active torsions:
REMARK  status: ('A' for Active; 'I' for Inactive)
REMARK    1  A    between atoms: O1_1  and  O2_3 
REMARK    2  A    between atoms: O2_3  and  C1_4 
ROOT
HETATM    1  C1  UNL     1      72.448  48.979  10.688  1.00  0.00     0.165 C 
HETATM    2  C2  UNL     1      71.769  49.015   9.356  1.00  0.00     0.040 C 
HETATM    3  C3  UNL     1      70.412  49.645   9.372  1.00  0.00    -0.012 C 
HETATM    4  C4  UNL     1      70.423  51.086   9.005  1.00  0.00     0.005 C 
HETATM    5  C5  UNL     1      69.504  51.948   9.802  1.00  0.00     0.003 C 
HETATM    6  C6  UNL     1      70.077  52.356  11.137  1.00  0.00     0.032 C 
HETATM    7  C7  UNL     1      69.858  51.297  12.184  1.00  0.00     0.126 C 
HETATM    8  O3  UNL     1      70.137  51.775  13.439  1.00  0.00    -0.385 OA
HETATM    9  C8  UNL     1      71.467  51.836  13.755  1.00  0.00     0.168 C 
HETATM   10  C9  UNL     1      72.045  50.470  14.093  1.00  0.00     0.027 C 
HETATM   11  C10 UNL     1      72.742  49.861  12.926  1.00  0.00     0.010 C 
HETATM   12  C11 UNL     1      71.997  50.111  11.606  1.00  0.00     0.024 C 
HETATM   13  C12 UNL     1      70.534  49.999  11.850  1.00  0.00     0.022 C 
HETATM   14  C13 UNL     1      69.777  49.361  10.714  1.00  0.00     0.012 C 
ENDROOT
BRANCH   1  15
HETATM   15  O2  UNL     1      73.820  49.086  10.470  1.00  0.00    -0.237 OA
BRANCH  15  16
HETATM   16  O1  UNL     1      73.988  49.778   9.364  1.00  0.00    -0.250 OA
ATOM     17  H1  UNL     1      74.924  49.871   9.228  1.00  0.00     0.253 HD
ENDBRANCH  15  16
ENDBRANCH   1  15
TORSDOF 2
ENDMDL
MODEL 5
REMARK VINA RESULT: -6.581927096      1.899      4.118
REMARK  2 active torsions:
REMARK  status: ('A' for Active; 'I' for Inactive)
REMARK    1  A    between atoms: O1_1  and  O2_3 
REMARK    2  A    between atoms: O2_3  and  C1_4 
ROOT
HETATM    1  C1  UNL     1      67.958  51.797  11.828  1.00  0.00     0.165 C 
HETATM    2  C2  UNL     1      67.206  51.307  10.633  1.00  0.00     0.040 C 
HETATM    3  C3  UNL     1      68.067  50.714   9.562  1.00  0.00    -0.012 C 
HETATM    4  C4  UNL     1      68.185  49.234   9.648  1.00  0.00     0.005 C 
HETATM    5  C5  UNL     1      69.542  48.690   9.356  1.00  0.00     0.003 C 
HETATM    6  C6  UNL     1      70.480  48.762  10.537  1.00  0.00     0.032 C 
HETATM    7  C7  UNL     1      71.135  50.113  10.645  1.00  0.00     0.126 C 
HETATM    8  O3  UNL     1      72.170  50.091  11.544  1.00  0.00    -0.385 OA
HETATM    9  C8  UNL     1      71.799  50.147  12.860  1.00  0.00     0.168 C 
HETATM   10  C9  UNL     1      71.393  51.550  13.288  1.00  0.00     0.027 C 
HETATM   11  C10 UNL     1      69.914  51.728  13.259  1.00  0.00     0.010 C 
HETATM   12  C11 UNL     1      69.267  51.041  12.047  1.00  0.00     0.024 C 
HETATM   13  C12 UNL     1      70.148  51.224  10.862  1.00  0.00     0.022 C 
HETATM   14  C13 UNL     1      69.396  51.434   9.573  1.00  0.00     0.012 C 
ENDROOT
BRANCH   1  15
HETATM   15  O2  UNL     1      67.142  51.628  12.945  1.00  0.00    -0.237 OA
BRANCH  15  16
HETATM   16  O1  UNL     1      66.120  50.886  12.574  1.00  0.00    -0.250 OA
ATOM     17  H1  UNL     1      65.893  50.329  13.309  1.00  0.00     0.253 HD
ENDBRANCH  15  16
ENDBRANCH   1  15
TORSDOF 2
ENDMDL
