MODEL 1
REMARK VINA RESULT: -6.334739111      0.000      0.000
REMARK  1 active torsions:
REMARK  status: ('A' for Active; 'I' for Inactive)
REMARK    1  A    between atoms: N1_8  and  N2_10 
ROOT
HETATM    1  C1  UNL     1      71.933  50.466   8.003  1.00  0.00     0.016 C 
HETATM    2  C2  UNL     1      70.547  49.913   7.741  1.00  0.00     0.029 C 
HETATM    3  C3  UNL     1      70.534  48.410   7.700  1.00  0.00     0.010 C 
HETATM    4  C4  UNL     1      70.765  47.748   9.001  1.00  0.00     0.001 C 
HETATM    5  C5  UNL     1      70.392  48.518  10.208  1.00  0.00     0.006 C 
HETATM    6  C6  UNL     1      69.380  49.598   9.984  1.00  0.00     0.054 C 
HETATM    7  C7  UNL     1      69.567  50.351   8.749  1.00  0.00     0.007 C 
HETATM    8  N1  UNL     1      68.875  51.408   8.533  1.00  0.00    -0.308 N 
ATOM      9  H1  UNL     1      69.004  51.937   7.670  1.00  0.00     0.186 HD
ENDROOT
BRANCH   8  10
HETATM   10  N2  UNL     1      67.956  51.827   9.469  1.00  0.00    -0.298 N 
HETATM   11  C8  UNL     1      68.075  52.946  10.038  1.00  0.00     0.062 C 
HETATM   12  C9  UNL     1      69.182  53.858   9.742  1.00  0.00     0.066 C 
HETATM   13  S1  UNL     1      66.895  53.485  11.243  1.00  0.00    -0.115 SA
HETATM   14  C10 UNL     1      68.732  55.226   9.341  1.00  0.00     0.007 C 
HETATM   15  C11 UNL     1      67.496  55.747   9.937  1.00  0.00     0.011 C 
HETATM   16  C12 UNL     1      67.143  55.308  11.317  1.00  0.00     0.080 C 
ATOM     17  H2  UNL     1      67.168  51.223   9.706  1.00  0.00     0.187 HD
ENDBRANCH   8  10
TORSDOF 1
ENDMDL
MODEL 2
REMARK VINA RESULT: -6.250249942      3.847      4.927
REMARK  1 active torsions:
REMARK  status: ('A' for Active; 'I' for Inactive)
REMARK    1  A    between atoms: N1_8  and  N2_10 
ROOT
HETATM    1  C1  UNL     1      73.943  46.654   8.615  1.00  0.00     0.016 C 
HETATM    2  C2  UNL     1      74.323  48.112   8.774  1.00  0.00     0.029 C 
HETATM    3  C3  UNL     1      75.046  48.645   7.568  1.00  0.00     0.010 C 
HETATM    4  C4  UNL     1      74.214  48.791   6.355  1.00  0.00     0.001 C 
HETATM    5  C5  UNL     1      72.764  48.990   6.569  1.00  0.00     0.006 C 
HETATM    6  C6  UNL     1      72.391  49.534   7.913  1.00  0.00     0.054 C 
HETATM    7  C7  UNL     1      73.154  48.973   9.022  1.00  0.00     0.007 C 
HETATM    8  N1  UNL     1      72.809  49.228  10.231  1.00  0.00    -0.308 N 
ATOM      9  H1  UNL     1      73.340  48.836  11.008  1.00  0.00     0.186 HD
ENDROOT
BRANCH   8  10
HETATM   10  N2  UNL     1      71.718  50.032  10.474  1.00  0.00    -0.298 N 
HETATM   11  C8  UNL     1      71.348  50.281  11.654  1.00  0.00     0.062 C 
HETATM   12  C9  UNL     1      72.046  49.740  12.822  1.00  0.00     0.066 C 
HETATM   13  S1  UNL     1      69.944  51.314  11.969  1.00  0.00    -0.115 SA
HETATM   14  C10 UNL     1      72.478  50.790  13.794  1.00  0.00     0.007 C 
HETATM   15  C11 UNL     1      71.638  51.986  13.934  1.00  0.00     0.011 C 
HETATM   16  C12 UNL     1      70.170  51.842  13.718  1.00  0.00     0.080 C 
ATOM     17  H2  UNL     1      71.201  50.431   9.690  1.00  0.00     0.187 HD
ENDBRANCH   8  10
TORSDOF 1
ENDMDL
MODEL 3
REMARK VINA RESULT: -6.212454674      3.362      4.603
REMARK  1 active torsions:
REMARK  status: ('A' for Active; 'I' for Inactive)
REMARK    1  A    between atoms: N1_8  and  N2_10 
ROOT
HETATM    1  C1  UNL     1      73.139  49.652  10.955  1.00  0.00     0.016 C 
HETATM    2  C2  UNL     1      72.092  49.152  11.929  1.00  0.00     0.029 C 
HETATM    3  C3  UNL     1      72.658  48.921  13.302  1.00  0.00     0.010 C 
HETATM    4  C4  UNL     1      73.038  50.148  14.036  1.00  0.00     0.001 C 
HETATM    5  C5  UNL     1      72.318  51.386  13.666  1.00  0.00     0.006 C 
HETATM    6  C6  UNL     1      70.986  51.175  13.015  1.00  0.00     0.054 C 
HETATM    7  C7  UNL     1      70.954  50.079  12.054  1.00  0.00     0.007 C 
HETATM    8  N1  UNL     1      69.925  49.912  11.307  1.00  0.00    -0.308 N 
ATOM      9  H1  UNL     1      69.900  49.146  10.634  1.00  0.00     0.186 HD
ENDROOT
BRANCH   8  10
HETATM   10  N2  UNL     1      68.856  50.772  11.416  1.00  0.00    -0.298 N 
HETATM   11  C8  UNL     1      67.854  50.659  10.658  1.00  0.00     0.062 C 
HETATM   12  C9  UNL     1      67.766  49.619   9.630  1.00  0.00     0.066 C 
HETATM   13  S1  UNL     1      66.477  51.765  10.797  1.00  0.00    -0.115 SA
HETATM   14  C10 UNL     1      66.533  48.781   9.738  1.00  0.00     0.007 C 
HETATM   15  C11 UNL     1      65.309  49.418  10.239  1.00  0.00     0.011 C 
HETATM   16  C12 UNL     1      65.106  50.868   9.958  1.00  0.00     0.080 C 
ATOM     17  H2  UNL     1      68.873  51.511  12.119  1.00  0.00     0.187 HD
ENDBRANCH   8  10
TORSDOF 1
ENDMDL
MODEL 4
REMARK VINA RESULT: -6.211911194      3.227      6.143
REMARK  1 active torsions:
REMARK  status: ('A' for Active; 'I' for Inactive)
REMARK    1  A    between atoms: N1_8  and  N2_10 
ROOT
HETATM    1  C1  UNL     1      69.448  53.069  10.538  1.00  0.00     0.016 C 
HETATM    2  C2  UNL     1      69.825  51.910  11.437  1.00  0.00     0.029 C 
HETATM    3  C3  UNL     1      68.809  51.678  12.521  1.00  0.00     0.010 C 
HETATM    4  C4  UNL     1      67.509  51.150  12.056  1.00  0.00     0.001 C 
HETATM    5  C5  UNL     1      67.525  50.373  10.797  1.00  0.00     0.006 C 
HETATM    6  C6  UNL     1      68.851  49.778  10.435  1.00  0.00     0.054 C 
HETATM    7  C7  UNL     1      69.991  50.651  10.690  1.00  0.00     0.007 C 
HETATM    8  N1  UNL     1      71.155  50.325  10.262  1.00  0.00    -0.308 N 
ATOM      9  H1  UNL     1      71.954  50.933  10.439  1.00  0.00     0.186 HD
ENDROOT
BRANCH   8  10
HETATM   10  N2  UNL     1      71.321  49.150   9.563  1.00  0.00    -0.298 N 
HETATM   11  C8  UNL     1      71.971  49.126   8.482  1.00  0.00     0.062 C 
HETATM   12  C9  UNL     1      72.582  50.329   7.912  1.00  0.00     0.066 C 
HETATM   13  S1  UNL     1      72.186  47.617   7.582  1.00  0.00    -0.115 SA
HETATM   14  C10 UNL     1      74.044  50.180   7.639  1.00  0.00     0.007 C 
HETATM   15  C11 UNL     1      74.540  48.854   7.249  1.00  0.00     0.011 C 
HETATM   16  C12 UNL     1      73.625  47.959   6.485  1.00  0.00     0.080 C 
ATOM     17  H2  UNL     1      70.913  48.288   9.924  1.00  0.00     0.187 HD
ENDBRANCH   8  10
TORSDOF 1
ENDMDL
MODEL 5
REMARK VINA RESULT: -6.194068604      4.025      6.223
REMARK  1 active torsions:
REMARK  status: ('A' for Active; 'I' for Inactive)
REMARK    1  A    between atoms: N1_8  and  N2_10 
ROOT
HETATM    1  C1  UNL     1      69.685  51.245  13.345  1.00  0.00     0.016 C 
HETATM    2  C2  UNL     1      70.914  51.465  12.487  1.00  0.00     0.029 C 
HETATM    3  C3  UNL     1      72.126  51.805  13.308  1.00  0.00     0.010 C 
HETATM    4  C4  UNL     1      72.657  50.695  14.128  1.00  0.00     0.001 C 
HETATM    5  C5  UNL     1      72.380  49.325  13.642  1.00  0.00     0.006 C 
HETATM    6  C6  UNL     1      72.081  49.220  12.179  1.00  0.00     0.054 C 
HETATM    7  C7  UNL     1      71.238  50.291  11.659  1.00  0.00     0.007 C 
HETATM    8  N1  UNL     1      70.771  50.217  10.467  1.00  0.00    -0.308 N 
ATOM      9  H1  UNL     1      70.182  50.964  10.101  1.00  0.00     0.186 HD
ENDROOT
BRANCH   8  10
HETATM   10  N2  UNL     1      71.068  49.124   9.684  1.00  0.00    -0.298 N 
HETATM   11  C8  UNL     1      71.684  49.259   8.591  1.00  0.00     0.062 C 
HETATM   12  C9  UNL     1      72.116  50.567   8.095  1.00  0.00     0.066 C 
HETATM   13  S1  UNL     1      72.067  47.855   7.582  1.00  0.00    -0.115 SA
HETATM   14  C10 UNL     1      73.576  50.631   7.782  1.00  0.00     0.007 C 
HETATM   15  C11 UNL     1      74.229  49.411   7.290  1.00  0.00     0.011 C 
HETATM   16  C12 UNL     1      73.416  48.456   6.484  1.00  0.00     0.080 C 
ATOM     17  H2  UNL     1      70.787  48.193   9.991  1.00  0.00     0.187 HD
ENDBRANCH   8  10
TORSDOF 1
ENDMDL
