MODEL 1
REMARK VINA RESULT: -5.887236088      0.000      0.000
REMARK  4 active torsions:
REMARK  status: ('A' for Active; 'I' for Inactive)
REMARK    1  A    between atoms: N1_1  and  N2_4 
REMARK       I    between atoms: C1_6  and  N4_8 
REMARK    2  A    between atoms: N4_8  and  C2_10 
REMARK    3  A    between atoms: C2_10  and  C3_11 
REMARK    4  A    between atoms: N5_13  and  C5_14 
ROOT
HETATM    1  C3  UNL     1      17.807 -21.515 -26.305  1.00  0.00     0.067 C 
HETATM    2  C4  UNL     1      16.593 -20.664 -26.140  1.00  0.00     0.282 C 
HETATM    3  N5  UNL     1      15.834 -20.886 -27.364  1.00  0.00     0.100 N 
HETATM    4  C8  UNL     1      16.679 -21.556 -28.297  1.00  0.00     0.310 C 
HETATM    5  C9  UNL     1      18.113 -21.313 -27.782  1.00  0.00     0.205 C 
HETATM    6  F1  UNL     1      18.361 -19.980 -28.061  1.00  0.00    -0.247 F 
ENDROOT
BRANCH   1   7
HETATM    7  C2  UNL     1      18.956 -21.196 -25.420  1.00  0.00     0.131 C 
BRANCH   7   8
HETATM    8  N4  UNL     1      20.236 -21.349 -26.040  1.00  0.00    -0.363 N 
HETATM    9  C1  UNL     1      21.100 -20.229 -26.092  1.00  0.00     0.202 C 
HETATM   10  N2  UNL     1      21.044 -19.454 -27.109  1.00  0.00    -0.280 N 
HETATM   11  N3  UNL     1      22.015 -19.943 -25.051  1.00  0.00    -0.062 NA
ATOM     12  H2  UNL     1      20.386 -19.656 -27.862  1.00  0.00     0.189 HD
ATOM     13  H4  UNL     1      20.519 -22.245 -26.436  1.00  0.00     0.162 HD
BRANCH  10  14
HETATM   14  N1  UNL     1      21.870 -18.342 -27.198  1.00  0.00    -0.343 N 
ATOM     15  H12 UNL     1      22.874 -18.468 -27.081  1.00  0.00     0.176 HD
ATOM     16  H11 UNL     1      21.478 -17.417 -27.376  1.00  0.00     0.176 HD
ENDBRANCH  10  14
ENDBRANCH   7   8
ENDBRANCH   1   7
BRANCH   3  17
HETATM   17  C5  UNL     1      14.620 -21.540 -27.008  1.00  0.00     0.270 C 
HETATM   18  C6  UNL     1      13.819 -21.803 -28.294  1.00  0.00     0.205 C 
HETATM   19  O1  UNL     1      13.435 -23.023 -27.770  1.00  0.00    -0.387 OA
HETATM   20  C7  UNL     1      14.575 -23.022 -26.965  1.00  0.00     0.205 C 
ENDBRANCH   3  17
TORSDOF 4
ENDMDL
MODEL 2
REMARK VINA RESULT: -5.821490866      3.138      6.254
REMARK  4 active torsions:
REMARK  status: ('A' for Active; 'I' for Inactive)
REMARK    1  A    between atoms: N1_1  and  N2_4 
REMARK       I    between atoms: C1_6  and  N4_8 
REMARK    2  A    between atoms: N4_8  and  C2_10 
REMARK    3  A    between atoms: C2_10  and  C3_11 
REMARK    4  A    between atoms: N5_13  and  C5_14 
ROOT
HETATM    1  C3  UNL     1      17.884 -20.831 -25.998  1.00  0.00     0.067 C 
HETATM    2  C4  UNL     1      19.338 -21.114 -25.818  1.00  0.00     0.282 C 
HETATM    3  N5  UNL     1      19.973 -20.445 -26.946  1.00  0.00     0.100 N 
HETATM    4  C8  UNL     1      18.956 -20.076 -27.876  1.00  0.00     0.310 C 
HETATM    5  C9  UNL     1      17.743 -20.955 -27.508  1.00  0.00     0.205 C 
HETATM    6  F1  UNL     1      18.090 -22.224 -27.938  1.00  0.00    -0.247 F 
ENDROOT
BRANCH   1   7
HETATM    7  C2  UNL     1      16.948 -21.706 -25.248  1.00  0.00     0.131 C 
BRANCH   7   8
HETATM    8  N4  UNL     1      15.572 -21.335 -25.369  1.00  0.00    -0.363 N 
HETATM    9  C1  UNL     1      14.664 -22.272 -25.916  1.00  0.00     0.202 C 
HETATM   10  N2  UNL     1      14.457 -22.265 -27.179  1.00  0.00    -0.280 N 
HETATM   11  N3  UNL     1      13.988 -23.217 -25.107  1.00  0.00    -0.062 NA
ATOM     12  H2  UNL     1      14.941 -21.586 -27.766  1.00  0.00     0.189 HD
ATOM     13  H4  UNL     1      15.252 -20.414 -25.067  1.00  0.00     0.162 HD
BRANCH  10  14
HETATM   14  N1  UNL     1      13.578 -23.171 -27.757  1.00  0.00    -0.343 N 
ATOM     15  H12 UNL     1      13.427 -23.132 -28.764  1.00  0.00     0.176 HD
ATOM     16  H11 UNL     1      13.093 -23.863 -27.184  1.00  0.00     0.176 HD
ENDBRANCH  10  14
ENDBRANCH   7   8
ENDBRANCH   1   7
BRANCH   3  17
HETATM   17  C5  UNL     1      20.785 -19.397 -26.428  1.00  0.00     0.270 C 
HETATM   18  C6  UNL     1      21.911 -20.026 -25.593  1.00  0.00     0.205 C 
HETATM   19  O1  UNL     1      22.774 -19.068 -26.088  1.00  0.00    -0.387 OA
HETATM   20  C7  UNL     1      21.955 -18.926 -27.208  1.00  0.00     0.205 C 
ENDBRANCH   3  17
TORSDOF 4
ENDMDL
MODEL 3
REMARK VINA RESULT: -5.112132617      2.041      2.526
REMARK  4 active torsions:
REMARK  status: ('A' for Active; 'I' for Inactive)
REMARK    1  A    between atoms: N1_1  and  N2_4 
REMARK       I    between atoms: C1_6  and  N4_8 
REMARK    2  A    between atoms: N4_8  and  C2_10 
REMARK    3  A    between atoms: C2_10  and  C3_11 
REMARK    4  A    between atoms: N5_13  and  C5_14 
ROOT
HETATM    1  C3  UNL     1      17.757 -20.941 -25.725  1.00  0.00     0.067 C 
HETATM    2  C4  UNL     1      17.516 -21.667 -27.006  1.00  0.00     0.282 C 
HETATM    3  N5  UNL     1      16.105 -21.433 -27.287  1.00  0.00     0.100 N 
HETATM    4  C8  UNL     1      15.502 -20.889 -26.115  1.00  0.00     0.310 C 
HETATM    5  C9  UNL     1      16.471 -21.240 -24.968  1.00  0.00     0.205 C 
HETATM    6  F1  UNL     1      16.309 -22.602 -24.781  1.00  0.00    -0.247 F 
ENDROOT
BRANCH   1   7
HETATM    7  C2  UNL     1      18.981 -21.324 -24.975  1.00  0.00     0.131 C 
BRANCH   7   8
HETATM    8  N4  UNL     1      20.152 -21.449 -25.786  1.00  0.00    -0.363 N 
HETATM    9  C1  UNL     1      20.965 -20.307 -25.983  1.00  0.00     0.202 C 
HETATM   10  N2  UNL     1      20.729 -19.547 -26.984  1.00  0.00    -0.280 N 
HETATM   11  N3  UNL     1      22.023 -19.984 -25.099  1.00  0.00    -0.062 NA
ATOM     12  H2  UNL     1      19.968 -19.777 -27.624  1.00  0.00     0.189 HD
ATOM     13  H4  UNL     1      20.396 -22.343 -26.214  1.00  0.00     0.162 HD
BRANCH  10  14
HETATM   14  N1  UNL     1      21.499 -18.415 -27.210  1.00  0.00    -0.343 N 
ATOM     15  H12 UNL     1      22.508 -18.474 -27.077  1.00  0.00     0.176 HD
ATOM     16  H11 UNL     1      21.063 -17.540 -27.503  1.00  0.00     0.176 HD
ENDBRANCH  10  14
ENDBRANCH   7   8
ENDBRANCH   1   7
BRANCH   3  17
HETATM   17  C5  UNL     1      16.024 -20.653 -28.476  1.00  0.00     0.270 C 
HETATM   18  C6  UNL     1      17.453 -20.354 -28.955  1.00  0.00     0.205 C 
HETATM   19  O1  UNL     1      17.021 -20.524 -30.257  1.00  0.00    -0.387 OA
HETATM   20  C7  UNL     1      15.983 -21.333 -29.793  1.00  0.00     0.205 C 
ENDBRANCH   3  17
TORSDOF 4
ENDMDL
MODEL 4
REMARK VINA RESULT: -4.983146903      1.044      1.396
REMARK  4 active torsions:
REMARK  status: ('A' for Active; 'I' for Inactive)
REMARK    1  A    between atoms: N1_1  and  N2_4 
REMARK       I    between atoms: C1_6  and  N4_8 
REMARK    2  A    between atoms: N4_8  and  C2_10 
REMARK    3  A    between atoms: C2_10  and  C3_11 
REMARK    4  A    between atoms: N5_13  and  C5_14 
ROOT
HETATM    1  C3  UNL     1      17.912 -21.693 -26.844  1.00  0.00     0.067 C 
HETATM    2  C4  UNL     1      16.906 -20.726 -26.316  1.00  0.00     0.282 C 
HETATM    3  N5  UNL     1      15.803 -20.806 -27.264  1.00  0.00     0.100 N 
HETATM    4  C8  UNL     1      16.256 -21.517 -28.415  1.00  0.00     0.310 C 
HETATM    5  C9  UNL     1      17.795 -21.454 -28.342  1.00  0.00     0.205 C 
HETATM    6  F1  UNL     1      18.105 -20.144 -28.663  1.00  0.00    -0.247 F 
ENDROOT
BRANCH   1   7
HETATM    7  C2  UNL     1      19.298 -21.543 -26.333  1.00  0.00     0.131 C 
BRANCH   7   8
HETATM    8  N4  UNL     1      19.593 -20.246 -25.807  1.00  0.00    -0.363 N 
HETATM    9  C1  UNL     1      20.637 -19.496 -26.401  1.00  0.00     0.202 C 
HETATM   10  N2  UNL     1      21.823 -19.615 -25.937  1.00  0.00    -0.280 N 
HETATM   11  N3  UNL     1      20.402 -18.628 -27.494  1.00  0.00    -0.062 NA
ATOM     12  H2  UNL     1      21.996 -20.240 -25.149  1.00  0.00     0.189 HD
ATOM     13  H4  UNL     1      19.064 -19.870 -25.021  1.00  0.00     0.162 HD
BRANCH  10  14
HETATM   14  N1  UNL     1      22.876 -18.902 -26.494  1.00  0.00    -0.343 N 
ATOM     15  H12 UNL     1      22.760 -17.901 -26.649  1.00  0.00     0.176 HD
ATOM     16  H11 UNL     1      23.747 -19.371 -26.742  1.00  0.00     0.176 HD
ENDBRANCH  10  14
ENDBRANCH   7   8
ENDBRANCH   1   7
BRANCH   3  17
HETATM   17  C5  UNL     1      14.678 -21.343 -26.576  1.00  0.00     0.270 C 
HETATM   18  C6  UNL     1      14.484 -22.798 -27.029  1.00  0.00     0.205 C 
HETATM   19  O1  UNL     1      14.148 -23.127 -25.730  1.00  0.00    -0.387 OA
HETATM   20  C7  UNL     1      14.877 -22.028 -25.276  1.00  0.00     0.205 C 
ENDBRANCH   3  17
TORSDOF 4
ENDMDL
MODEL 5
REMARK VINA RESULT: -4.782995085      3.029      6.298
REMARK  4 active torsions:
REMARK  status: ('A' for Active; 'I' for Inactive)
REMARK    1  A    between atoms: N1_1  and  N2_4 
REMARK       I    between atoms: C1_6  and  N4_8 
REMARK    2  A    between atoms: N4_8  and  C2_10 
REMARK    3  A    between atoms: C2_10  and  C3_11 
REMARK    4  A    between atoms: N5_13  and  C5_14 
ROOT
HETATM    1  C3  UNL     1      18.067 -21.268 -27.523  1.00  0.00     0.067 C 
HETATM    2  C4  UNL     1      18.911 -20.041 -27.431  1.00  0.00     0.282 C 
HETATM    3  N5  UNL     1      19.613 -20.186 -26.163  1.00  0.00     0.100 N 
HETATM    4  C8  UNL     1      18.997 -21.244 -25.431  1.00  0.00     0.310 C 
HETATM    5  C9  UNL     1      17.609 -21.422 -26.081  1.00  0.00     0.205 C 
HETATM    6  F1  UNL     1      16.888 -20.316 -25.667  1.00  0.00    -0.247 F 
ENDROOT
BRANCH   1   7
HETATM    7  C2  UNL     1      16.944 -21.221 -28.493  1.00  0.00     0.131 C 
BRANCH   7   8
HETATM    8  N4  UNL     1      16.154 -22.412 -28.537  1.00  0.00    -0.363 N 
HETATM    9  C1  UNL     1      14.951 -22.454 -27.791  1.00  0.00     0.202 C 
HETATM   10  N2  UNL     1      14.987 -22.891 -26.589  1.00  0.00    -0.280 N 
HETATM   11  N3  UNL     1      13.719 -22.022 -28.337  1.00  0.00    -0.062 NA
ATOM     12  H2  UNL     1      15.872 -23.204 -26.191  1.00  0.00     0.189 HD
ATOM     13  H4  UNL     1      16.451 -23.214 -29.093  1.00  0.00     0.162 HD
BRANCH  10  14
HETATM   14  N1  UNL     1      13.831 -22.944 -25.821  1.00  0.00    -0.343 N 
ATOM     15  H12 UNL     1      13.006 -22.440 -26.144  1.00  0.00     0.176 HD
ATOM     16  H11 UNL     1      13.809 -23.478 -24.952  1.00  0.00     0.176 HD
ENDBRANCH  10  14
ENDBRANCH   7   8
ENDBRANCH   1   7
BRANCH   3  17
HETATM   17  C5  UNL     1      21.001 -20.323 -26.449  1.00  0.00     0.270 C 
HETATM   18  C6  UNL     1      21.525 -18.970 -26.955  1.00  0.00     0.205 C 
HETATM   19  O1  UNL     1      22.693 -19.191 -26.251  1.00  0.00    -0.387 OA
HETATM   20  C7  UNL     1      21.997 -20.038 -25.387  1.00  0.00     0.205 C 
ENDBRANCH   3  17
TORSDOF 4
ENDMDL
