MODEL 1
REMARK VINA RESULT: -8.087177284      0.000      0.000
REMARK  6 active torsions:
REMARK  status: ('A' for Active; 'I' for Inactive)
REMARK    1  A    between atoms: C4_8  and  C5_9 
REMARK       I    between atoms: C5_9  and  N2_11 
REMARK    2  A    between atoms: N2_11  and  C6_13 
REMARK    3  A    between atoms: C7_14  and  C8_15 
REMARK    4  A    between atoms: C8_15  and  N3_16 
REMARK    5  A    between atoms: C15_24  and  C16_25 
REMARK    6  A    between atoms: C17_28  and  N4_29 
ROOT
HETATM    1  C6  UNL     1      35.841  26.915  27.465  1.00  0.00     0.088 A 
HETATM    2  C7  UNL     1      37.062  26.346  27.259  1.00  0.00     0.050 A 
HETATM    3  S2  UNL     1      38.084  27.686  27.033  1.00  0.00    -0.077 SA
HETATM    4  C15 UNL     1      36.945  28.938  27.205  1.00  0.00     0.117 A 
HETATM    5  C17 UNL     1      35.776  28.266  27.437  1.00  0.00     0.154 A 
ENDROOT
BRANCH   1   6
HETATM    6  N2  UNL     1      34.630  26.106  27.709  1.00  0.00    -0.319 N 
HETATM    7  C5  UNL     1      34.291  25.755  29.008  1.00  0.00     0.260 C 
HETATM    8  O1  UNL     1      35.081  26.163  29.926  1.00  0.00    -0.267 OA
ATOM      9  H2  UNL     1      34.047  25.807  26.928  1.00  0.00     0.169 HD
BRANCH   7  10
HETATM   10  C4  UNL     1      33.116  24.955  29.439  1.00  0.00     0.085 A 
HETATM   11  C2  UNL     1      33.216  23.670  29.888  1.00  0.00     0.014 A 
HETATM   12  C1  UNL     1      34.406  22.746  30.011  1.00  0.00     0.059 C 
HETATM   13  S1  UNL     1      31.581  23.278  30.290  1.00  0.00    -0.018 SA
HETATM   14  N1  UNL     1      30.871  24.718  29.880  1.00  0.00    -0.316 N 
HETATM   15  C3  UNL     1      31.850  25.484  29.447  1.00  0.00     0.126 A 
ATOM     16  H1  UNL     1      29.882  24.961  29.948  1.00  0.00     0.175 HD
HETATM   17 CL1  UNL     1      31.459  27.153  28.911  1.00  0.00    -0.063 Cl
ENDBRANCH   7  10
ENDBRANCH   1   6
BRANCH   2  18
HETATM   18  C8  UNL     1      37.333  24.869  27.264  1.00  0.00     0.111 C 
BRANCH  18  19
HETATM   19  N3  UNL     1      38.340  24.483  28.156  1.00  0.00    -0.369 N 
HETATM   20  C9  UNL     1      38.009  23.838  29.359  1.00  0.00     0.063 C 
HETATM   21  C10 UNL     1      39.256  23.561  30.173  1.00  0.00     0.044 C 
HETATM   22  C11 UNL     1      40.028  24.850  30.352  1.00  0.00     0.005 C 
HETATM   23  C12 UNL     1      41.169  24.820  29.341  1.00  0.00     0.002 C 
HETATM   24  C13 UNL     1      40.625  25.129  27.960  1.00  0.00     0.020 C 
HETATM   25  C14 UNL     1      39.591  24.098  27.561  1.00  0.00     0.127 C 
ENDBRANCH  18  19
ENDBRANCH   2  18
BRANCH   5  26
HETATM   26  N4  UNL     1      34.548  29.029  27.632  1.00  0.00    -0.112 N 
HETATM   27  O4  UNL     1      34.124  29.223  28.779  1.00  0.00    -0.532 OA
HETATM   28  O5  UNL     1      33.916  29.499  26.535  1.00  0.00    -0.532 OA
ENDBRANCH   5  26
BRANCH   4  29
HETATM   29  C16 UNL     1      37.175  30.401  27.124  1.00  0.00     0.219 C 
HETATM   30  O2  UNL     1      36.990  31.066  28.155  1.00  0.00    -0.643 OA
HETATM   31  O3  UNL     1      37.577  30.996  25.963  1.00  0.00    -0.643 OA
ENDBRANCH   4  29
TORSDOF 6
ENDMDL
MODEL 2
REMARK VINA RESULT: -7.902135843      1.220      1.631
REMARK  6 active torsions:
REMARK  status: ('A' for Active; 'I' for Inactive)
REMARK    1  A    between atoms: C4_8  and  C5_9 
REMARK       I    between atoms: C5_9  and  N2_11 
REMARK    2  A    between atoms: N2_11  and  C6_13 
REMARK    3  A    between atoms: C7_14  and  C8_15 
REMARK    4  A    between atoms: C8_15  and  N3_16 
REMARK    5  A    between atoms: C15_24  and  C16_25 
REMARK    6  A    between atoms: C17_28  and  N4_29 
ROOT
HETATM    1  C6  UNL     1      35.939  26.915  27.542  1.00  0.00     0.088 A 
HETATM    2  C7  UNL     1      37.175  26.376  27.344  1.00  0.00     0.050 A 
HETATM    3  S2  UNL     1      38.157  27.738  27.072  1.00  0.00    -0.077 SA
HETATM    4  C15 UNL     1      36.982  28.961  27.216  1.00  0.00     0.117 A 
HETATM    5  C17 UNL     1      35.835  28.263  27.476  1.00  0.00     0.154 A 
ENDROOT
BRANCH   1   6
HETATM    6  N2  UNL     1      34.754  26.079  27.818  1.00  0.00    -0.319 N 
HETATM    7  C5  UNL     1      34.456  25.724  29.126  1.00  0.00     0.260 C 
HETATM    8  O1  UNL     1      35.258  26.152  30.023  1.00  0.00    -0.267 OA
ATOM      9  H2  UNL     1      34.158  25.765  27.052  1.00  0.00     0.169 HD
BRANCH   7  10
HETATM   10  C4  UNL     1      33.310  24.897  29.587  1.00  0.00     0.085 A 
HETATM   11  C2  UNL     1      32.030  25.367  29.643  1.00  0.00     0.014 A 
HETATM   12  C1  UNL     1      31.455  26.733  29.349  1.00  0.00     0.059 C 
HETATM   13  S1  UNL     1      31.141  23.986  30.182  1.00  0.00    -0.018 SA
HETATM   14  N1  UNL     1      32.398  22.913  30.310  1.00  0.00    -0.316 N 
HETATM   15  C3  UNL     1      33.472  23.584  29.950  1.00  0.00     0.126 A 
ATOM     16  H1  UNL     1      32.350  21.938  30.604  1.00  0.00     0.175 HD
HETATM   17 CL1  UNL     1      35.054  22.734  29.955  1.00  0.00    -0.063 Cl
ENDBRANCH   7  10
ENDBRANCH   1   6
BRANCH   2  18
HETATM   18  C8  UNL     1      37.489  24.909  27.390  1.00  0.00     0.111 C 
BRANCH  18  19
HETATM   19  N3  UNL     1      38.566  24.588  28.224  1.00  0.00    -0.369 N 
HETATM   20  C9  UNL     1      38.336  24.041  29.497  1.00  0.00     0.063 C 
HETATM   21  C10 UNL     1      39.646  23.821  30.224  1.00  0.00     0.044 C 
HETATM   22  C11 UNL     1      40.430  25.115  30.237  1.00  0.00     0.005 C 
HETATM   23  C12 UNL     1      41.484  24.999  29.140  1.00  0.00     0.002 C 
HETATM   24  C13 UNL     1      40.827  25.202  27.790  1.00  0.00     0.020 C 
HETATM   25  C14 UNL     1      39.764  24.149  27.559  1.00  0.00     0.127 C 
ENDBRANCH  18  19
ENDBRANCH   2  18
BRANCH   5  26
HETATM   26  N4  UNL     1      34.586  28.995  27.657  1.00  0.00    -0.112 N 
HETATM   27  O4  UNL     1      34.125  29.146  28.797  1.00  0.00    -0.532 OA
HETATM   28  O5  UNL     1      33.977  29.487  26.557  1.00  0.00    -0.532 OA
ENDBRANCH   5  26
BRANCH   4  29
HETATM   29  C16 UNL     1      37.170  30.427  27.091  1.00  0.00     0.219 C 
HETATM   30  O2  UNL     1      36.954  31.118  28.099  1.00  0.00    -0.643 OA
HETATM   31  O3  UNL     1      37.565  30.997  25.915  1.00  0.00    -0.643 OA
ENDBRANCH   4  29
TORSDOF 6
ENDMDL
MODEL 3
REMARK VINA RESULT: -7.446658677      3.521      5.674
REMARK  6 active torsions:
REMARK  status: ('A' for Active; 'I' for Inactive)
REMARK    1  A    between atoms: C4_8  and  C5_9 
REMARK       I    between atoms: C5_9  and  N2_11 
REMARK    2  A    between atoms: N2_11  and  C6_13 
REMARK    3  A    between atoms: C7_14  and  C8_15 
REMARK    4  A    between atoms: C8_15  and  N3_16 
REMARK    5  A    between atoms: C15_24  and  C16_25 
REMARK    6  A    between atoms: C17_28  and  N4_29 
ROOT
HETATM    1  C6  UNL     1      38.392  26.505  28.603  1.00  0.00     0.088 A 
HETATM    2  C7  UNL     1      37.606  26.971  27.592  1.00  0.00     0.050 A 
HETATM    3  S2  UNL     1      38.567  28.178  26.874  1.00  0.00    -0.077 SA
HETATM    4  C15 UNL     1      39.943  28.066  27.869  1.00  0.00     0.117 A 
HETATM    5  C17 UNL     1      39.611  27.073  28.750  1.00  0.00     0.154 A 
ENDROOT
BRANCH   1   6
HETATM    6  N2  UNL     1      37.948  25.426  29.508  1.00  0.00    -0.319 N 
HETATM    7  C5  UNL     1      38.315  24.115  29.243  1.00  0.00     0.260 C 
HETATM    8  O1  UNL     1      39.027  23.930  28.198  1.00  0.00    -0.267 OA
ATOM      9  H2  UNL     1      37.374  25.644  30.322  1.00  0.00     0.169 HD
BRANCH   7  10
HETATM   10  C4  UNL     1      37.965  22.911  30.040  1.00  0.00     0.085 A 
HETATM   11  C2  UNL     1      38.884  22.201  30.757  1.00  0.00     0.014 A 
HETATM   12  C1  UNL     1      40.381  22.360  30.894  1.00  0.00     0.059 C 
HETATM   13  S1  UNL     1      37.920  20.979  31.508  1.00  0.00    -0.018 SA
HETATM   14  N1  UNL     1      36.442  21.413  30.894  1.00  0.00    -0.316 N 
HETATM   15  C3  UNL     1      36.671  22.464  30.135  1.00  0.00     0.126 A 
ATOM     16  H1  UNL     1      35.545  20.961  31.068  1.00  0.00     0.175 HD
HETATM   17 CL1  UNL     1      35.283  23.230  29.293  1.00  0.00    -0.063 Cl
ENDBRANCH   7  10
ENDBRANCH   1   6
BRANCH   2  18
HETATM   18  C8  UNL     1      36.233  26.460  27.266  1.00  0.00     0.111 C 
BRANCH  18  19
HETATM   19  N3  UNL     1      35.204  27.152  27.916  1.00  0.00    -0.369 N 
HETATM   20  C9  UNL     1      34.449  26.519  28.918  1.00  0.00     0.063 C 
HETATM   21  C10 UNL     1      33.373  27.448  29.437  1.00  0.00     0.044 C 
HETATM   22  C11 UNL     1      32.553  27.960  28.272  1.00  0.00     0.005 C 
HETATM   23  C12 UNL     1      33.056  29.367  27.968  1.00  0.00     0.002 C 
HETATM   24  C13 UNL     1      34.377  29.279  27.231  1.00  0.00     0.020 C 
HETATM   25  C14 UNL     1      35.407  28.566  28.082  1.00  0.00     0.127 C 
ENDBRANCH  18  19
ENDBRANCH   2  18
BRANCH   5  26
HETATM   26  N4  UNL     1      40.569  26.695  29.784  1.00  0.00    -0.112 N 
HETATM   27  O4  UNL     1      40.424  27.122  30.937  1.00  0.00    -0.532 OA
HETATM   28  O5  UNL     1      41.589  25.882  29.432  1.00  0.00    -0.532 OA
ENDBRANCH   5  26
BRANCH   4  29
HETATM   29  C16 UNL     1      41.196  28.855  27.788  1.00  0.00     0.219 C 
HETATM   30  O2  UNL     1      41.385  29.718  28.660  1.00  0.00    -0.643 OA
HETATM   31  O3  UNL     1      42.108  28.645  26.794  1.00  0.00    -0.643 OA
ENDBRANCH   4  29
TORSDOF 6
ENDMDL
MODEL 4
REMARK VINA RESULT: -7.395490524      3.140      6.053
REMARK  6 active torsions:
REMARK  status: ('A' for Active; 'I' for Inactive)
REMARK    1  A    between atoms: C4_8  and  C5_9 
REMARK       I    between atoms: C5_9  and  N2_11 
REMARK    2  A    between atoms: N2_11  and  C6_13 
REMARK    3  A    between atoms: C7_14  and  C8_15 
REMARK    4  A    between atoms: C8_15  and  N3_16 
REMARK    5  A    between atoms: C15_24  and  C16_25 
REMARK    6  A    between atoms: C17_28  and  N4_29 
ROOT
HETATM    1  C6  UNL     1      37.673  26.309  27.838  1.00  0.00     0.088 A 
HETATM    2  C7  UNL     1      36.336  26.056  27.770  1.00  0.00     0.050 A 
HETATM    3  S2  UNL     1      35.665  27.587  27.453  1.00  0.00    -0.077 SA
HETATM    4  C15 UNL     1      37.092  28.514  27.415  1.00  0.00     0.117 A 
HETATM    5  C17 UNL     1      38.071  27.589  27.654  1.00  0.00     0.154 A 
ENDROOT
BRANCH   1   6
HETATM    6  N2  UNL     1      38.659  25.243  28.102  1.00  0.00    -0.319 N 
HETATM    7  C5  UNL     1      39.056  24.984  29.407  1.00  0.00     0.260 C 
HETATM    8  O1  UNL     1      38.528  25.715  30.311  1.00  0.00    -0.267 OA
ATOM      9  H2  UNL     1      39.047  24.700  27.331  1.00  0.00     0.169 HD
BRANCH   7  10
HETATM   10  C4  UNL     1      40.027  23.954  29.856  1.00  0.00     0.085 A 
HETATM   11  C2  UNL     1      39.648  22.752  30.381  1.00  0.00     0.014 A 
HETATM   12  C1  UNL     1      38.281  22.187  30.691  1.00  0.00     0.059 C 
HETATM   13  S1  UNL     1      41.160  21.964  30.661  1.00  0.00    -0.018 SA
HETATM   14  N1  UNL     1      42.171  23.160  30.118  1.00  0.00    -0.316 N 
HETATM   15  C3  UNL     1      41.381  24.139  29.730  1.00  0.00     0.126 A 
ATOM     16  H1  UNL     1      43.190  23.142  30.090  1.00  0.00     0.175 HD
HETATM   17 CL1  UNL     1      42.129  25.630  29.064  1.00  0.00    -0.063 Cl
ENDBRANCH   7  10
ENDBRANCH   1   6
BRANCH   2  18
HETATM   18  C8  UNL     1      35.707  24.704  27.936  1.00  0.00     0.111 C 
BRANCH  18  19
HETATM   19  N3  UNL     1      34.404  24.745  28.445  1.00  0.00    -0.369 N 
HETATM   20  C9  UNL     1      33.415  23.891  27.928  1.00  0.00     0.063 C 
HETATM   21  C10 UNL     1      32.085  24.151  28.603  1.00  0.00     0.044 C 
HETATM   22  C11 UNL     1      31.753  25.623  28.496  1.00  0.00     0.005 C 
HETATM   23  C12 UNL     1      32.101  26.249  29.843  1.00  0.00     0.002 C 
HETATM   24  C13 UNL     1      33.604  26.413  29.946  1.00  0.00     0.020 C 
HETATM   25  C14 UNL     1      34.287  25.066  29.842  1.00  0.00     0.127 C 
ENDBRANCH  18  19
ENDBRANCH   2  18
BRANCH   5  26
HETATM   26  N4  UNL     1      39.461  28.027  27.703  1.00  0.00    -0.112 N 
HETATM   27  O4  UNL     1      40.207  27.805  26.739  1.00  0.00    -0.532 OA
HETATM   28  O5  UNL     1      39.883  28.668  28.814  1.00  0.00    -0.532 OA
ENDBRANCH   5  26
BRANCH   4  29
HETATM   29  C16 UNL     1      37.228  29.971  27.175  1.00  0.00     0.219 C 
HETATM   30  O2  UNL     1      36.766  30.737  28.035  1.00  0.00    -0.643 OA
HETATM   31  O3  UNL     1      37.838  30.455  26.053  1.00  0.00    -0.643 OA
ENDBRANCH   4  29
TORSDOF 6
ENDMDL
MODEL 5
REMARK VINA RESULT: -7.280294435      7.122      9.585
REMARK  6 active torsions:
REMARK  status: ('A' for Active; 'I' for Inactive)
REMARK    1  A    between atoms: C4_8  and  C5_9 
REMARK       I    between atoms: C5_9  and  N2_11 
REMARK    2  A    between atoms: N2_11  and  C6_13 
REMARK    3  A    between atoms: C7_14  and  C8_15 
REMARK    4  A    between atoms: C8_15  and  N3_16 
REMARK    5  A    between atoms: C15_24  and  C16_25 
REMARK    6  A    between atoms: C17_28  and  N4_29 
ROOT
HETATM    1  C6  UNL     1      43.810  28.173  26.555  1.00  0.00     0.088 A 
HETATM    2  C7  UNL     1      44.227  29.434  26.863  1.00  0.00     0.050 A 
HETATM    3  S2  UNL     1      45.842  29.202  27.348  1.00  0.00    -0.077 SA
HETATM    4  C15 UNL     1      45.953  27.516  27.151  1.00  0.00     0.117 A 
HETATM    5  C17 UNL     1      44.707  27.171  26.704  1.00  0.00     0.154 A 
ENDROOT
BRANCH   1   6
HETATM    6  N2  UNL     1      42.441  27.896  26.079  1.00  0.00    -0.319 N 
HETATM    7  C5  UNL     1      41.497  27.389  26.961  1.00  0.00     0.260 C 
HETATM    8  O1  UNL     1      41.898  27.185  28.157  1.00  0.00    -0.267 OA
ATOM      9  H2  UNL     1      42.190  28.076  25.107  1.00  0.00     0.169 HD
BRANCH   7  10
HETATM   10  C4  UNL     1      40.081  27.057  26.660  1.00  0.00     0.085 A 
HETATM   11  C2  UNL     1      39.027  27.746  27.187  1.00  0.00     0.014 A 
HETATM   12  C1  UNL     1      38.977  28.886  28.177  1.00  0.00     0.059 C 
HETATM   13  S1  UNL     1      37.664  26.973  26.459  1.00  0.00    -0.018 SA
HETATM   14  N1  UNL     1      38.471  25.846  25.549  1.00  0.00    -0.316 N 
HETATM   15  C3  UNL     1      39.749  26.049  25.790  1.00  0.00     0.126 A 
ATOM     16  H1  UNL     1      38.063  25.143  24.933  1.00  0.00     0.175 HD
HETATM   17 CL1  UNL     1      40.952  25.004  24.962  1.00  0.00    -0.063 Cl
ENDBRANCH   7  10
ENDBRANCH   1   6
BRANCH   2  18
HETATM   18  C8  UNL     1      43.383  30.669  26.752  1.00  0.00     0.111 C 
BRANCH  18  19
HETATM   19  N3  UNL     1      44.121  31.840  26.541  1.00  0.00    -0.369 N 
HETATM   20  C9  UNL     1      44.626  32.138  25.264  1.00  0.00     0.063 C 
HETATM   21  C10 UNL     1      45.422  33.425  25.295  1.00  0.00     0.044 C 
HETATM   22  C11 UNL     1      46.479  33.328  26.374  1.00  0.00     0.005 C 
HETATM   23  C12 UNL     1      45.948  34.100  27.577  1.00  0.00     0.002 C 
HETATM   24  C13 UNL     1      44.898  33.268  28.283  1.00  0.00     0.020 C 
HETATM   25  C14 UNL     1      43.746  32.971  27.346  1.00  0.00     0.127 C 
ENDBRANCH  18  19
ENDBRANCH   2  18
BRANCH   5  26
HETATM   26  N4  UNL     1      44.418  25.769  26.425  1.00  0.00    -0.112 N 
HETATM   27  O4  UNL     1      44.347  25.381  25.252  1.00  0.00    -0.532 OA
HETATM   28  O5  UNL     1      44.239  24.940  27.477  1.00  0.00    -0.532 OA
ENDBRANCH   5  26
BRANCH   4  29
HETATM   29  C16 UNL     1      47.125  26.643  27.401  1.00  0.00     0.219 C 
HETATM   30  O2  UNL     1      47.878  26.409  26.443  1.00  0.00    -0.643 OA
HETATM   31  O3  UNL     1      47.370  26.115  28.637  1.00  0.00    -0.643 OA
ENDBRANCH   4  29
TORSDOF 6
ENDMDL
