MODEL 1
REMARK VINA RESULT: -6.310384733      0.000      0.000
REMARK  5 active torsions:
REMARK  status: ('A' for Active; 'I' for Inactive)
REMARK    1  A    between atoms: N2_14  and  C10_15 
REMARK    2  A    between atoms: C10_15  and  C11_16 
REMARK    3  A    between atoms: C11_16  and  C12_17 
REMARK    4  A    between atoms: C12_17  and  C13_18 
REMARK    5  A    between atoms: C13_18  and  O2_19 
ROOT
HETATM    1  O1  UNL     1      19.051   4.066  14.057  1.00  0.00    -0.273 OA
HETATM    2  C1  UNL     1      17.871   4.095  14.469  1.00  0.00     0.220 C 
HETATM    3  C2  UNL     1      17.371   3.433  15.680  1.00  0.00     0.114 C 
HETATM    4  C3  UNL     1      16.005   2.852  15.587  1.00  0.00    -0.007 C 
HETATM    5  C4  UNL     1      15.259   2.907  16.920  1.00  0.00     0.013 C 
HETATM    6  C5  UNL     1      14.260   1.760  16.963  1.00  0.00     0.028 C 
HETATM    7  C6  UNL     1      15.002   0.431  17.150  1.00  0.00     0.232 C 
HETATM    8  N1  UNL     1      16.274   0.589  16.443  1.00  0.00    -0.074 N 
ATOM      9  H11 UNL     1      16.720  -0.308  16.254  1.00  0.00     0.277 HD
ATOM     10  H12 UNL     1      16.996   0.992  17.040  1.00  0.00     0.277 HD
HETATM   11  C7  UNL     1      16.076   1.365  15.228  1.00  0.00     0.242 C 
HETATM   12  C8  UNL     1      15.118   3.545  14.580  1.00  0.00     0.031 C 
HETATM   13  C9  UNL     1      15.614   4.968  14.429  1.00  0.00     0.126 C 
HETATM   14  N2  UNL     1      16.893   4.835  13.709  1.00  0.00    -0.352 N 
ENDROOT
BRANCH  14  15
HETATM   15  C10 UNL     1      17.131   5.375  12.409  1.00  0.00     0.126 C 
BRANCH  15  16
HETATM   16  C11 UNL     1      16.397   4.669  11.317  1.00  0.00     0.022 C 
BRANCH  16  17
HETATM   17  C12 UNL     1      17.123   3.419  10.844  1.00  0.00     0.028 C 
BRANCH  17  18
HETATM   18  C13 UNL     1      16.497   2.181  11.476  1.00  0.00     0.164 C 
BRANCH  18  19
HETATM   19  O2  UNL     1      15.186   1.989  11.042  1.00  0.00    -0.401 OA
ATOM     20  H2  UNL     1      15.157   1.584  10.183  1.00  0.00     0.209 HD
ENDBRANCH  18  19
ENDBRANCH  17  18
ENDBRANCH  16  17
ENDBRANCH  15  16
ENDBRANCH  14  15
TORSDOF 5
ENDMDL
MODEL 2
REMARK VINA RESULT: -6.180386142      2.379      5.387
REMARK  5 active torsions:
REMARK  status: ('A' for Active; 'I' for Inactive)
REMARK    1  A    between atoms: N2_14  and  C10_15 
REMARK    2  A    between atoms: C10_15  and  C11_16 
REMARK    3  A    between atoms: C11_16  and  C12_17 
REMARK    4  A    between atoms: C12_17  and  C13_18 
REMARK    5  A    between atoms: C13_18  and  O2_19 
ROOT
HETATM    1  O1  UNL     1      16.758   1.511  14.645  1.00  0.00    -0.273 OA
HETATM    2  C1  UNL     1      16.696   2.745  14.462  1.00  0.00     0.220 C 
HETATM    3  C2  UNL     1      17.381   3.490  13.398  1.00  0.00     0.114 C 
HETATM    4  C3  UNL     1      17.900   4.832  13.773  1.00  0.00    -0.007 C 
HETATM    5  C4  UNL     1      17.863   5.816  12.604  1.00  0.00     0.013 C 
HETATM    6  C5  UNL     1      18.968   6.844  12.802  1.00  0.00     0.028 C 
HETATM    7  C6  UNL     1      20.333   6.197  12.538  1.00  0.00     0.232 C 
HETATM    8  N1  UNL     1      20.203   4.809  12.984  1.00  0.00    -0.074 N 
ATOM      9  H11 UNL     1      21.110   4.366  13.125  1.00  0.00     0.277 HD
ATOM     10  H12 UNL     1      19.853   4.201  12.244  1.00  0.00     0.277 HD
HETATM   11  C7  UNL     1      19.374   4.745  14.178  1.00  0.00     0.242 C 
HETATM   12  C8  UNL     1      17.133   5.487  14.898  1.00  0.00     0.031 C 
HETATM   13  C9  UNL     1      15.727   4.922  14.888  1.00  0.00     0.126 C 
HETATM   14  N2  UNL     1      15.887   3.535  15.359  1.00  0.00    -0.352 N 
ENDROOT
BRANCH  14  15
HETATM   15  C10 UNL     1      15.309   3.035  16.565  1.00  0.00     0.126 C 
BRANCH  15  16
HETATM   16  C11 UNL     1      13.931   2.486  16.393  1.00  0.00     0.022 C 
BRANCH  16  17
HETATM   17  C12 UNL     1      13.744   1.155  17.107  1.00  0.00     0.028 C 
BRANCH  17  18
HETATM   18  C13 UNL     1      15.093   0.614  17.563  1.00  0.00     0.164 C 
BRANCH  18  19
HETATM   19  O2  UNL     1      15.575  -0.365  16.695  1.00  0.00    -0.401 OA
ATOM     20  H2  UNL     1      16.482  -0.582  16.879  1.00  0.00     0.209 HD
ENDBRANCH  18  19
ENDBRANCH  17  18
ENDBRANCH  16  17
ENDBRANCH  15  16
ENDBRANCH  14  15
TORSDOF 5
ENDMDL
MODEL 3
REMARK VINA RESULT: -5.971467418      2.512      5.495
REMARK  5 active torsions:
REMARK  status: ('A' for Active; 'I' for Inactive)
REMARK    1  A    between atoms: N2_14  and  C10_15 
REMARK    2  A    between atoms: C10_15  and  C11_16 
REMARK    3  A    between atoms: C11_16  and  C12_17 
REMARK    4  A    between atoms: C12_17  and  C13_18 
REMARK    5  A    between atoms: C13_18  and  O2_19 
ROOT
HETATM    1  O1  UNL     1      16.621   2.176  13.077  1.00  0.00    -0.273 OA
HETATM    2  C1  UNL     1      16.492   3.372  13.417  1.00  0.00     0.220 C 
HETATM    3  C2  UNL     1      17.186   4.515  12.809  1.00  0.00     0.114 C 
HETATM    4  C3  UNL     1      17.601   5.596  13.742  1.00  0.00    -0.007 C 
HETATM    5  C4  UNL     1      17.566   6.975  13.085  1.00  0.00     0.013 C 
HETATM    6  C5  UNL     1      18.593   7.864  13.770  1.00  0.00     0.028 C 
HETATM    7  C6  UNL     1      20.008   7.432  13.364  1.00  0.00     0.232 C 
HETATM    8  N1  UNL     1      19.939   5.981  13.186  1.00  0.00    -0.074 N 
ATOM      9  H11 UNL     1      20.863   5.550  13.198  1.00  0.00     0.277 HD
ATOM     10  H12 UNL     1      19.667   5.725  12.237  1.00  0.00     0.277 HD
HETATM   11  C7  UNL     1      19.054   5.397  14.183  1.00  0.00     0.242 C 
HETATM   12  C8  UNL     1      16.737   5.697  14.977  1.00  0.00     0.031 C 
HETATM   13  C9  UNL     1      15.371   5.140  14.632  1.00  0.00     0.126 C 
HETATM   14  N2  UNL     1      15.590   3.689  14.498  1.00  0.00    -0.352 N 
ENDROOT
BRANCH  14  15
HETATM   15  C10 UNL     1      14.980   2.713  15.344  1.00  0.00     0.126 C 
BRANCH  15  16
HETATM   16  C11 UNL     1      14.597   3.235  16.690  1.00  0.00     0.022 C 
BRANCH  16  17
HETATM   17  C12 UNL     1      14.647   2.159  17.764  1.00  0.00     0.028 C 
BRANCH  17  18
HETATM   18  C13 UNL     1      14.153   0.833  17.199  1.00  0.00     0.164 C 
BRANCH  18  19
HETATM   19  O2  UNL     1      15.097  -0.179  17.361  1.00  0.00    -0.401 OA
ATOM     20  H2  UNL     1      14.686  -1.022  17.516  1.00  0.00     0.209 HD
ENDBRANCH  18  19
ENDBRANCH  17  18
ENDBRANCH  16  17
ENDBRANCH  15  16
ENDBRANCH  14  15
TORSDOF 5
ENDMDL
MODEL 4
REMARK VINA RESULT: -5.927995078      1.488      1.958
REMARK  5 active torsions:
REMARK  status: ('A' for Active; 'I' for Inactive)
REMARK    1  A    between atoms: N2_14  and  C10_15 
REMARK    2  A    between atoms: C10_15  and  C11_16 
REMARK    3  A    between atoms: C11_16  and  C12_17 
REMARK    4  A    between atoms: C12_17  and  C13_18 
REMARK    5  A    between atoms: C13_18  and  O2_19 
ROOT
HETATM    1  O1  UNL     1      18.807   3.971  13.978  1.00  0.00    -0.273 OA
HETATM    2  C1  UNL     1      17.661   3.990  14.478  1.00  0.00     0.220 C 
HETATM    3  C2  UNL     1      17.259   3.325  15.723  1.00  0.00     0.114 C 
HETATM    4  C3  UNL     1      15.894   2.734  15.733  1.00  0.00    -0.007 C 
HETATM    5  C4  UNL     1      15.252   2.783  17.119  1.00  0.00     0.013 C 
HETATM    6  C5  UNL     1      14.267   1.629  17.237  1.00  0.00     0.028 C 
HETATM    7  C6  UNL     1      15.030   0.305  17.366  1.00  0.00     0.232 C 
HETATM    8  N1  UNL     1      16.244   0.472  16.564  1.00  0.00    -0.074 N 
ATOM      9  H11 UNL     1      16.681  -0.421  16.341  1.00  0.00     0.277 HD
ATOM     10  H12 UNL     1      17.006   0.881  17.106  1.00  0.00     0.277 HD
HETATM   11  C7  UNL     1      15.949   1.247  15.369  1.00  0.00     0.242 C 
HETATM   12  C8  UNL     1      14.928   3.420  14.797  1.00  0.00     0.031 C 
HETATM   13  C9  UNL     1      15.402   4.847  14.610  1.00  0.00     0.126 C 
HETATM   14  N2  UNL     1      16.623   4.724  13.795  1.00  0.00    -0.352 N 
ENDROOT
BRANCH  14  15
HETATM   15  C10 UNL     1      16.758   5.266  12.481  1.00  0.00     0.126 C 
BRANCH  15  16
HETATM   16  C11 UNL     1      16.558   6.745  12.414  1.00  0.00     0.022 C 
BRANCH  16  17
HETATM   17  C12 UNL     1      15.360   7.129  11.559  1.00  0.00     0.028 C 
BRANCH  17  18
HETATM   18  C13 UNL     1      15.596   6.715  10.112  1.00  0.00     0.164 C 
BRANCH  18  19
HETATM   19  O2  UNL     1      14.544   5.942   9.620  1.00  0.00    -0.401 OA
ATOM     20  H2  UNL     1      14.130   5.435  10.309  1.00  0.00     0.209 HD
ENDBRANCH  18  19
ENDBRANCH  17  18
ENDBRANCH  16  17
ENDBRANCH  15  16
ENDBRANCH  14  15
TORSDOF 5
ENDMDL
MODEL 5
REMARK VINA RESULT: -5.899721577      2.227      5.357
REMARK  5 active torsions:
REMARK  status: ('A' for Active; 'I' for Inactive)
REMARK    1  A    between atoms: N2_14  and  C10_15 
REMARK    2  A    between atoms: C10_15  and  C11_16 
REMARK    3  A    between atoms: C11_16  and  C12_17 
REMARK    4  A    between atoms: C12_17  and  C13_18 
REMARK    5  A    between atoms: C13_18  and  O2_19 
ROOT
HETATM    1  O1  UNL     1      17.673   2.424  16.017  1.00  0.00    -0.273 OA
HETATM    2  C1  UNL     1      16.986   3.193  15.312  1.00  0.00     0.220 C 
HETATM    3  C2  UNL     1      17.448   3.892  14.106  1.00  0.00     0.114 C 
HETATM    4  C3  UNL     1      16.926   5.271  13.913  1.00  0.00    -0.007 C 
HETATM    5  C4  UNL     1      16.758   5.627  12.436  1.00  0.00     0.013 C 
HETATM    6  C5  UNL     1      16.910   7.132  12.280  1.00  0.00     0.028 C 
HETATM    7  C6  UNL     1      18.381   7.528  12.463  1.00  0.00     0.232 C 
HETATM    8  N1  UNL     1      18.919   6.590  13.451  1.00  0.00    -0.074 N 
ATOM      9  H11 UNL     1      19.790   6.926  13.862  1.00  0.00     0.277 HD
ATOM     10  H12 UNL     1      19.277   5.740  13.016  1.00  0.00     0.277 HD
HETATM   11  C7  UNL     1      17.915   6.303  14.464  1.00  0.00     0.242 C 
HETATM   12  C8  UNL     1      15.580   5.507  14.558  1.00  0.00     0.031 C 
HETATM   13  C9  UNL     1      14.873   4.171  14.651  1.00  0.00     0.126 C 
HETATM   14  N2  UNL     1      15.614   3.435  15.691  1.00  0.00    -0.352 N 
ENDROOT
BRANCH  14  15
HETATM   15  C10 UNL     1      15.040   3.015  16.928  1.00  0.00     0.126 C 
BRANCH  15  16
HETATM   16  C11 UNL     1      13.718   2.335  16.781  1.00  0.00     0.022 C 
BRANCH  16  17
HETATM   17  C12 UNL     1      13.782   0.859  17.141  1.00  0.00     0.028 C 
BRANCH  17  18
HETATM   18  C13 UNL     1      15.232   0.433  17.342  1.00  0.00     0.164 C 
BRANCH  18  19
HETATM   19  O2  UNL     1      15.771  -0.121  16.182  1.00  0.00    -0.401 OA
ATOM     20  H2  UNL     1      16.716  -0.023  16.153  1.00  0.00     0.209 HD
ENDBRANCH  18  19
ENDBRANCH  17  18
ENDBRANCH  16  17
ENDBRANCH  15  16
ENDBRANCH  14  15
TORSDOF 5
ENDMDL
