MODEL 1
REMARK VINA RESULT: -8.332129899      0.000      0.000
REMARK  6 active torsions:
REMARK  status: ('A' for Active; 'I' for Inactive)
REMARK    1  A    between atoms: C3_6  and  C4_7 
REMARK    2  A    between atoms: C4_7  and  N2_8 
REMARK    3  A    between atoms: N2_8  and  C5_9 
REMARK    4  A    between atoms: N2_8  and  C12_21 
REMARK    5  A    between atoms: C5_9  and  C6_10 
REMARK    6  A    between atoms: C12_21  and  C13_22 
ROOT
HETATM    1  N2  UNL     1      15.256   3.656  15.429  1.00  0.00    -0.282 NA
ENDROOT
BRANCH   1   2
HETATM    2  C4  UNL     1      16.388   2.806  15.464  1.00  0.00     0.140 C 
BRANCH   2   3
HETATM    3  C3  UNL     1      16.521   1.857  14.372  1.00  0.00     0.039 A 
HETATM    4  C2  UNL     1      16.335   2.060  13.030  1.00  0.00     0.106 A 
HETATM    5  N1  UNL     1      16.519   1.117  12.092  1.00  0.00    -0.318 N 
HETATM    6  C1  UNL     1      16.904  -0.102  12.437  1.00  0.00     0.326 A 
ATOM      7  H1  UNL     1      16.361   1.340  11.108  1.00  0.00     0.170 HD
HETATM    8  O1  UNL     1      17.061  -0.948  11.522  1.00  0.00    -0.247 OA
HETATM    9  N3  UNL     1      17.107  -0.375  13.743  1.00  0.00    -0.275 N 
HETATM   10  C14 UNL     1      16.929   0.551  14.699  1.00  0.00     0.258 A 
ATOM     11  H3  UNL     1      17.403  -1.313  14.012  1.00  0.00     0.173 HD
HETATM   12  O2  UNL     1      17.132   0.237  15.889  1.00  0.00    -0.267 OA
ENDBRANCH   2   3
ENDBRANCH   1   2
BRANCH   1  13
HETATM   13  C5  UNL     1      15.589   5.052  15.431  1.00  0.00     0.078 C 
BRANCH  13  14
HETATM   14  C6  UNL     1      16.210   5.639  14.266  1.00  0.00     0.058 A 
HETATM   15  C7  UNL     1      15.295   6.176  13.336  1.00  0.00     0.172 A 
HETATM   16  F1  UNL     1      13.962   6.167  13.577  1.00  0.00    -0.202 F 
HETATM   17  C8  UNL     1      15.695   6.732  12.147  1.00  0.00     0.197 A 
HETATM   18  F2  UNL     1      14.789   7.250  11.254  1.00  0.00    -0.199 F 
HETATM   19  C9  UNL     1      17.024   6.787  11.813  1.00  0.00     0.199 A 
HETATM   20  F3  UNL     1      17.444   7.340  10.627  1.00  0.00    -0.199 F 
HETATM   21  C10 UNL     1      17.920   6.272  12.701  1.00  0.00     0.197 A 
HETATM   22  F4  UNL     1      19.249   6.294  12.426  1.00  0.00    -0.199 F 
HETATM   23  C11 UNL     1      17.516   5.706  13.909  1.00  0.00     0.172 A 
HETATM   24  F5  UNL     1      18.465   5.159  14.717  1.00  0.00    -0.202 F 
ENDBRANCH  13  14
ENDBRANCH   1  13
BRANCH   1  25
HETATM   25  C12 UNL     1      14.342   3.500  16.534  1.00  0.00     0.166 C 
BRANCH  25  26
HETATM   26  C13 UNL     1      14.539   2.336  17.427  1.00  0.00     0.366 C 
HETATM   27  F6  UNL     1      13.553   1.402  17.473  1.00  0.00    -0.213 F 
HETATM   28  F7  UNL     1      14.689   2.799  18.748  1.00  0.00    -0.213 F 
ENDBRANCH  25  26
ENDBRANCH   1  25
TORSDOF 6
ENDMDL
MODEL 2
REMARK VINA RESULT: -8.153607158      0.188      2.078
REMARK  6 active torsions:
REMARK  status: ('A' for Active; 'I' for Inactive)
REMARK    1  A    between atoms: C3_6  and  C4_7 
REMARK    2  A    between atoms: C4_7  and  N2_8 
REMARK    3  A    between atoms: N2_8  and  C5_9 
REMARK    4  A    between atoms: N2_8  and  C12_21 
REMARK    5  A    between atoms: C5_9  and  C6_10 
REMARK    6  A    between atoms: C12_21  and  C13_22 
ROOT
HETATM    1  N2  UNL     1      15.242   3.677  15.391  1.00  0.00    -0.282 NA
ENDROOT
BRANCH   1   2
HETATM    2  C4  UNL     1      16.389   2.847  15.420  1.00  0.00     0.140 C 
BRANCH   2   3
HETATM    3  C3  UNL     1      16.521   1.884  14.339  1.00  0.00     0.039 A 
HETATM    4  C2  UNL     1      16.338   2.072  12.995  1.00  0.00     0.106 A 
HETATM    5  N1  UNL     1      16.520   1.116  12.069  1.00  0.00    -0.318 N 
HETATM    6  C1  UNL     1      16.901  -0.100  12.430  1.00  0.00     0.326 A 
ATOM      7  H1  UNL     1      16.365   1.328  11.082  1.00  0.00     0.170 HD
HETATM    8  O1  UNL     1      17.056  -0.957  11.525  1.00  0.00    -0.247 OA
HETATM    9  N3  UNL     1      17.099  -0.357  13.739  1.00  0.00    -0.275 N 
HETATM   10  C14 UNL     1      16.923   0.581  14.683  1.00  0.00     0.258 A 
ATOM     11  H3  UNL     1      17.392  -1.293  14.020  1.00  0.00     0.173 HD
HETATM   12  O2  UNL     1      17.123   0.281  15.877  1.00  0.00    -0.267 OA
ENDBRANCH   2   3
ENDBRANCH   1   2
BRANCH   1  13
HETATM   13  C5  UNL     1      15.552   5.079  15.357  1.00  0.00     0.078 C 
BRANCH  13  14
HETATM   14  C6  UNL     1      15.869   5.710  14.097  1.00  0.00     0.058 A 
HETATM   15  C7  UNL     1      17.252   5.797  13.830  1.00  0.00     0.172 A 
HETATM   16  F1  UNL     1      18.166   5.276  14.684  1.00  0.00    -0.202 F 
HETATM   17  C8  UNL     1      17.747   6.408  12.706  1.00  0.00     0.197 A 
HETATM   18  F2  UNL     1      19.097   6.483  12.463  1.00  0.00    -0.199 F 
HETATM   19  C9  UNL     1      16.900   6.965  11.783  1.00  0.00     0.199 A 
HETATM   20  F3  UNL     1      17.378   7.581  10.650  1.00  0.00    -0.199 F 
HETATM   21  C10 UNL     1      15.561   6.889  12.026  1.00  0.00     0.197 A 
HETATM   22  F4  UNL     1      14.672   7.425  11.151  1.00  0.00    -0.199 F 
HETATM   23  C11 UNL     1      15.056   6.271  13.168  1.00  0.00     0.172 A 
HETATM   24  F5  UNL     1      13.710   6.286  13.371  1.00  0.00    -0.202 F 
ENDBRANCH  13  14
ENDBRANCH   1  13
BRANCH   1  25
HETATM   25  C12 UNL     1      14.353   3.530  16.517  1.00  0.00     0.166 C 
BRANCH  25  26
HETATM   26  C13 UNL     1      14.535   2.341  17.381  1.00  0.00     0.366 C 
HETATM   27  F6  UNL     1      13.539   1.418  17.402  1.00  0.00    -0.213 F 
HETATM   28  F7  UNL     1      14.686   2.770  18.714  1.00  0.00    -0.213 F 
ENDBRANCH  25  26
ENDBRANCH   1  25
TORSDOF 6
ENDMDL
MODEL 3
REMARK VINA RESULT: -8.024792427      1.323      1.971
REMARK  6 active torsions:
REMARK  status: ('A' for Active; 'I' for Inactive)
REMARK    1  A    between atoms: C3_6  and  C4_7 
REMARK    2  A    between atoms: C4_7  and  N2_8 
REMARK    3  A    between atoms: N2_8  and  C5_9 
REMARK    4  A    between atoms: N2_8  and  C12_21 
REMARK    5  A    between atoms: C5_9  and  C6_10 
REMARK    6  A    between atoms: C12_21  and  C13_22 
ROOT
HETATM    1  N2  UNL     1      15.097   3.797  14.965  1.00  0.00    -0.282 NA
ENDROOT
BRANCH   1   2
HETATM    2  C4  UNL     1      16.377   3.192  14.943  1.00  0.00     0.140 C 
BRANCH   2   3
HETATM    3  C3  UNL     1      16.535   2.039  14.072  1.00  0.00     0.039 A 
HETATM    4  C2  UNL     1      16.361   1.957  12.716  1.00  0.00     0.106 A 
HETATM    5  N1  UNL     1      16.568   0.842  11.996  1.00  0.00    -0.318 N 
HETATM    6  C1  UNL     1      16.967  -0.272  12.589  1.00  0.00     0.326 A 
ATOM      7  H1  UNL     1      16.417   0.854  10.986  1.00  0.00     0.170 HD
HETATM    8  O1  UNL     1      17.146  -1.286  11.870  1.00  0.00    -0.247 OA
HETATM    9  N3  UNL     1      17.159  -0.265  13.924  1.00  0.00    -0.275 N 
HETATM   10  C14 UNL     1      16.958   0.836  14.666  1.00  0.00     0.258 A 
ATOM     11  H3  UNL     1      17.467  -1.122  14.384  1.00  0.00     0.173 HD
HETATM   12  O2  UNL     1      17.154   0.779  15.897  1.00  0.00    -0.267 OA
ENDBRANCH   2   3
ENDBRANCH   1   2
BRANCH   1  13
HETATM   13  C5  UNL     1      15.117   5.189  14.616  1.00  0.00     0.078 C 
BRANCH  13  14
HETATM   14  C6  UNL     1      16.318   5.770  14.063  1.00  0.00     0.058 A 
HETATM   15  C7  UNL     1      16.967   6.679  14.925  1.00  0.00     0.172 A 
HETATM   16  F1  UNL     1      16.498   6.919  16.173  1.00  0.00    -0.202 F 
HETATM   17  C8  UNL     1      18.096   7.366  14.555  1.00  0.00     0.197 A 
HETATM   18  F2  UNL     1      18.713   8.248  15.408  1.00  0.00    -0.199 F 
HETATM   19  C9  UNL     1      18.644   7.190  13.311  1.00  0.00     0.199 A 
HETATM   20  F3  UNL     1      19.775   7.870  12.923  1.00  0.00    -0.199 F 
HETATM   21  C10 UNL     1      18.030   6.316  12.467  1.00  0.00     0.197 A 
HETATM   22  F4  UNL     1      18.524   6.101  11.221  1.00  0.00    -0.199 F 
HETATM   23  C11 UNL     1      16.883   5.617  12.839  1.00  0.00     0.172 A 
HETATM   24  F5  UNL     1      16.292   4.805  11.920  1.00  0.00    -0.202 F 
ENDBRANCH  13  14
ENDBRANCH   1  13
BRANCH   1  25
HETATM   25  C12 UNL     1      14.422   3.752  16.239  1.00  0.00     0.166 C 
BRANCH  25  26
HETATM   26  C13 UNL     1      14.432   2.466  16.973  1.00  0.00     0.366 C 
HETATM   27  F6  UNL     1      13.308   1.704  16.924  1.00  0.00    -0.213 F 
HETATM   28  F7  UNL     1      14.657   2.727  18.338  1.00  0.00    -0.213 F 
ENDBRANCH  25  26
ENDBRANCH   1  25
TORSDOF 6
ENDMDL
MODEL 4
REMARK VINA RESULT: -7.994041674      1.114      1.204
REMARK  6 active torsions:
REMARK  status: ('A' for Active; 'I' for Inactive)
REMARK    1  A    between atoms: C3_6  and  C4_7 
REMARK    2  A    between atoms: C4_7  and  N2_8 
REMARK    3  A    between atoms: N2_8  and  C5_9 
REMARK    4  A    between atoms: N2_8  and  C12_21 
REMARK    5  A    between atoms: C5_9  and  C6_10 
REMARK    6  A    between atoms: C12_21  and  C13_22 
ROOT
HETATM    1  N2  UNL     1      15.405   3.281  15.020  1.00  0.00    -0.282 NA
ENDROOT
BRANCH   1   2
HETATM    2  C4  UNL     1      16.342   2.262  14.720  1.00  0.00     0.140 C 
BRANCH   2   3
HETATM    3  C3  UNL     1      16.301   1.721  13.371  1.00  0.00     0.039 A 
HETATM    4  C2  UNL     1      15.988   2.358  12.200  1.00  0.00     0.106 A 
HETATM    5  N1  UNL     1      16.015   1.771  10.992  1.00  0.00    -0.318 N 
HETATM    6  C1  UNL     1      16.361   0.498  10.876  1.00  0.00     0.326 A 
ATOM      7  H1  UNL     1      15.768   2.308  10.160  1.00  0.00     0.170 HD
HETATM    8  O1  UNL     1      16.369  -0.004   9.725  1.00  0.00    -0.247 OA
HETATM    9  N3  UNL     1      16.682  -0.193  11.989  1.00  0.00    -0.275 N 
HETATM   10  C14 UNL     1      16.662   0.372  13.207  1.00  0.00     0.258 A 
ATOM     11  H3  UNL     1      16.949  -1.173  11.903  1.00  0.00     0.173 HD
HETATM   12  O2  UNL     1      16.971  -0.320  14.199  1.00  0.00    -0.267 OA
ENDBRANCH   2   3
ENDBRANCH   1   2
BRANCH   1  13
HETATM   13  C5  UNL     1      16.014   4.537  15.353  1.00  0.00     0.078 C 
BRANCH  13  14
HETATM   14  C6  UNL     1      16.840   5.212  14.378  1.00  0.00     0.058 A 
HETATM   15  C7  UNL     1      16.118   6.022  13.476  1.00  0.00     0.172 A 
HETATM   16  F1  UNL     1      14.775   6.167  13.584  1.00  0.00    -0.202 F 
HETATM   17  C8  UNL     1      16.724   6.702  12.451  1.00  0.00     0.197 A 
HETATM   18  F2  UNL     1      16.005   7.486  11.582  1.00  0.00    -0.199 F 
HETATM   19  C9  UNL     1      18.080   6.617  12.261  1.00  0.00     0.199 A 
HETATM   20  F3  UNL     1      18.705   7.291  11.239  1.00  0.00    -0.199 F 
HETATM   21  C10 UNL     1      18.791   5.838  13.124  1.00  0.00     0.197 A 
HETATM   22  F4  UNL     1      20.135   5.712  12.986  1.00  0.00    -0.199 F 
HETATM   23  C11 UNL     1      18.177   5.146  14.166  1.00  0.00     0.172 A 
HETATM   24  F5  UNL     1      18.946   4.341  14.950  1.00  0.00    -0.202 F 
ENDBRANCH  13  14
ENDBRANCH   1  13
BRANCH   1  25
HETATM   25  C12 UNL     1      14.530   2.997  16.131  1.00  0.00     0.166 C 
BRANCH  25  26
HETATM   26  C13 UNL     1      14.675   1.683  16.798  1.00  0.00     0.366 C 
HETATM   27  F6  UNL     1      13.573   0.893  16.880  1.00  0.00    -0.213 F 
HETATM   28  F7  UNL     1      15.093   1.894  18.126  1.00  0.00    -0.213 F 
ENDBRANCH  25  26
ENDBRANCH   1  25
TORSDOF 6
ENDMDL
MODEL 5
REMARK VINA RESULT: -7.908965766      2.757      4.310
REMARK  6 active torsions:
REMARK  status: ('A' for Active; 'I' for Inactive)
REMARK    1  A    between atoms: C3_6  and  C4_7 
REMARK    2  A    between atoms: C4_7  and  N2_8 
REMARK    3  A    between atoms: N2_8  and  C5_9 
REMARK    4  A    between atoms: N2_8  and  C12_21 
REMARK    5  A    between atoms: C5_9  and  C6_10 
REMARK    6  A    between atoms: C12_21  and  C13_22 
ROOT
HETATM    1  N2  UNL     1      17.370   3.207  13.549  1.00  0.00    -0.282 NA
ENDROOT
BRANCH   1   2
HETATM    2  C4  UNL     1      17.410   3.220  14.965  1.00  0.00     0.140 C 
BRANCH   2   3
HETATM    3  C3  UNL     1      16.283   2.610  15.651  1.00  0.00     0.039 A 
HETATM    4  C2  UNL     1      15.013   3.096  15.815  1.00  0.00     0.106 A 
HETATM    5  N1  UNL     1      14.027   2.432  16.441  1.00  0.00    -0.318 N 
HETATM    6  C1  UNL     1      14.250   1.229  16.948  1.00  0.00     0.326 A 
ATOM      7  H1  UNL     1      13.103   2.856  16.526  1.00  0.00     0.170 HD
HETATM    8  O1  UNL     1      13.295   0.651  17.524  1.00  0.00    -0.247 OA
HETATM    9  N3  UNL     1      15.479   0.688  16.824  1.00  0.00    -0.275 N 
HETATM   10  C14 UNL     1      16.480   1.332  16.203  1.00  0.00     0.258 A 
ATOM     11  H3  UNL     1      15.653  -0.239  17.213  1.00  0.00     0.173 HD
HETATM   12  O2  UNL     1      17.595   0.778  16.121  1.00  0.00    -0.267 OA
ENDBRANCH   2   3
ENDBRANCH   1   2
BRANCH   1  13
HETATM   13  C5  UNL     1      17.130   4.499  12.972  1.00  0.00     0.078 C 
BRANCH  13  14
HETATM   14  C6  UNL     1      17.963   5.616  13.351  1.00  0.00     0.058 A 
HETATM   15  C7  UNL     1      19.197   5.670  12.667  1.00  0.00     0.172 A 
HETATM   16  F1  UNL     1      19.509   4.764  11.710  1.00  0.00    -0.202 F 
HETATM   17  C8  UNL     1      20.141   6.632  12.927  1.00  0.00     0.197 A 
HETATM   18  F2  UNL     1      21.336   6.668  12.251  1.00  0.00    -0.199 F 
HETATM   19  C9  UNL     1      19.915   7.592  13.879  1.00  0.00     0.199 A 
HETATM   20  F3  UNL     1      20.849   8.563  14.153  1.00  0.00    -0.199 F 
HETATM   21  C10 UNL     1      18.729   7.553  14.549  1.00  0.00     0.197 A 
HETATM   22  F4  UNL     1      18.449   8.476  15.504  1.00  0.00    -0.199 F 
HETATM   23  C11 UNL     1      17.769   6.578  14.287  1.00  0.00     0.172 A 
HETATM   24  F5  UNL     1      16.634   6.569  15.038  1.00  0.00    -0.202 F 
ENDBRANCH  13  14
ENDBRANCH   1  13
BRANCH   1  25
HETATM   25  C12 UNL     1      16.353   2.359  12.975  1.00  0.00     0.166 C 
BRANCH  25  26
HETATM   26  C13 UNL     1      16.800   1.140  12.263  1.00  0.00     0.366 C 
HETATM   27  F6  UNL     1      16.018   0.679  11.252  1.00  0.00    -0.213 F 
HETATM   28  F7  UNL     1      16.891   0.084  13.189  1.00  0.00    -0.213 F 
ENDBRANCH  25  26
ENDBRANCH   1  25
TORSDOF 6
ENDMDL
