MODEL 1
REMARK VINA RESULT: -6.785527550      0.000      0.000
REMARK  7 active torsions:
REMARK  status: ('A' for Active; 'I' for Inactive)
REMARK    1  A    between atoms: O1_2  and  C2_3 
REMARK    2  A    between atoms: C3_4  and  C4_5 
REMARK    3  A    between atoms: C5_8  and  N2_9 
REMARK    4  A    between atoms: C6_13  and  C7_14 
REMARK    5  A    between atoms: C7_14  and  C8_15 
REMARK    6  A    between atoms: C8_15  and  C9_16 
REMARK    7  A    between atoms: C9_16  and  C10_17 
ROOT
HETATM    1  C4  UNL     1      16.380   2.380  12.983  1.00  0.00     0.062 A 
HETATM    2  N1  UNL     1      16.162   2.023  11.724  1.00  0.00    -0.335 N 
ATOM      3  H1  UNL     1      15.903   2.728  11.034  1.00  0.00     0.168 HD
HETATM    4  C5  UNL     1      16.280   0.761  11.361  1.00  0.00     0.143 A 
HETATM    5  S1  UNL     1      16.709  -0.005  12.795  1.00  0.00    -0.053 SA
HETATM    6  C6  UNL     1      16.719   1.398  13.852  1.00  0.00     0.032 A 
ENDROOT
BRANCH   1   7
HETATM    7  C3  UNL     1      16.255   3.679  13.344  1.00  0.00     0.060 C 
HETATM    8  C2  UNL     1      16.828   4.802  12.477  1.00  0.00     0.237 C 
HETATM    9  C13 UNL     1      17.085   5.899  13.523  1.00  0.00     0.344 C 
HETATM   10  C12 UNL     1      15.834   5.822  14.362  1.00  0.00     0.379 C 
HETATM   11  F5  UNL     1      17.166   7.142  12.943  1.00  0.00    -0.196 F 
HETATM   12  F6  UNL     1      18.228   5.611  14.232  1.00  0.00    -0.196 F 
HETATM   13  C11 UNL     1      15.643   4.279  14.506  1.00  0.00     0.343 C 
HETATM   14  F3  UNL     1      16.038   6.351  15.590  1.00  0.00    -0.192 F 
HETATM   15  F4  UNL     1      14.786   6.342  13.656  1.00  0.00    -0.192 F 
HETATM   16  F1  UNL     1      16.238   3.972  15.723  1.00  0.00    -0.194 F 
HETATM   17  F2  UNL     1      14.276   4.170  14.603  1.00  0.00    -0.194 F 
BRANCH   8  18
HETATM   18  O1  UNL     1      15.894   5.329  11.626  1.00  0.00    -0.380 OA
HETATM   19  C1  UNL     1      16.292   5.591  10.345  1.00  0.00     0.202 C 
ENDBRANCH   8  18
ENDBRANCH   1   7
BRANCH   6  20
HETATM   20  C7  UNL     1      17.001   1.263  15.129  1.00  0.00    -0.005 C 
BRANCH  20  21
HETATM   21  C8  UNL     1      15.886   0.701  16.008  1.00  0.00     0.029 C 
BRANCH  21  22
HETATM   22  C9  UNL     1      15.994   1.337  17.371  1.00  0.00     0.019 C 
BRANCH  22  23
HETATM   23  C10 UNL     1      14.650   1.986  17.715  1.00  0.00     0.115 C 
HETATM   24 CL1  UNL     1      13.323   1.262  16.780  1.00  0.00    -0.130 Cl
ENDBRANCH  22  23
ENDBRANCH  21  22
ENDBRANCH  20  21
ENDBRANCH   6  20
BRANCH   4  25
HETATM   25  N2  UNL     1      16.110   0.214  10.179  1.00  0.00    -0.380 N 
ATOM     26  H22 UNL     1      16.012   0.688   9.282  1.00  0.00     0.158 HD
ATOM     27  H21 UNL     1      16.042  -0.772   9.925  1.00  0.00     0.158 HD
ENDBRANCH   4  25
TORSDOF 7
ENDMDL
MODEL 2
REMARK VINA RESULT: -6.552342920      1.982      2.733
REMARK  7 active torsions:
REMARK  status: ('A' for Active; 'I' for Inactive)
REMARK    1  A    between atoms: O1_2  and  C2_3 
REMARK    2  A    between atoms: C3_4  and  C4_5 
REMARK    3  A    between atoms: C5_8  and  N2_9 
REMARK    4  A    between atoms: C6_13  and  C7_14 
REMARK    5  A    between atoms: C7_14  and  C8_15 
REMARK    6  A    between atoms: C8_15  and  C9_16 
REMARK    7  A    between atoms: C9_16  and  C10_17 
ROOT
HETATM    1  C4  UNL     1      17.133   2.905  13.305  1.00  0.00     0.062 A 
HETATM    2  N1  UNL     1      17.330   1.851  12.524  1.00  0.00    -0.335 N 
ATOM      3  H1  UNL     1      17.739   1.975  11.598  1.00  0.00     0.168 HD
HETATM    4  C5  UNL     1      17.000   0.645  12.940  1.00  0.00     0.143 A 
HETATM    5  S1  UNL     1      16.383   0.932  14.478  1.00  0.00    -0.053 SA
HETATM    6  C6  UNL     1      16.585   2.676  14.523  1.00  0.00     0.032 A 
ENDROOT
BRANCH   1   7
HETATM    7  C3  UNL     1      17.475   4.139  12.866  1.00  0.00     0.060 C 
HETATM    8  C2  UNL     1      18.911   4.654  12.984  1.00  0.00     0.237 C 
HETATM    9  C13 UNL     1      18.691   6.174  13.052  1.00  0.00     0.344 C 
HETATM   10  C12 UNL     1      17.638   6.378  11.991  1.00  0.00     0.379 C 
HETATM   11  F5  UNL     1      19.826   6.866  12.705  1.00  0.00    -0.196 F 
HETATM   12  F6  UNL     1      18.262   6.528  14.310  1.00  0.00    -0.196 F 
HETATM   13  C11 UNL     1      16.675   5.179  12.262  1.00  0.00     0.343 C 
HETATM   14  F3  UNL     1      16.962   7.533  12.191  1.00  0.00    -0.192 F 
HETATM   15  F4  UNL     1      18.208   6.228  10.757  1.00  0.00    -0.192 F 
HETATM   16  F1  UNL     1      15.680   5.716  13.069  1.00  0.00    -0.194 F 
HETATM   17  F2  UNL     1      16.182   4.921  11.005  1.00  0.00    -0.194 F 
BRANCH   8  18
HETATM   18  O1  UNL     1      19.632   4.446  11.838  1.00  0.00    -0.380 OA
HETATM   19  C1  UNL     1      20.717   3.619  11.924  1.00  0.00     0.202 C 
ENDBRANCH   8  18
ENDBRANCH   1   7
BRANCH   6  20
HETATM   20  C7  UNL     1      16.207   3.360  15.580  1.00  0.00    -0.005 C 
BRANCH  20  21
HETATM   21  C8  UNL     1      14.742   3.789  15.614  1.00  0.00     0.029 C 
BRANCH  21  22
HETATM   22  C9  UNL     1      14.267   3.733  17.045  1.00  0.00     0.019 C 
BRANCH  22  23
HETATM   23  C10 UNL     1      14.652   2.371  17.633  1.00  0.00     0.115 C 
HETATM   24 CL1  UNL     1      13.639   1.069  16.971  1.00  0.00    -0.130 Cl
ENDBRANCH  22  23
ENDBRANCH  21  22
ENDBRANCH  20  21
ENDBRANCH   6  20
BRANCH   4  25
HETATM   25  N2  UNL     1      17.114  -0.510  12.326  1.00  0.00    -0.380 N 
ATOM     26  H22 UNL     1      17.681  -0.725  11.505  1.00  0.00     0.158 HD
ATOM     27  H21 UNL     1      16.671  -1.404  12.538  1.00  0.00     0.158 HD
ENDBRANCH   4  25
TORSDOF 7
ENDMDL
MODEL 3
REMARK VINA RESULT: -6.523356469      1.878      2.508
REMARK  7 active torsions:
REMARK  status: ('A' for Active; 'I' for Inactive)
REMARK    1  A    between atoms: O1_2  and  C2_3 
REMARK    2  A    between atoms: C3_4  and  C4_5 
REMARK    3  A    between atoms: C5_8  and  N2_9 
REMARK    4  A    between atoms: C6_13  and  C7_14 
REMARK    5  A    between atoms: C7_14  and  C8_15 
REMARK    6  A    between atoms: C8_15  and  C9_16 
REMARK    7  A    between atoms: C9_16  and  C10_17 
ROOT
HETATM    1  C4  UNL     1      17.205   3.931  12.897  1.00  0.00     0.062 A 
HETATM    2  N1  UNL     1      16.891   3.379  11.733  1.00  0.00    -0.335 N 
ATOM      3  H1  UNL     1      17.055   3.892  10.867  1.00  0.00     0.168 HD
HETATM    4  C5  UNL     1      16.370   2.169  11.690  1.00  0.00     0.143 A 
HETATM    5  S1  UNL     1      16.291   1.735  13.313  1.00  0.00    -0.053 SA
HETATM    6  C6  UNL     1      16.963   3.200  14.012  1.00  0.00     0.032 A 
ENDROOT
BRANCH   1   7
HETATM    7  C3  UNL     1      17.739   5.175  12.927  1.00  0.00     0.060 C 
HETATM    8  C2  UNL     1      19.156   5.444  12.418  1.00  0.00     0.237 C 
HETATM    9  C13 UNL     1      19.555   6.675  13.246  1.00  0.00     0.344 C 
HETATM   10  C12 UNL     1      18.297   7.505  13.187  1.00  0.00     0.379 C 
HETATM   11  F5  UNL     1      20.584   7.370  12.658  1.00  0.00    -0.196 F 
HETATM   12  F6  UNL     1      19.887   6.291  14.524  1.00  0.00    -0.196 F 
HETATM   13  C11 UNL     1      17.192   6.423  13.407  1.00  0.00     0.343 C 
HETATM   14  F3  UNL     1      18.248   8.389  14.210  1.00  0.00    -0.192 F 
HETATM   15  F4  UNL     1      18.166   8.035  11.934  1.00  0.00    -0.192 F 
HETATM   16  F1  UNL     1      16.925   6.478  14.769  1.00  0.00    -0.194 F 
HETATM   17  F2  UNL     1      16.138   6.944  12.694  1.00  0.00    -0.194 F 
BRANCH   8  18
HETATM   18  O1  UNL     1      19.167   5.867  11.115  1.00  0.00    -0.380 OA
HETATM   19  C1  UNL     1      19.780   5.058  10.200  1.00  0.00     0.202 C 
ENDBRANCH   8  18
ENDBRANCH   1   7
BRANCH   6  20
HETATM   20  C7  UNL     1      17.082   3.318  15.315  1.00  0.00    -0.005 C 
BRANCH  20  21
HETATM   21  C8  UNL     1      16.950   2.029  16.123  1.00  0.00     0.029 C 
BRANCH  21  22
HETATM   22  C9  UNL     1      15.834   2.210  17.121  1.00  0.00     0.019 C 
BRANCH  22  23
HETATM   23  C10 UNL     1      15.037   0.904  17.204  1.00  0.00     0.115 C 
HETATM   24 CL1  UNL     1      13.317   1.171  16.842  1.00  0.00    -0.130 Cl
ENDBRANCH  22  23
ENDBRANCH  21  22
ENDBRANCH  20  21
ENDBRANCH   6  20
BRANCH   4  25
HETATM   25  N2  UNL     1      15.998   1.456  10.652  1.00  0.00    -0.380 N 
ATOM     26  H22 UNL     1      16.088   1.700   9.665  1.00  0.00     0.158 HD
ATOM     27  H21 UNL     1      15.553   0.539  10.621  1.00  0.00     0.158 HD
ENDBRANCH   4  25
TORSDOF 7
ENDMDL
MODEL 4
REMARK VINA RESULT: -6.231464212      1.974      3.035
REMARK  7 active torsions:
REMARK  status: ('A' for Active; 'I' for Inactive)
REMARK    1  A    between atoms: O1_2  and  C2_3 
REMARK    2  A    between atoms: C3_4  and  C4_5 
REMARK    3  A    between atoms: C5_8  and  N2_9 
REMARK    4  A    between atoms: C6_13  and  C7_14 
REMARK    5  A    between atoms: C7_14  and  C8_15 
REMARK    6  A    between atoms: C8_15  and  C9_16 
REMARK    7  A    between atoms: C9_16  and  C10_17 
ROOT
HETATM    1  C4  UNL     1      16.855   3.710  12.038  1.00  0.00     0.062 A 
HETATM    2  N1  UNL     1      16.570   2.870  11.052  1.00  0.00    -0.335 N 
ATOM      3  H1  UNL     1      16.574   3.200  10.087  1.00  0.00     0.168 HD
HETATM    4  C5  UNL     1      16.283   1.610  11.313  1.00  0.00     0.143 A 
HETATM    5  S1  UNL     1      16.400   1.537  12.990  1.00  0.00    -0.053 SA
HETATM    6  C6  UNL     1      16.833   3.212  13.298  1.00  0.00     0.032 A 
ENDROOT
BRANCH   1   7
HETATM    7  C3  UNL     1      17.148   5.001  11.756  1.00  0.00     0.060 C 
HETATM    8  C2  UNL     1      18.562   5.554  11.942  1.00  0.00     0.237 C 
HETATM    9  C13 UNL     1      18.282   7.044  12.197  1.00  0.00     0.344 C 
HETATM   10  C12 UNL     1      17.221   7.336  11.165  1.00  0.00     0.379 C 
HETATM   11  F5  UNL     1      19.388   7.818  11.942  1.00  0.00    -0.196 F 
HETATM   12  F6  UNL     1      17.841   7.223  13.487  1.00  0.00    -0.196 F 
HETATM   13  C11 UNL     1      16.306   6.076  11.283  1.00  0.00     0.343 C 
HETATM   14  F3  UNL     1      16.500   8.429  11.504  1.00  0.00    -0.192 F 
HETATM   15  F4  UNL     1      17.795   7.363   9.924  1.00  0.00    -0.192 F 
HETATM   16  F1  UNL     1      15.292   6.469  12.146  1.00  0.00    -0.194 F 
HETATM   17  F2  UNL     1      15.822   5.956  10.002  1.00  0.00    -0.194 F 
BRANCH   8  18
HETATM   18  O1  UNL     1      19.290   5.518  10.782  1.00  0.00    -0.380 OA
HETATM   19  C1  UNL     1      20.374   4.686  10.750  1.00  0.00     0.202 C 
ENDBRANCH   8  18
ENDBRANCH   1   7
BRANCH   6  20
HETATM   20  C7  UNL     1      17.019   3.632  14.529  1.00  0.00    -0.005 C 
BRANCH  20  21
HETATM   21  C8  UNL     1      15.978   4.610  15.071  1.00  0.00     0.029 C 
BRANCH  21  22
HETATM   22  C9  UNL     1      14.749   3.825  15.456  1.00  0.00     0.019 C 
BRANCH  22  23
HETATM   23  C10 UNL     1      15.144   2.786  16.510  1.00  0.00     0.115 C 
HETATM   24 CL1  UNL     1      13.826   1.629  16.803  1.00  0.00    -0.130 Cl
ENDBRANCH  22  23
ENDBRANCH  21  22
ENDBRANCH  20  21
ENDBRANCH   6  20
BRANCH   4  25
HETATM   25  N2  UNL     1      15.979   0.635  10.488  1.00  0.00    -0.380 N 
ATOM     26  H22 UNL     1      15.095   0.130  10.421  1.00  0.00     0.158 HD
ATOM     27  H21 UNL     1      16.549   0.195   9.766  1.00  0.00     0.158 HD
ENDBRANCH   4  25
TORSDOF 7
ENDMDL
MODEL 5
REMARK VINA RESULT: -6.163751913      3.216      5.297
REMARK  7 active torsions:
REMARK  status: ('A' for Active; 'I' for Inactive)
REMARK    1  A    between atoms: O1_2  and  C2_3 
REMARK    2  A    between atoms: C3_4  and  C4_5 
REMARK    3  A    between atoms: C5_8  and  N2_9 
REMARK    4  A    between atoms: C6_13  and  C7_14 
REMARK    5  A    between atoms: C7_14  and  C8_15 
REMARK    6  A    between atoms: C8_15  and  C9_16 
REMARK    7  A    between atoms: C9_16  and  C10_17 
ROOT
HETATM    1  C4  UNL     1      18.497   4.125  12.455  1.00  0.00     0.062 A 
HETATM    2  N1  UNL     1      19.777   3.781  12.461  1.00  0.00    -0.335 N 
ATOM      3  H1  UNL     1      20.152   3.231  13.234  1.00  0.00     0.168 HD
HETATM    4  C5  UNL     1      20.569   4.146  11.472  1.00  0.00     0.143 A 
HETATM    5  S1  UNL     1      19.536   5.008  10.462  1.00  0.00    -0.053 SA
HETATM    6  C6  UNL     1      18.059   4.856  11.401  1.00  0.00     0.032 A 
ENDROOT
BRANCH   1   7
HETATM    7  C3  UNL     1      17.694   3.744  13.477  1.00  0.00     0.060 C 
HETATM    8  C2  UNL     1      16.572   2.726  13.268  1.00  0.00     0.237 C 
HETATM    9  C13 UNL     1      15.580   3.128  14.372  1.00  0.00     0.344 C 
HETATM   10  C12 UNL     1      16.504   3.374  15.538  1.00  0.00     0.379 C 
HETATM   11  F5  UNL     1      14.722   2.100  14.680  1.00  0.00    -0.196 F 
HETATM   12  F6  UNL     1      14.885   4.251  13.989  1.00  0.00    -0.196 F 
HETATM   13  C11 UNL     1      17.671   4.158  14.861  1.00  0.00     0.343 C 
HETATM   14  F3  UNL     1      15.921   4.174  16.461  1.00  0.00    -0.192 F 
HETATM   15  F4  UNL     1      16.973   2.176  16.001  1.00  0.00    -0.192 F 
HETATM   16  F1  UNL     1      17.361   5.494  15.082  1.00  0.00    -0.194 F 
HETATM   17  F2  UNL     1      18.748   3.785  15.629  1.00  0.00    -0.194 F 
BRANCH   8  18
HETATM   18  O1  UNL     1      16.962   1.451  13.582  1.00  0.00    -0.380 OA
HETATM   19  C1  UNL     1      16.923   0.521  12.582  1.00  0.00     0.202 C 
ENDBRANCH   8  18
ENDBRANCH   1   7
BRANCH   6  20
HETATM   20  C7  UNL     1      16.946   5.414  10.980  1.00  0.00    -0.005 C 
BRANCH  20  21
HETATM   21  C8  UNL     1      16.385   6.535  11.852  1.00  0.00     0.029 C 
BRANCH  21  22
HETATM   22  C9  UNL     1      16.572   7.840  11.120  1.00  0.00     0.019 C 
BRANCH  22  23
HETATM   23  C10 UNL     1      15.205   8.319  10.618  1.00  0.00     0.115 C 
HETATM   24 CL1  UNL     1      13.880   7.591  11.553  1.00  0.00    -0.130 Cl
ENDBRANCH  22  23
ENDBRANCH  21  22
ENDBRANCH  20  21
ENDBRANCH   6  20
BRANCH   4  25
HETATM   25  N2  UNL     1      21.848   3.909  11.295  1.00  0.00    -0.380 N 
ATOM     26  H22 UNL     1      22.355   3.046  11.497  1.00  0.00     0.158 HD
ATOM     27  H21 UNL     1      22.577   4.521  10.929  1.00  0.00     0.158 HD
ENDBRANCH   4  25
TORSDOF 7
ENDMDL
