MODEL 1
REMARK VINA RESULT: -6.623260508      0.000      0.000
REMARK  12 active torsions:
REMARK  status: ('A' for Active; 'I' for Inactive)
REMARK    1  A    between atoms: N1_2  and  C3_4 
REMARK    2  A    between atoms: C3_4  and  C4_5 
REMARK    3  A    between atoms: C4_5  and  N2_6 
REMARK    4  A    between atoms: N2_6  and  C5_8 
REMARK    5  A    between atoms: C6_11  and  N4_12 
REMARK    6  A    between atoms: N4_12  and  C7_14 
REMARK    7  A    between atoms: C12_23  and  C13_24 
REMARK    8  A    between atoms: C18_31  and  O1_32 
REMARK    9  A    between atoms: O1_32  and  C19_33 
REMARK   10  A    between atoms: C19_33  and  C20_34 
REMARK   11  A    between atoms: C20_34  and  C21_35 
REMARK   12  A    between atoms: C21_35  and  N7_36 
ROOT
HETATM    1  C5  UNL     1      -4.706 -36.936 -26.099  1.00  0.00     0.132 A 
HETATM    2  N3  UNL     1      -5.945 -37.450 -26.071  1.00  0.00    -0.176 N 
ATOM      3  H3  UNL     1      -6.118 -38.356 -26.506  1.00  0.00     0.186 HD
HETATM    4  C6  UNL     1      -6.961 -36.801 -25.484  1.00  0.00     0.681 A 
HETATM    5  N5  UNL     1      -6.733 -35.611 -24.913  1.00  0.00    -0.176 N 
ATOM      6  H5  UNL     1      -7.510 -35.122 -24.468  1.00  0.00     0.186 HD
HETATM    7  C10 UNL     1      -5.510 -35.035 -24.904  1.00  0.00     0.136 A 
HETATM    8  N6  UNL     1      -5.032 -33.881 -24.413  1.00  0.00    -0.350 N 
ATOM      9  H6  UNL     1      -5.583 -33.183 -23.913  1.00  0.00     0.166 HD
HETATM   10  C11 UNL     1      -3.710 -33.783 -24.680  1.00  0.00     0.103 A 
HETATM   11  C12 UNL     1      -3.336 -34.916 -25.366  1.00  0.00     0.013 A 
HETATM   12  C22 UNL     1      -4.449 -35.715 -25.518  1.00  0.00     0.065 A 
ENDROOT
BRANCH  11  13
HETATM   13  C13 UNL     1      -2.005 -35.299 -25.887  1.00  0.00     0.049 A 
HETATM   14  C14 UNL     1      -1.115 -35.949 -25.069  1.00  0.00     0.133 A 
HETATM   15  F1  UNL     1      -1.473 -36.236 -23.769  1.00  0.00    -0.205 F 
HETATM   16  C15 UNL     1       0.131 -36.315 -25.540  1.00  0.00     0.085 A 
HETATM   17  C16 UNL     1       0.448 -36.007 -26.849  1.00  0.00     0.122 A 
HETATM   18  F2  UNL     1       1.675 -36.351 -27.360  1.00  0.00    -0.206 F 
HETATM   19  C17 UNL     1      -0.436 -35.358 -27.672  1.00  0.00     0.080 A 
HETATM   20  C18 UNL     1      -1.668 -34.997 -27.204  1.00  0.00     0.085 A 
BRANCH  20  21
HETATM   21  O1  UNL     1      -2.617 -34.347 -27.943  1.00  0.00    -0.350 OA
BRANCH  21  22
HETATM   22  C19 UNL     1      -2.872 -34.298 -29.286  1.00  0.00     0.177 C 
BRANCH  22  23
HETATM   23  C20 UNL     1      -4.225 -33.921 -29.752  1.00  0.00     0.054 C 
BRANCH  23  24
HETATM   24  C21 UNL     1      -5.244 -33.866 -28.622  1.00  0.00     0.231 C 
BRANCH  24  25
HETATM   25  N7  UNL     1      -5.044 -32.646 -27.883  1.00  0.00    -0.079 N 
ATOM     26  H73 UNL     1      -4.068 -32.349 -27.876  1.00  0.00     0.274 HD
ATOM     27  H72 UNL     1      -5.435 -31.832 -28.358  1.00  0.00     0.274 HD
ATOM     28  H71 UNL     1      -5.422 -32.769 -26.944  1.00  0.00     0.274 HD
ENDBRANCH  24  25
ENDBRANCH  23  24
ENDBRANCH  22  23
ENDBRANCH  21  22
ENDBRANCH  20  21
ENDBRANCH  11  13
BRANCH   1  29
HETATM   29  N2  UNL     1      -3.726 -37.570 -26.669  1.00  0.00    -0.373 N 
ATOM     30  H2  UNL     1      -2.809 -37.539 -26.225  1.00  0.00     0.161 HD
BRANCH  29  31
HETATM   31  C4  UNL     1      -3.862 -38.308 -27.880  1.00  0.00     0.151 C 
BRANCH  31  32
HETATM   32  C3  UNL     1      -3.661 -37.469 -29.123  1.00  0.00     0.290 C 
BRANCH  32  33
HETATM   33  N1  UNL     1      -4.544 -37.891 -30.198  1.00  0.00     0.081 N 
HETATM   34  C1  UNL     1      -3.976 -37.431 -31.450  1.00  0.00     0.309 C 
HETATM   35  C2  UNL     1      -5.857 -37.287 -30.038  1.00  0.00     0.309 C 
ENDBRANCH  32  33
ENDBRANCH  31  32
ENDBRANCH  29  31
ENDBRANCH   1  29
BRANCH   4  36
HETATM   36  N4  UNL     1      -8.147 -37.295 -25.459  1.00  0.00    -0.221 N 
ATOM     37  H4  UNL     1      -8.320 -38.250 -25.776  1.00  0.00     0.178 HD
BRANCH  36  38
HETATM   38  C7  UNL     1      -9.231 -36.473 -24.974  1.00  0.00     0.099 A 
HETATM   39  C8  UNL     1     -10.626 -37.037 -24.986  1.00  0.00     0.028 A 
HETATM   40  C9  UNL     1      -9.927 -36.850 -23.711  1.00  0.00     0.028 A 
ENDBRANCH  36  38
ENDBRANCH   4  36
TORSDOF 12
ENDMDL
MODEL 2
REMARK VINA RESULT: -6.512513817      2.758      6.934
REMARK  12 active torsions:
REMARK  status: ('A' for Active; 'I' for Inactive)
REMARK    1  A    between atoms: N1_2  and  C3_4 
REMARK    2  A    between atoms: C3_4  and  C4_5 
REMARK    3  A    between atoms: C4_5  and  N2_6 
REMARK    4  A    between atoms: N2_6  and  C5_8 
REMARK    5  A    between atoms: C6_11  and  N4_12 
REMARK    6  A    between atoms: N4_12  and  C7_14 
REMARK    7  A    between atoms: C12_23  and  C13_24 
REMARK    8  A    between atoms: C18_31  and  O1_32 
REMARK    9  A    between atoms: O1_32  and  C19_33 
REMARK   10  A    between atoms: C19_33  and  C20_34 
REMARK   11  A    between atoms: C20_34  and  C21_35 
REMARK   12  A    between atoms: C21_35  and  N7_36 
ROOT
HETATM    1  C5  UNL     1      -2.185 -36.283 -26.297  1.00  0.00     0.132 A 
HETATM    2  N3  UNL     1      -0.864 -36.512 -26.353  1.00  0.00    -0.176 N 
ATOM      3  H3  UNL     1      -0.448 -37.184 -25.707  1.00  0.00     0.186 HD
HETATM    4  C6  UNL     1      -0.078 -35.880 -27.236  1.00  0.00     0.681 A 
HETATM    5  N5  UNL     1      -0.626 -34.999 -28.083  1.00  0.00    -0.176 N 
ATOM      6  H5  UNL     1      -0.023 -34.521 -28.754  1.00  0.00     0.186 HD
HETATM    7  C10 UNL     1      -1.948 -34.720 -28.082  1.00  0.00     0.136 A 
HETATM    8  N6  UNL     1      -2.724 -33.898 -28.808  1.00  0.00    -0.350 N 
ATOM      9  H6  UNL     1      -2.394 -33.290 -29.558  1.00  0.00     0.166 HD
HETATM   10  C11 UNL     1      -4.008 -33.998 -28.396  1.00  0.00     0.103 A 
HETATM   11  C12 UNL     1      -4.048 -34.916 -27.371  1.00  0.00     0.013 A 
HETATM   12  C22 UNL     1      -2.769 -35.382 -27.157  1.00  0.00     0.065 A 
ENDROOT
BRANCH  11  13
HETATM   13  C13 UNL     1      -5.207 -35.387 -26.581  1.00  0.00     0.049 A 
HETATM   14  C14 UNL     1      -5.633 -34.659 -25.498  1.00  0.00     0.133 A 
HETATM   15  F1  UNL     1      -4.972 -33.498 -25.158  1.00  0.00    -0.205 F 
HETATM   16  C15 UNL     1      -6.714 -35.083 -24.750  1.00  0.00     0.085 A 
HETATM   17  C16 UNL     1      -7.347 -36.253 -25.125  1.00  0.00     0.122 A 
HETATM   18  F2  UNL     1      -8.425 -36.713 -24.412  1.00  0.00    -0.206 F 
HETATM   19  C17 UNL     1      -6.927 -36.985 -26.206  1.00  0.00     0.080 A 
HETATM   20  C18 UNL     1      -5.857 -36.563 -26.944  1.00  0.00     0.085 A 
BRANCH  20  21
HETATM   21  O1  UNL     1      -5.362 -37.222 -28.036  1.00  0.00    -0.350 OA
BRANCH  21  22
HETATM   22  C19 UNL     1      -5.858 -37.434 -29.293  1.00  0.00     0.177 C 
BRANCH  22  23
HETATM   23  C20 UNL     1      -5.373 -36.599 -30.413  1.00  0.00     0.054 C 
BRANCH  23  24
HETATM   24  C21 UNL     1      -3.991 -37.010 -30.900  1.00  0.00     0.231 C 
BRANCH  24  25
HETATM   25  N7  UNL     1      -3.376 -35.879 -31.547  1.00  0.00    -0.079 N 
ATOM     26  H73 UNL     1      -2.759 -35.360 -30.923  1.00  0.00     0.274 HD
ATOM     27  H72 UNL     1      -2.678 -36.155 -32.238  1.00  0.00     0.274 HD
ATOM     28  H71 UNL     1      -4.111 -35.294 -31.946  1.00  0.00     0.274 HD
ENDBRANCH  24  25
ENDBRANCH  23  24
ENDBRANCH  22  23
ENDBRANCH  21  22
ENDBRANCH  20  21
ENDBRANCH  11  13
BRANCH   1  29
HETATM   29  N2  UNL     1      -2.940 -36.899 -25.438  1.00  0.00    -0.373 N 
ATOM     30  H2  UNL     1      -3.600 -37.593 -25.788  1.00  0.00     0.161 HD
BRANCH  29  31
HETATM   31  C4  UNL     1      -2.897 -36.659 -24.035  1.00  0.00     0.151 C 
BRANCH  31  32
HETATM   32  C3  UNL     1      -2.487 -35.248 -23.676  1.00  0.00     0.290 C 
BRANCH  32  33
HETATM   33  N1  UNL     1      -1.553 -35.232 -22.563  1.00  0.00     0.081 N 
HETATM   34  C1  UNL     1      -0.212 -35.126 -23.106  1.00  0.00     0.309 C 
HETATM   35  C2  UNL     1      -1.648 -36.472 -21.808  1.00  0.00     0.309 C 
ENDBRANCH  32  33
ENDBRANCH  31  32
ENDBRANCH  29  31
ENDBRANCH   1  29
BRANCH   4  36
HETATM   36  N4  UNL     1       1.187 -36.102 -27.287  1.00  0.00    -0.221 N 
ATOM     37  H4  UNL     1       1.617 -36.471 -28.135  1.00  0.00     0.178 HD
BRANCH  36  38
HETATM   38  C7  UNL     1       1.988 -35.818 -26.119  1.00  0.00     0.099 A 
HETATM   39  C8  UNL     1       3.485 -35.941 -26.223  1.00  0.00     0.028 A 
HETATM   40  C9  UNL     1       2.868 -34.615 -26.110  1.00  0.00     0.028 A 
ENDBRANCH  36  38
ENDBRANCH   4  36
TORSDOF 12
ENDMDL
MODEL 3
REMARK VINA RESULT: -6.314693469      2.841      6.871
REMARK  12 active torsions:
REMARK  status: ('A' for Active; 'I' for Inactive)
REMARK    1  A    between atoms: N1_2  and  C3_4 
REMARK    2  A    between atoms: C3_4  and  C4_5 
REMARK    3  A    between atoms: C4_5  and  N2_6 
REMARK    4  A    between atoms: N2_6  and  C5_8 
REMARK    5  A    between atoms: C6_11  and  N4_12 
REMARK    6  A    between atoms: N4_12  and  C7_14 
REMARK    7  A    between atoms: C12_23  and  C13_24 
REMARK    8  A    between atoms: C18_31  and  O1_32 
REMARK    9  A    between atoms: O1_32  and  C19_33 
REMARK   10  A    between atoms: C19_33  and  C20_34 
REMARK   11  A    between atoms: C20_34  and  C21_35 
REMARK   12  A    between atoms: C21_35  and  N7_36 
ROOT
HETATM    1  C5  UNL     1      -2.350 -35.205 -26.022  1.00  0.00     0.132 A 
HETATM    2  N3  UNL     1      -1.035 -35.374 -25.821  1.00  0.00    -0.176 N 
ATOM      3  H3  UNL     1      -0.520 -34.678 -25.280  1.00  0.00     0.186 HD
HETATM    4  C6  UNL     1      -0.379 -36.434 -26.314  1.00  0.00     0.681 A 
HETATM    5  N5  UNL     1      -1.056 -37.347 -27.024  1.00  0.00    -0.176 N 
ATOM      6  H5  UNL     1      -0.552 -38.152 -27.397  1.00  0.00     0.186 HD
HETATM    7  C10 UNL     1      -2.382 -37.239 -27.265  1.00  0.00     0.136 A 
HETATM    8  N6  UNL     1      -3.268 -37.998 -27.930  1.00  0.00    -0.350 N 
ATOM      9  H6  UNL     1      -3.050 -38.870 -28.410  1.00  0.00     0.166 HD
HETATM   10  C11 UNL     1      -4.494 -37.429 -27.868  1.00  0.00     0.103 A 
HETATM   11  C12 UNL     1      -4.380 -36.269 -27.136  1.00  0.00     0.013 A 
HETATM   12  C22 UNL     1      -3.065 -36.130 -26.748  1.00  0.00     0.065 A 
ENDROOT
BRANCH  11  13
HETATM   13  C13 UNL     1      -5.423 -35.283 -26.776  1.00  0.00     0.049 A 
HETATM   14  C14 UNL     1      -6.334 -35.584 -25.794  1.00  0.00     0.133 A 
HETATM   15  F1  UNL     1      -6.266 -36.803 -25.155  1.00  0.00    -0.205 F 
HETATM   16  C15 UNL     1      -7.313 -34.674 -25.445  1.00  0.00     0.085 A 
HETATM   17  C16 UNL     1      -7.346 -33.464 -26.111  1.00  0.00     0.122 A 
HETATM   18  F2  UNL     1      -8.302 -32.531 -25.798  1.00  0.00    -0.206 F 
HETATM   19  C17 UNL     1      -6.440 -33.157 -27.094  1.00  0.00     0.080 A 
HETATM   20  C18 UNL     1      -5.472 -34.058 -27.437  1.00  0.00     0.085 A 
BRANCH  20  21
HETATM   21  O1  UNL     1      -4.525 -33.848 -28.402  1.00  0.00    -0.350 OA
BRANCH  21  22
HETATM   22  C19 UNL     1      -4.590 -33.797 -29.767  1.00  0.00     0.177 C 
BRANCH  22  23
HETATM   23  C20 UNL     1      -4.856 -35.039 -30.525  1.00  0.00     0.054 C 
BRANCH  23  24
HETATM   24  C21 UNL     1      -3.587 -35.685 -31.062  1.00  0.00     0.231 C 
BRANCH  24  25
HETATM   25  N7  UNL     1      -2.875 -34.714 -31.852  1.00  0.00    -0.079 N 
ATOM     26  H73 UNL     1      -2.030 -35.097 -32.274  1.00  0.00     0.274 HD
ATOM     27  H72 UNL     1      -3.366 -34.476 -32.715  1.00  0.00     0.274 HD
ATOM     28  H71 UNL     1      -2.687 -33.897 -31.271  1.00  0.00     0.274 HD
ENDBRANCH  24  25
ENDBRANCH  23  24
ENDBRANCH  22  23
ENDBRANCH  21  22
ENDBRANCH  20  21
ENDBRANCH  11  13
BRANCH   1  29
HETATM   29  N2  UNL     1      -2.979 -34.174 -25.541  1.00  0.00    -0.373 N 
ATOM     30  H2  UNL     1      -3.525 -33.600 -26.183  1.00  0.00     0.161 HD
BRANCH  29  31
HETATM   31  C4  UNL     1      -2.947 -33.801 -24.167  1.00  0.00     0.151 C 
BRANCH  31  32
HETATM   32  C3  UNL     1      -4.007 -34.486 -23.331  1.00  0.00     0.290 C 
BRANCH  32  33
HETATM   33  N1  UNL     1      -3.422 -35.456 -22.422  1.00  0.00     0.081 N 
HETATM   34  C1  UNL     1      -2.026 -35.109 -22.235  1.00  0.00     0.309 C 
HETATM   35  C2  UNL     1      -3.492 -36.791 -22.996  1.00  0.00     0.309 C 
ENDBRANCH  32  33
ENDBRANCH  31  32
ENDBRANCH  29  31
ENDBRANCH   1  29
BRANCH   4  36
HETATM   36  N4  UNL     1       0.881 -36.593 -26.121  1.00  0.00    -0.221 N 
ATOM     37  H4  UNL     1       1.221 -37.150 -25.337  1.00  0.00     0.178 HD
BRANCH  36  38
HETATM   38  C7  UNL     1       1.807 -35.968 -27.036  1.00  0.00     0.099 A 
HETATM   39  C8  UNL     1       3.273 -35.969 -26.694  1.00  0.00     0.028 A 
HETATM   40  C9  UNL     1       2.779 -36.813 -27.786  1.00  0.00     0.028 A 
ENDBRANCH  36  38
ENDBRANCH   4  36
TORSDOF 12
ENDMDL
MODEL 4
REMARK VINA RESULT: -6.311303388      2.953      6.661
REMARK  12 active torsions:
REMARK  status: ('A' for Active; 'I' for Inactive)
REMARK    1  A    between atoms: N1_2  and  C3_4 
REMARK    2  A    between atoms: C3_4  and  C4_5 
REMARK    3  A    between atoms: C4_5  and  N2_6 
REMARK    4  A    between atoms: N2_6  and  C5_8 
REMARK    5  A    between atoms: C6_11  and  N4_12 
REMARK    6  A    between atoms: N4_12  and  C7_14 
REMARK    7  A    between atoms: C12_23  and  C13_24 
REMARK    8  A    between atoms: C18_31  and  O1_32 
REMARK    9  A    between atoms: O1_32  and  C19_33 
REMARK   10  A    between atoms: C19_33  and  C20_34 
REMARK   11  A    between atoms: C20_34  and  C21_35 
REMARK   12  A    between atoms: C21_35  and  N7_36 
ROOT
HETATM    1  C5  UNL     1      -1.832 -35.495 -26.951  1.00  0.00     0.132 A 
HETATM    2  N3  UNL     1      -0.688 -35.533 -27.651  1.00  0.00    -0.176 N 
ATOM      3  H3  UNL     1      -0.720 -35.411 -28.664  1.00  0.00     0.186 HD
HETATM    4  C6  UNL     1       0.496 -35.726 -27.053  1.00  0.00     0.681 A 
HETATM    5  N5  UNL     1       0.537 -35.885 -25.723  1.00  0.00    -0.176 N 
ATOM      6  H5  UNL     1       1.441 -36.032 -25.274  1.00  0.00     0.186 HD
HETATM    7  C10 UNL     1      -0.576 -35.859 -24.957  1.00  0.00     0.136 A 
HETATM    8  N6  UNL     1      -0.797 -35.990 -23.639  1.00  0.00    -0.350 N 
ATOM      9  H6  UNL     1      -0.076 -36.148 -22.935  1.00  0.00     0.166 HD
HETATM   10  C11 UNL     1      -2.121 -35.882 -23.385  1.00  0.00     0.103 A 
HETATM   11  C12 UNL     1      -2.762 -35.674 -24.585  1.00  0.00     0.013 A 
HETATM   12  C22 UNL     1      -1.813 -35.656 -25.584  1.00  0.00     0.065 A 
ENDROOT
BRANCH  11  13
HETATM   13  C13 UNL     1      -4.205 -35.491 -24.856  1.00  0.00     0.049 A 
HETATM   14  C14 UNL     1      -4.974 -36.571 -25.210  1.00  0.00     0.133 A 
HETATM   15  F1  UNL     1      -4.391 -37.816 -25.309  1.00  0.00    -0.205 F 
HETATM   16  C15 UNL     1      -6.323 -36.418 -25.464  1.00  0.00     0.085 A 
HETATM   17  C16 UNL     1      -6.867 -35.153 -25.354  1.00  0.00     0.122 A 
HETATM   18  F2  UNL     1      -8.202 -34.952 -25.598  1.00  0.00    -0.206 F 
HETATM   19  C17 UNL     1      -6.105 -34.068 -25.001  1.00  0.00     0.080 A 
HETATM   20  C18 UNL     1      -4.771 -34.223 -24.749  1.00  0.00     0.085 A 
BRANCH  20  21
HETATM   21  O1  UNL     1      -3.927 -33.207 -24.393  1.00  0.00    -0.350 OA
BRANCH  21  22
HETATM   22  C19 UNL     1      -3.798 -32.468 -23.250  1.00  0.00     0.177 C 
BRANCH  22  23
HETATM   23  C20 UNL     1      -2.498 -31.833 -22.942  1.00  0.00     0.054 C 
BRANCH  23  24
HETATM   24  C21 UNL     1      -2.431 -30.379 -23.386  1.00  0.00     0.231 C 
BRANCH  24  25
HETATM   25  N7  UNL     1      -3.567 -30.102 -24.226  1.00  0.00    -0.079 N 
ATOM     26  H73 UNL     1      -4.362 -30.707 -24.020  1.00  0.00     0.274 HD
ATOM     27  H72 UNL     1      -4.009 -29.209 -24.005  1.00  0.00     0.274 HD
ATOM     28  H71 UNL     1      -3.273 -30.161 -25.201  1.00  0.00     0.274 HD
ENDBRANCH  24  25
ENDBRANCH  23  24
ENDBRANCH  22  23
ENDBRANCH  21  22
ENDBRANCH  20  21
ENDBRANCH  11  13
BRANCH   1  29
HETATM   29  N2  UNL     1      -2.976 -35.307 -27.538  1.00  0.00    -0.373 N 
ATOM     30  H2  UNL     1      -3.747 -35.929 -27.298  1.00  0.00     0.161 HD
BRANCH  29  31
HETATM   31  C4  UNL     1      -3.212 -34.281 -28.496  1.00  0.00     0.151 C 
BRANCH  31  32
HETATM   32  C3  UNL     1      -4.434 -34.527 -29.354  1.00  0.00     0.290 C 
BRANCH  32  33
HETATM   33  N1  UNL     1      -4.065 -34.890 -30.712  1.00  0.00     0.081 N 
HETATM   34  C1  UNL     1      -4.008 -36.337 -30.788  1.00  0.00     0.309 C 
HETATM   35  C2  UNL     1      -2.751 -34.359 -31.036  1.00  0.00     0.309 C 
ENDBRANCH  32  33
ENDBRANCH  31  32
ENDBRANCH  29  31
ENDBRANCH   1  29
BRANCH   4  36
HETATM   36  N4  UNL     1       1.590 -35.762 -27.727  1.00  0.00    -0.221 N 
ATOM     37  H4  UNL     1       1.831 -35.006 -28.368  1.00  0.00     0.178 HD
BRANCH  36  38
HETATM   38  C7  UNL     1       2.471 -36.894 -27.558  1.00  0.00     0.099 A 
HETATM   39  C8  UNL     1       3.319 -37.329 -28.722  1.00  0.00     0.028 A 
HETATM   40  C9  UNL     1       3.946 -36.681 -27.566  1.00  0.00     0.028 A 
ENDBRANCH  36  38
ENDBRANCH   4  36
TORSDOF 12
ENDMDL
MODEL 5
REMARK VINA RESULT: -6.287051999      3.030      5.314
REMARK  12 active torsions:
REMARK  status: ('A' for Active; 'I' for Inactive)
REMARK    1  A    between atoms: N1_2  and  C3_4 
REMARK    2  A    between atoms: C3_4  and  C4_5 
REMARK    3  A    between atoms: C4_5  and  N2_6 
REMARK    4  A    between atoms: N2_6  and  C5_8 
REMARK    5  A    between atoms: C6_11  and  N4_12 
REMARK    6  A    between atoms: N4_12  and  C7_14 
REMARK    7  A    between atoms: C12_23  and  C13_24 
REMARK    8  A    between atoms: C18_31  and  O1_32 
REMARK    9  A    between atoms: O1_32  and  C19_33 
REMARK   10  A    between atoms: C19_33  and  C20_34 
REMARK   11  A    between atoms: C20_34  and  C21_35 
REMARK   12  A    between atoms: C21_35  and  N7_36 
ROOT
HETATM    1  C5  UNL     1      -3.821 -36.717 -25.227  1.00  0.00     0.132 A 
HETATM    2  N3  UNL     1      -3.683 -36.809 -23.896  1.00  0.00    -0.176 N 
ATOM      3  H3  UNL     1      -4.473 -37.126 -23.334  1.00  0.00     0.186 HD
HETATM    4  C6  UNL     1      -2.531 -36.495 -23.285  1.00  0.00     0.681 A 
HETATM    5  N5  UNL     1      -1.493 -36.080 -24.024  1.00  0.00    -0.176 N 
ATOM      6  H5  UNL     1      -0.619 -35.842 -23.554  1.00  0.00     0.186 HD
HETATM    7  C10 UNL     1      -1.563 -35.964 -25.369  1.00  0.00     0.136 A 
HETATM    8  N6  UNL     1      -0.688 -35.580 -26.313  1.00  0.00    -0.350 N 
ATOM      9  H6  UNL     1       0.271 -35.284 -26.138  1.00  0.00     0.166 HD
HETATM   10  C11 UNL     1      -1.273 -35.646 -27.531  1.00  0.00     0.103 A 
HETATM   11  C12 UNL     1      -2.564 -36.087 -27.352  1.00  0.00     0.013 A 
HETATM   12  C22 UNL     1      -2.768 -36.293 -26.005  1.00  0.00     0.065 A 
ENDROOT
BRANCH  11  13
HETATM   13  C13 UNL     1      -3.618 -36.329 -28.362  1.00  0.00     0.049 A 
HETATM   14  C14 UNL     1      -3.772 -37.584 -28.898  1.00  0.00     0.133 A 
HETATM   15  F1  UNL     1      -2.939 -38.603 -28.489  1.00  0.00    -0.205 F 
HETATM   16  C15 UNL     1      -4.753 -37.827 -29.840  1.00  0.00     0.085 A 
HETATM   17  C16 UNL     1      -5.565 -36.777 -30.221  1.00  0.00     0.122 A 
HETATM   18  F2  UNL     1      -6.552 -36.972 -31.155  1.00  0.00    -0.206 F 
HETATM   19  C17 UNL     1      -5.417 -35.521 -29.690  1.00  0.00     0.080 A 
HETATM   20  C18 UNL     1      -4.447 -35.283 -28.758  1.00  0.00     0.085 A 
BRANCH  20  21
HETATM   21  O1  UNL     1      -4.219 -34.069 -28.171  1.00  0.00    -0.350 OA
BRANCH  21  22
HETATM   22  C19 UNL     1      -5.018 -32.980 -27.953  1.00  0.00     0.177 C 
BRANCH  22  23
HETATM   23  C20 UNL     1      -6.123 -33.080 -26.975  1.00  0.00     0.054 C 
BRANCH  23  24
HETATM   24  C21 UNL     1      -5.705 -32.677 -25.568  1.00  0.00     0.231 C 
BRANCH  24  25
HETATM   25  N7  UNL     1      -4.345 -33.101 -25.354  1.00  0.00    -0.079 N 
ATOM     26  H73 UNL     1      -3.666 -32.397 -25.641  1.00  0.00     0.274 HD
ATOM     27  H72 UNL     1      -4.099 -33.139 -24.364  1.00  0.00     0.274 HD
ATOM     28  H71 UNL     1      -4.206 -33.995 -25.825  1.00  0.00     0.274 HD
ENDBRANCH  24  25
ENDBRANCH  23  24
ENDBRANCH  22  23
ENDBRANCH  21  22
ENDBRANCH  20  21
ENDBRANCH  11  13
BRANCH   1  29
HETATM   29  N2  UNL     1      -4.940 -37.023 -25.811  1.00  0.00    -0.373 N 
ATOM     30  H2  UNL     1      -4.931 -37.764 -26.511  1.00  0.00     0.161 HD
BRANCH  29  31
HETATM   31  C4  UNL     1      -6.180 -36.382 -25.527  1.00  0.00     0.151 C 
BRANCH  31  32
HETATM   32  C3  UNL     1      -7.382 -37.281 -25.719  1.00  0.00     0.290 C 
BRANCH  32  33
HETATM   33  N1  UNL     1      -8.612 -36.614 -25.326  1.00  0.00     0.081 N 
HETATM   34  C1  UNL     1      -8.421 -36.070 -23.995  1.00  0.00     0.309 C 
HETATM   35  C2  UNL     1      -9.710 -37.567 -25.282  1.00  0.00     0.309 C 
ENDBRANCH  32  33
ENDBRANCH  31  32
ENDBRANCH  29  31
ENDBRANCH   1  29
BRANCH   4  36
HETATM   36  N4  UNL     1      -2.402 -36.584 -22.010  1.00  0.00    -0.221 N 
ATOM     37  H4  UNL     1      -1.857 -35.893 -21.493  1.00  0.00     0.178 HD
BRANCH  36  38
HETATM   38  C7  UNL     1      -3.043 -37.680 -21.322  1.00  0.00     0.099 A 
HETATM   39  C8  UNL     1      -2.255 -38.450 -20.298  1.00  0.00     0.028 A 
HETATM   40  C9  UNL     1      -3.336 -37.560 -19.866  1.00  0.00     0.028 A 
ENDBRANCH  36  38
ENDBRANCH   4  36
TORSDOF 12
ENDMDL
