MODEL 1
REMARK VINA RESULT: -5.587071664      0.000      0.000
REMARK  5 active torsions:
REMARK  status: ('A' for Active; 'I' for Inactive)
REMARK    1  A    between atoms: C1_2  and  N1_3 
REMARK    2  A    between atoms: N1_3  and  C2_4 
REMARK    3  A    between atoms: C2_4  and  C3_5 
REMARK    4  A    between atoms: C3_5  and  C4_6 
REMARK    5  A    between atoms: C4_6  and  C5_7 
ROOT
HETATM    1  C4  UNL     1       8.139  13.838  30.317  1.00  0.00     0.007 C 
ENDROOT
BRANCH   1   2
HETATM    2  C3  UNL     1       7.319  13.921  31.537  1.00  0.00     0.034 C 
BRANCH   2   3
HETATM    3  C2  UNL     1       7.748  14.793  32.655  1.00  0.00     0.221 C 
BRANCH   3   4
HETATM    4  N1  UNL     1       8.667  14.187  33.561  1.00  0.00    -0.423 NA
BRANCH   4   5
HETATM    5  C1  UNL     1       9.517  13.629  34.398  1.00  0.00     0.435 C 
HETATM    6  O1  UNL     1      10.279  14.123  35.309  1.00  0.00    -0.269 OA
ENDBRANCH   4   5
ENDBRANCH   3   4
ENDBRANCH   2   3
ENDBRANCH   1   2
BRANCH   1   7
HETATM    7  C5  UNL     1       8.489  12.511  29.810  1.00  0.00    -0.014 C 
HETATM    8  C6  UNL     1       9.791  12.022  30.557  1.00  0.00     0.004 C 
HETATM    9  C7  UNL     1       9.839  10.536  30.260  1.00  0.00     0.000 C 
HETATM   10  C8  UNL     1       8.535  10.225  29.555  1.00  0.00     0.000 C 
HETATM   11  C9  UNL     1       7.639  11.336  30.178  1.00  0.00     0.004 C 
ENDBRANCH   1   7
TORSDOF 5
ENDMDL
MODEL 2
REMARK VINA RESULT: -5.571619452      1.997      3.305
REMARK  5 active torsions:
REMARK  status: ('A' for Active; 'I' for Inactive)
REMARK    1  A    between atoms: C1_2  and  N1_3 
REMARK    2  A    between atoms: N1_3  and  C2_4 
REMARK    3  A    between atoms: C2_4  and  C3_5 
REMARK    4  A    between atoms: C3_5  and  C4_6 
REMARK    5  A    between atoms: C4_6  and  C5_7 
ROOT
HETATM    1  C4  UNL     1      10.350   9.674  32.452  1.00  0.00     0.007 C 
ENDROOT
BRANCH   1   2
HETATM    2  C3  UNL     1      11.224  10.196  33.515  1.00  0.00     0.034 C 
BRANCH   2   3
HETATM    3  C2  UNL     1      10.632  10.676  34.784  1.00  0.00     0.221 C 
BRANCH   3   4
HETATM    4  N1  UNL     1      10.193  12.033  34.759  1.00  0.00    -0.423 NA
BRANCH   4   5
HETATM    5  C1  UNL     1       9.788  13.286  34.736  1.00  0.00     0.435 C 
HETATM    6  O1  UNL     1      10.335  14.375  35.146  1.00  0.00    -0.269 OA
ENDBRANCH   4   5
ENDBRANCH   3   4
ENDBRANCH   2   3
ENDBRANCH   1   2
BRANCH   1   7
HETATM    7  C5  UNL     1       9.576  10.632  31.662  1.00  0.00    -0.014 C 
HETATM    8  C6  UNL     1       9.575  10.150  30.159  1.00  0.00     0.004 C 
HETATM    9  C7  UNL     1       8.461  10.958  29.522  1.00  0.00     0.000 C 
HETATM   10  C8  UNL     1       7.789  11.687  30.668  1.00  0.00     0.000 C 
HETATM   11  C9  UNL     1       8.088  10.681  31.818  1.00  0.00     0.004 C 
ENDBRANCH   1   7
TORSDOF 5
ENDMDL
MODEL 3
REMARK VINA RESULT: -5.489083784      1.165      1.165
REMARK  5 active torsions:
REMARK  status: ('A' for Active; 'I' for Inactive)
REMARK    1  A    between atoms: C1_2  and  N1_3 
REMARK    2  A    between atoms: N1_3  and  C2_4 
REMARK    3  A    between atoms: C2_4  and  C3_5 
REMARK    4  A    between atoms: C3_5  and  C4_6 
REMARK    5  A    between atoms: C4_6  and  C5_7 
ROOT
HETATM    1  C4  UNL     1       8.430  14.079  30.687  1.00  0.00     0.007 C 
ENDROOT
BRANCH   1   2
HETATM    2  C3  UNL     1       7.807  14.227  32.013  1.00  0.00     0.034 C 
BRANCH   2   3
HETATM    3  C2  UNL     1       8.659  14.301  33.222  1.00  0.00     0.221 C 
BRANCH   3   4
HETATM    4  N1  UNL     1       9.136  13.041  33.692  1.00  0.00    -0.423 NA
BRANCH   4   5
HETATM    5  C1  UNL     1       9.576  11.879  34.126  1.00  0.00     0.435 C 
HETATM    6  O1  UNL     1      10.609  11.555  34.821  1.00  0.00    -0.269 OA
ENDBRANCH   4   5
ENDBRANCH   3   4
ENDBRANCH   2   3
ENDBRANCH   1   2
BRANCH   1   7
HETATM    7  C5  UNL     1       8.407  12.759  30.057  1.00  0.00    -0.014 C 
HETATM    8  C6  UNL     1       9.792  12.053  30.334  1.00  0.00     0.004 C 
HETATM    9  C7  UNL     1       9.528  10.599  29.995  1.00  0.00     0.000 C 
HETATM   10  C8  UNL     1       8.039  10.511  29.735  1.00  0.00     0.000 C 
HETATM   11  C9  UNL     1       7.553  11.679  30.643  1.00  0.00     0.004 C 
ENDBRANCH   1   7
TORSDOF 5
ENDMDL
MODEL 4
REMARK VINA RESULT: -5.359518238      0.729      1.291
REMARK  5 active torsions:
REMARK  status: ('A' for Active; 'I' for Inactive)
REMARK    1  A    between atoms: C1_2  and  N1_3 
REMARK    2  A    between atoms: N1_3  and  C2_4 
REMARK    3  A    between atoms: C2_4  and  C3_5 
REMARK    4  A    between atoms: C3_5  and  C4_6 
REMARK    5  A    between atoms: C4_6  and  C5_7 
ROOT
HETATM    1  C4  UNL     1       7.706  13.280  30.533  1.00  0.00     0.007 C 
ENDROOT
BRANCH   1   2
HETATM    2  C3  UNL     1       8.201  14.470  31.246  1.00  0.00     0.034 C 
BRANCH   2   3
HETATM    3  C2  UNL     1       7.782  14.716  32.645  1.00  0.00     0.221 C 
BRANCH   3   4
HETATM    4  N1  UNL     1       8.661  14.179  33.632  1.00  0.00    -0.423 NA
BRANCH   4   5
HETATM    5  C1  UNL     1       9.473  13.683  34.542  1.00  0.00     0.435 C 
HETATM    6  O1  UNL     1      10.360  14.230  35.295  1.00  0.00    -0.269 OA
ENDBRANCH   4   5
ENDBRANCH   3   4
ENDBRANCH   2   3
ENDBRANCH   1   2
BRANCH   1   7
HETATM    7  C5  UNL     1       8.312  11.986  30.847  1.00  0.00    -0.014 C 
HETATM    8  C6  UNL     1       8.306  11.105  29.537  1.00  0.00     0.004 C 
HETATM    9  C7  UNL     1       9.275   9.982  29.854  1.00  0.00     0.000 C 
HETATM   10  C8  UNL     1       9.899  10.354  31.183  1.00  0.00     0.000 C 
HETATM   11  C9  UNL     1       9.786  11.904  31.092  1.00  0.00     0.004 C 
ENDBRANCH   1   7
TORSDOF 5
ENDMDL
MODEL 5
REMARK VINA RESULT: -5.323515941      2.764      4.524
REMARK  5 active torsions:
REMARK  status: ('A' for Active; 'I' for Inactive)
REMARK    1  A    between atoms: C1_2  and  N1_3 
REMARK    2  A    between atoms: N1_3  and  C2_4 
REMARK    3  A    between atoms: C2_4  and  C3_5 
REMARK    4  A    between atoms: C3_5  and  C4_6 
REMARK    5  A    between atoms: C4_6  and  C5_7 
ROOT
HETATM    1  C4  UNL     1       7.954  12.969  29.676  1.00  0.00     0.007 C 
ENDROOT
BRANCH   1   2
HETATM    2  C3  UNL     1       8.781  11.800  29.333  1.00  0.00     0.034 C 
BRANCH   2   3
HETATM    3  C2  UNL     1       8.309  10.439  29.673  1.00  0.00     0.221 C 
BRANCH   3   4
HETATM    4  N1  UNL     1       7.235  10.400  30.611  1.00  0.00    -0.423 NA
BRANCH   4   5
HETATM    5  C1  UNL     1       6.244  10.364  31.478  1.00  0.00     0.435 C 
HETATM    6  O1  UNL     1       5.290  11.190  31.729  1.00  0.00    -0.269 OA
ENDBRANCH   4   5
ENDBRANCH   3   4
ENDBRANCH   2   3
ENDBRANCH   1   2
BRANCH   1   7
HETATM    7  C5  UNL     1       8.432  13.868  30.728  1.00  0.00    -0.014 C 
HETATM    8  C6  UNL     1       7.239  14.143  31.724  1.00  0.00     0.004 C 
HETATM    9  C7  UNL     1       7.917  14.738  32.943  1.00  0.00     0.000 C 
HETATM   10  C8  UNL     1       9.403  14.609  32.677  1.00  0.00     0.000 C 
HETATM   11  C9  UNL     1       9.388  13.353  31.757  1.00  0.00     0.004 C 
ENDBRANCH   1   7
TORSDOF 5
ENDMDL
