MODEL 1
REMARK VINA RESULT: -8.667013810      0.000      0.000
REMARK  11 active torsions:
REMARK  status: ('A' for Active; 'I' for Inactive)
REMARK    1  A    between atoms: C2_2  and  C3_4 
REMARK    2  A    between atoms: C3_4  and  C4_5 
REMARK       I    between atoms: N1_6  and  C5_8 
REMARK       I    between atoms: C5_8  and  N2_10 
REMARK    3  A    between atoms: C9_14  and  C10_15 
REMARK       I    between atoms: C10_15  and  N3_17 
REMARK    4  A    between atoms: N3_17  and  C11_19 
REMARK    5  A    between atoms: C11_19  and  C12_20 
REMARK    6  A    between atoms: C11_19  and  C24_37 
REMARK       I    between atoms: C12_20  and  N4_22 
REMARK    7  A    between atoms: N4_22  and  C13_24 
REMARK    8  A    between atoms: C13_24  and  C14_25 
REMARK    9  A    between atoms: C13_24  and  C21_32 
REMARK   10  A    between atoms: C14_25  and  C15_26 
REMARK   11  A    between atoms: C21_32  and  C22_34 
ROOT
HETATM    1  C11 UNL     1      17.749   9.342  19.812  1.00  0.00     0.180 C 
ENDROOT
BRANCH   1   2
HETATM    2  N3  UNL     1      18.837  10.147  19.639  1.00  0.00    -0.346 N 
HETATM    3  C10 UNL     1      18.675  11.362  18.871  1.00  0.00     0.241 C 
HETATM    4  O3  UNL     1      17.504  11.637  18.479  1.00  0.00    -0.271 OA
ATOM      5  H3  UNL     1      19.741   9.899  20.040  1.00  0.00     0.163 HD
BRANCH   3   6
HETATM    6  C9  UNL     1      19.709  12.296  18.468  1.00  0.00     0.181 C 
HETATM    7  N2  UNL     1      20.969  11.734  18.069  1.00  0.00    -0.321 N 
HETATM    8  C5  UNL     1      22.177  11.682  18.776  1.00  0.00     0.322 C 
HETATM    9  C6  UNL     1      20.804  11.309  16.701  1.00  0.00     0.129 C 
HETATM   10  N1  UNL     1      23.386  11.288  18.002  1.00  0.00    -0.322 N 
HETATM   11  O2  UNL     1      22.311  11.933  19.955  1.00  0.00    -0.247 OA
HETATM   12  C4  UNL     1      23.878  12.268  17.256  1.00  0.00     0.073 C 
ATOM     13  H1  UNL     1      23.796  10.355  18.041  1.00  0.00     0.169 HD
HETATM   14  C7  UNL     1      19.839  12.281  16.050  1.00  0.00     0.022 C 
HETATM   15  C8  UNL     1      19.239  13.038  17.183  1.00  0.00     0.037 C 
BRANCH  12  16
HETATM   16  C3  UNL     1      23.301  13.612  17.207  1.00  0.00     0.122 C 
BRANCH  16  17
HETATM   17  C2  UNL     1      23.484  14.147  15.811  1.00  0.00     0.127 C 
HETATM   18  C1  UNL     1      22.357  14.849  15.141  1.00  0.00     0.091 C 
HETATM   19  O1  UNL     1      24.536  13.993  15.231  1.00  0.00    -0.298 OA
ENDBRANCH  16  17
ENDBRANCH  12  16
ENDBRANCH   3   6
ENDBRANCH   1   2
BRANCH   1  20
HETATM   20  C12 UNL     1      17.289   8.567  20.974  1.00  0.00     0.241 C 
HETATM   21  O4  UNL     1      16.488   8.890  21.852  1.00  0.00    -0.271 OA
HETATM   22  N4  UNL     1      17.933   7.277  20.972  1.00  0.00    -0.347 N 
ATOM     23  H4  UNL     1      18.551   7.165  20.168  1.00  0.00     0.163 HD
BRANCH  22  24
HETATM   24  C13 UNL     1      17.929   6.131  21.789  1.00  0.00     0.163 C 
BRANCH  24  25
HETATM   25  C14 UNL     1      19.310   5.782  22.191  1.00  0.00     0.038 C 
BRANCH  25  26
HETATM   26  C15 UNL     1      20.446   6.496  21.597  1.00  0.00    -0.012 C 
HETATM   27  C16 UNL     1      21.277   7.226  22.632  1.00  0.00     0.005 C 
HETATM   28  C17 UNL     1      21.879   8.437  21.967  1.00  0.00     0.000 C 
HETATM   29  C18 UNL     1      22.659   8.019  20.765  1.00  0.00     0.000 C 
HETATM   30  C19 UNL     1      22.685   6.552  20.527  1.00  0.00     0.000 C 
HETATM   31  C20 UNL     1      21.291   5.910  20.570  1.00  0.00     0.005 C 
ENDBRANCH  25  26
ENDBRANCH  24  25
BRANCH  24  32
HETATM   32  C21 UNL     1      17.135   5.117  21.062  1.00  0.00     0.216 C 
HETATM   33  O5  UNL     1      17.719   4.109  20.598  1.00  0.00    -0.287 OA
BRANCH  32  34
HETATM   34  C22 UNL     1      15.702   5.213  20.866  1.00  0.00     0.193 C 
HETATM   35  C23 UNL     1      14.722   5.729  21.845  1.00  0.00     0.100 C 
HETATM   36  O6  UNL     1      15.183   4.820  19.746  1.00  0.00    -0.290 OA
ENDBRANCH  32  34
ENDBRANCH  24  32
ENDBRANCH  22  24
ENDBRANCH   1  20
BRANCH   1  37
HETATM   37  C24 UNL     1      17.691   8.279  18.639  1.00  0.00     0.009 C 
HETATM   38  C25 UNL     1      18.950   8.391  17.847  1.00  0.00     0.012 C 
HETATM   39  C26 UNL     1      16.416   8.501  17.912  1.00  0.00     0.012 C 
ENDBRANCH   1  37
TORSDOF 11
ENDMDL
MODEL 2
REMARK VINA RESULT: -8.643070509      1.371      2.064
REMARK  11 active torsions:
REMARK  status: ('A' for Active; 'I' for Inactive)
REMARK    1  A    between atoms: C2_2  and  C3_4 
REMARK    2  A    between atoms: C3_4  and  C4_5 
REMARK       I    between atoms: N1_6  and  C5_8 
REMARK       I    between atoms: C5_8  and  N2_10 
REMARK    3  A    between atoms: C9_14  and  C10_15 
REMARK       I    between atoms: C10_15  and  N3_17 
REMARK    4  A    between atoms: N3_17  and  C11_19 
REMARK    5  A    between atoms: C11_19  and  C12_20 
REMARK    6  A    between atoms: C11_19  and  C24_37 
REMARK       I    between atoms: C12_20  and  N4_22 
REMARK    7  A    between atoms: N4_22  and  C13_24 
REMARK    8  A    between atoms: C13_24  and  C14_25 
REMARK    9  A    between atoms: C13_24  and  C21_32 
REMARK   10  A    between atoms: C14_25  and  C15_26 
REMARK   11  A    between atoms: C21_32  and  C22_34 
ROOT
HETATM    1  C11 UNL     1      18.397   9.427  19.291  1.00  0.00     0.180 C 
ENDROOT
BRANCH   1   2
HETATM    2  N3  UNL     1      19.605   9.619  18.687  1.00  0.00    -0.346 N 
HETATM    3  C10 UNL     1      19.887  10.916  18.112  1.00  0.00     0.241 C 
HETATM    4  O3  UNL     1      19.015  11.817  18.284  1.00  0.00    -0.271 OA
ATOM      5  H3  UNL     1      20.293   8.867  18.641  1.00  0.00     0.163 HD
BRANCH   3   6
HETATM    6  C9  UNL     1      21.046  11.303  17.330  1.00  0.00     0.181 C 
HETATM    7  N2  UNL     1      21.438  12.683  17.394  1.00  0.00    -0.321 N 
HETATM    8  C5  UNL     1      21.250  13.699  16.448  1.00  0.00     0.322 C 
HETATM    9  C6  UNL     1      22.196  12.829  18.612  1.00  0.00     0.129 C 
HETATM   10  N1  UNL     1      22.007  14.962  16.668  1.00  0.00    -0.322 N 
HETATM   11  O2  UNL     1      20.529  13.628  15.476  1.00  0.00    -0.247 OA
HETATM   12  C4  UNL     1      23.282  14.882  16.312  1.00  0.00     0.073 C 
ATOM     13  H1  UNL     1      21.586  15.807  17.056  1.00  0.00     0.169 HD
HETATM   14  C7  UNL     1      22.932  11.522  18.833  1.00  0.00     0.022 C 
HETATM   15  C8  UNL     1      22.296  10.563  17.889  1.00  0.00     0.037 C 
BRANCH  12  16
HETATM   16  C3  UNL     1      23.887  13.677  15.744  1.00  0.00     0.122 C 
BRANCH  16  17
HETATM   17  C2  UNL     1      25.350  13.678  16.099  1.00  0.00     0.127 C 
HETATM   18  C1  UNL     1      25.777  13.227  17.451  1.00  0.00     0.091 C 
HETATM   19  O1  UNL     1      26.173  14.059  15.297  1.00  0.00    -0.298 OA
ENDBRANCH  16  17
ENDBRANCH  12  16
ENDBRANCH   3   6
ENDBRANCH   1   2
BRANCH   1  20
HETATM   20  C12 UNL     1      18.046   8.875  20.607  1.00  0.00     0.241 C 
HETATM   21  O4  UNL     1      17.606   9.458  21.599  1.00  0.00    -0.271 OA
HETATM   22  N4  UNL     1      18.293   7.454  20.610  1.00  0.00    -0.347 N 
ATOM     23  H4  UNL     1      18.639   7.130  19.706  1.00  0.00     0.163 HD
BRANCH  22  24
HETATM   24  C13 UNL     1      18.180   6.399  21.533  1.00  0.00     0.163 C 
BRANCH  24  25
HETATM   25  C14 UNL     1      19.521   5.966  21.986  1.00  0.00     0.038 C 
BRANCH  25  26
HETATM   26  C15 UNL     1      20.717   6.654  21.488  1.00  0.00    -0.012 C 
HETATM   27  C16 UNL     1      21.470   7.377  22.585  1.00  0.00     0.005 C 
HETATM   28  C17 UNL     1      22.149   8.571  21.967  1.00  0.00     0.000 C 
HETATM   29  C18 UNL     1      23.022   8.129  20.839  1.00  0.00     0.000 C 
HETATM   30  C19 UNL     1      23.040   6.660  20.614  1.00  0.00     0.000 C 
HETATM   31  C20 UNL     1      21.635   6.044  20.541  1.00  0.00     0.005 C 
ENDBRANCH  25  26
ENDBRANCH  24  25
BRANCH  24  32
HETATM   32  C21 UNL     1      17.300   5.395  20.895  1.00  0.00     0.216 C 
HETATM   33  O5  UNL     1      17.797   4.310  20.511  1.00  0.00    -0.287 OA
BRANCH  32  34
HETATM   34  C22 UNL     1      15.876   5.589  20.701  1.00  0.00     0.193 C 
HETATM   35  C23 UNL     1      15.041   6.622  21.349  1.00  0.00     0.100 C 
HETATM   36  O6  UNL     1      15.229   4.805  19.897  1.00  0.00    -0.290 OA
ENDBRANCH  32  34
ENDBRANCH  24  32
ENDBRANCH  22  24
ENDBRANCH   1  20
BRANCH   1  37
HETATM   37  C24 UNL     1      17.442   8.629  18.312  1.00  0.00     0.009 C 
HETATM   38  C25 UNL     1      17.942   8.817  16.919  1.00  0.00     0.012 C 
HETATM   39  C26 UNL     1      16.055   9.076  18.595  1.00  0.00     0.012 C 
ENDBRANCH   1  37
TORSDOF 11
ENDMDL
MODEL 3
REMARK VINA RESULT: -8.538246574      2.104      8.799
REMARK  11 active torsions:
REMARK  status: ('A' for Active; 'I' for Inactive)
REMARK    1  A    between atoms: C2_2  and  C3_4 
REMARK    2  A    between atoms: C3_4  and  C4_5 
REMARK       I    between atoms: N1_6  and  C5_8 
REMARK       I    between atoms: C5_8  and  N2_10 
REMARK    3  A    between atoms: C9_14  and  C10_15 
REMARK       I    between atoms: C10_15  and  N3_17 
REMARK    4  A    between atoms: N3_17  and  C11_19 
REMARK    5  A    between atoms: C11_19  and  C12_20 
REMARK    6  A    between atoms: C11_19  and  C24_37 
REMARK       I    between atoms: C12_20  and  N4_22 
REMARK    7  A    between atoms: N4_22  and  C13_24 
REMARK    8  A    between atoms: C13_24  and  C14_25 
REMARK    9  A    between atoms: C13_24  and  C21_32 
REMARK   10  A    between atoms: C14_25  and  C15_26 
REMARK   11  A    between atoms: C21_32  and  C22_34 
ROOT
HETATM    1  C11 UNL     1      20.849   9.931  18.484  1.00  0.00     0.180 C 
ENDROOT
BRANCH   1   2
HETATM    2  N3  UNL     1      20.274   8.747  18.843  1.00  0.00    -0.346 N 
HETATM    3  C10 UNL     1      18.831   8.677  18.910  1.00  0.00     0.241 C 
HETATM    4  O3  UNL     1      18.193   9.707  18.547  1.00  0.00    -0.271 OA
ATOM      5  H3  UNL     1      20.848   7.932  19.059  1.00  0.00     0.163 HD
BRANCH   3   6
HETATM    6  C9  UNL     1      18.021   7.567  19.376  1.00  0.00     0.181 C 
HETATM    7  N2  UNL     1      18.113   7.240  20.771  1.00  0.00    -0.321 N 
HETATM    8  C5  UNL     1      18.790   6.180  21.386  1.00  0.00     0.322 C 
HETATM    9  C6  UNL     1      17.254   8.172  21.459  1.00  0.00     0.129 C 
HETATM   10  N1  UNL     1      18.478   5.934  22.822  1.00  0.00    -0.322 N 
HETATM   11  O2  UNL     1      19.599   5.456  20.847  1.00  0.00    -0.247 OA
HETATM   12  C4  UNL     1      17.331   5.296  23.011  1.00  0.00     0.073 C 
ATOM     13  H1  UNL     1      19.087   6.228  23.585  1.00  0.00     0.169 HD
HETATM   14  C7  UNL     1      16.095   8.471  20.530  1.00  0.00     0.022 C 
HETATM   15  C8  UNL     1      16.519   7.939  19.206  1.00  0.00     0.037 C 
BRANCH  12  16
HETATM   16  C3  UNL     1      16.460   4.861  21.918  1.00  0.00     0.122 C 
BRANCH  16  17
HETATM   17  C2  UNL     1      15.038   5.177  22.300  1.00  0.00     0.127 C 
HETATM   18  C1  UNL     1      14.512   4.716  23.613  1.00  0.00     0.091 C 
HETATM   19  O1  UNL     1      14.322   5.788  21.539  1.00  0.00    -0.298 OA
ENDBRANCH  16  17
ENDBRANCH  12  16
ENDBRANCH   3   6
ENDBRANCH   1   2
BRANCH   1  20
HETATM   20  C12 UNL     1      21.145  10.506  17.164  1.00  0.00     0.241 C 
HETATM   21  O4  UNL     1      21.286   9.932  16.083  1.00  0.00    -0.271 OA
HETATM   22  N4  UNL     1      21.260  11.938  17.282  1.00  0.00    -0.347 N 
ATOM     23  H4  UNL     1      21.099  12.251  18.240  1.00  0.00     0.163 HD
BRANCH  22  24
HETATM   24  C13 UNL     1      21.537  13.017  16.422  1.00  0.00     0.163 C 
BRANCH  24  25
HETATM   25  C14 UNL     1      22.540  13.917  17.032  1.00  0.00     0.038 C 
BRANCH  25  26
HETATM   26  C15 UNL     1      23.970  13.634  16.870  1.00  0.00    -0.012 C 
HETATM   27  C16 UNL     1      24.766  14.865  16.488  1.00  0.00     0.005 C 
HETATM   28  C17 UNL     1      25.940  14.413  15.659  1.00  0.00     0.000 C 
HETATM   29  C18 UNL     1      26.737  13.403  16.417  1.00  0.00     0.000 C 
HETATM   30  C19 UNL     1      26.219  13.108  17.779  1.00  0.00     0.000 C 
HETATM   31  C20 UNL     1      24.715  12.801  17.800  1.00  0.00     0.005 C 
ENDBRANCH  25  26
ENDBRANCH  24  25
BRANCH  24  32
HETATM   32  C21 UNL     1      20.223  13.585  16.048  1.00  0.00     0.216 C 
HETATM   33  O5  UNL     1      19.771  13.359  14.901  1.00  0.00    -0.287 OA
BRANCH  32  34
HETATM   34  C22 UNL     1      19.413  14.384  16.946  1.00  0.00     0.193 C 
HETATM   35  C23 UNL     1      19.317  15.858  16.954  1.00  0.00     0.100 C 
HETATM   36  O6  UNL     1      18.691  13.795  17.847  1.00  0.00    -0.290 OA
ENDBRANCH  32  34
ENDBRANCH  24  32
ENDBRANCH  22  24
ENDBRANCH   1  20
BRANCH   1  37
HETATM   37  C24 UNL     1      22.221  10.103  19.255  1.00  0.00     0.009 C 
HETATM   38  C25 UNL     1      22.818   8.750  19.452  1.00  0.00     0.012 C 
HETATM   39  C26 UNL     1      21.939  10.898  20.477  1.00  0.00     0.012 C 
ENDBRANCH   1  37
TORSDOF 11
ENDMDL
MODEL 4
REMARK VINA RESULT: -8.472930919      2.030      4.596
REMARK  11 active torsions:
REMARK  status: ('A' for Active; 'I' for Inactive)
REMARK    1  A    between atoms: C2_2  and  C3_4 
REMARK    2  A    between atoms: C3_4  and  C4_5 
REMARK       I    between atoms: N1_6  and  C5_8 
REMARK       I    between atoms: C5_8  and  N2_10 
REMARK    3  A    between atoms: C9_14  and  C10_15 
REMARK       I    between atoms: C10_15  and  N3_17 
REMARK    4  A    between atoms: N3_17  and  C11_19 
REMARK    5  A    between atoms: C11_19  and  C12_20 
REMARK    6  A    between atoms: C11_19  and  C24_37 
REMARK       I    between atoms: C12_20  and  N4_22 
REMARK    7  A    between atoms: N4_22  and  C13_24 
REMARK    8  A    between atoms: C13_24  and  C14_25 
REMARK    9  A    between atoms: C13_24  and  C21_32 
REMARK   10  A    between atoms: C14_25  and  C15_26 
REMARK   11  A    between atoms: C21_32  and  C22_34 
ROOT
HETATM    1  C11 UNL     1      21.377   7.885  20.370  1.00  0.00     0.180 C 
ENDROOT
BRANCH   1   2
HETATM    2  N3  UNL     1      21.653   9.110  19.838  1.00  0.00    -0.346 N 
HETATM    3  C10 UNL     1      21.316   9.348  18.452  1.00  0.00     0.241 C 
HETATM    4  O3  UNL     1      20.707   8.420  17.845  1.00  0.00    -0.271 OA
ATOM      5  H3  UNL     1      22.086   9.840  20.403  1.00  0.00     0.163 HD
BRANCH   3   6
HETATM    6  C9  UNL     1      21.622  10.523  17.657  1.00  0.00     0.181 C 
HETATM    7  N2  UNL     1      20.656  11.585  17.674  1.00  0.00    -0.321 N 
HETATM    8  C5  UNL     1      19.722  11.945  16.695  1.00  0.00     0.322 C 
HETATM    9  C6  UNL     1      20.897  12.328  18.887  1.00  0.00     0.129 C 
HETATM   10  N1  UNL     1      19.044  13.259  16.873  1.00  0.00    -0.322 N 
HETATM   11  O2  UNL     1      19.430  11.279  15.726  1.00  0.00    -0.247 OA
HETATM   12  C4  UNL     1      19.795  14.293  16.520  1.00  0.00     0.073 C 
ATOM     13  H1  UNL     1      18.093  13.353  17.231  1.00  0.00     0.169 HD
HETATM   14  C7  UNL     1      22.388  12.266  19.152  1.00  0.00     0.022 C 
HETATM   15  C8  UNL     1      22.895  11.203  18.241  1.00  0.00     0.037 C 
BRANCH  12  16
HETATM   16  C3  UNL     1      21.154  14.161  15.993  1.00  0.00     0.122 C 
BRANCH  16  17
HETATM   17  C2  UNL     1      21.266  15.029  14.769  1.00  0.00     0.127 C 
HETATM   18  C1  UNL     1      20.423  14.733  13.579  1.00  0.00     0.091 C 
HETATM   19  O1  UNL     1      22.049  15.952  14.744  1.00  0.00    -0.298 OA
ENDBRANCH  16  17
ENDBRANCH  12  16
ENDBRANCH   3   6
ENDBRANCH   1   2
BRANCH   1  20
HETATM   20  C12 UNL     1      20.303   7.436  21.267  1.00  0.00     0.241 C 
HETATM   21  O4  UNL     1      20.370   7.110  22.454  1.00  0.00    -0.271 OA
HETATM   22  N4  UNL     1      19.054   7.418  20.547  1.00  0.00    -0.347 N 
ATOM     23  H4  UNL     1      19.171   7.732  19.583  1.00  0.00     0.163 HD
BRANCH  22  24
HETATM   24  C13 UNL     1      17.717   7.082  20.825  1.00  0.00     0.163 C 
BRANCH  24  25
HETATM   25  C14 UNL     1      17.449   5.677  20.445  1.00  0.00     0.038 C 
BRANCH  25  26
HETATM   26  C15 UNL     1      16.912   4.741  21.439  1.00  0.00    -0.012 C 
HETATM   27  C16 UNL     1      17.448   5.003  22.831  1.00  0.00     0.005 C 
HETATM   28  C17 UNL     1      17.482   3.687  23.565  1.00  0.00     0.000 C 
HETATM   29  C18 UNL     1      16.123   3.068  23.557  1.00  0.00     0.000 C 
HETATM   30  C19 UNL     1      15.081   3.880  22.876  1.00  0.00     0.000 C 
HETATM   31  C20 UNL     1      15.509   4.364  21.483  1.00  0.00     0.005 C 
ENDBRANCH  25  26
ENDBRANCH  24  25
BRANCH  24  32
HETATM   32  C21 UNL     1      16.894   8.143  20.205  1.00  0.00     0.216 C 
HETATM   33  O5  UNL     1      15.683   8.231  20.518  1.00  0.00    -0.287 OA
BRANCH  32  34
HETATM   34  C22 UNL     1      17.416   9.108  19.257  1.00  0.00     0.193 C 
HETATM   35  C23 UNL     1      17.310   9.028  17.785  1.00  0.00     0.100 C 
HETATM   36  O6  UNL     1      18.045  10.154  19.693  1.00  0.00    -0.290 OA
ENDBRANCH  32  34
ENDBRANCH  24  32
ENDBRANCH  22  24
ENDBRANCH   1  20
BRANCH   1  37
HETATM   37  C24 UNL     1      22.678   7.310  21.067  1.00  0.00     0.009 C 
HETATM   38  C25 UNL     1      23.688   8.405  21.142  1.00  0.00     0.012 C 
HETATM   39  C26 UNL     1      23.067   6.086  20.323  1.00  0.00     0.012 C 
ENDBRANCH   1  37
TORSDOF 11
ENDMDL
MODEL 5
REMARK VINA RESULT: -8.372234737      1.965      8.628
REMARK  11 active torsions:
REMARK  status: ('A' for Active; 'I' for Inactive)
REMARK    1  A    between atoms: C2_2  and  C3_4 
REMARK    2  A    between atoms: C3_4  and  C4_5 
REMARK       I    between atoms: N1_6  and  C5_8 
REMARK       I    between atoms: C5_8  and  N2_10 
REMARK    3  A    between atoms: C9_14  and  C10_15 
REMARK       I    between atoms: C10_15  and  N3_17 
REMARK    4  A    between atoms: N3_17  and  C11_19 
REMARK    5  A    between atoms: C11_19  and  C12_20 
REMARK    6  A    between atoms: C11_19  and  C24_37 
REMARK       I    between atoms: C12_20  and  N4_22 
REMARK    7  A    between atoms: N4_22  and  C13_24 
REMARK    8  A    between atoms: C13_24  and  C14_25 
REMARK    9  A    between atoms: C13_24  and  C21_32 
REMARK   10  A    between atoms: C14_25  and  C15_26 
REMARK   11  A    between atoms: C21_32  and  C22_34 
ROOT
HETATM    1  C11 UNL     1      21.227   9.828  20.126  1.00  0.00     0.180 C 
ENDROOT
BRANCH   1   2
HETATM    2  N3  UNL     1      20.190   9.004  19.799  1.00  0.00    -0.346 N 
HETATM    3  C10 UNL     1      19.747   8.037  20.779  1.00  0.00     0.241 C 
HETATM    4  O3  UNL     1      20.304   8.079  21.914  1.00  0.00    -0.271 OA
ATOM      5  H3  UNL     1      19.739   9.067  18.887  1.00  0.00     0.163 HD
BRANCH   3   6
HETATM    6  C9  UNL     1      18.751   6.996  20.606  1.00  0.00     0.181 C 
HETATM    7  N2  UNL     1      17.712   6.924  21.594  1.00  0.00    -0.321 N 
HETATM    8  C5  UNL     1      17.559   6.016  22.649  1.00  0.00     0.322 C 
HETATM    9  C6  UNL     1      16.742   7.928  21.232  1.00  0.00     0.129 C 
HETATM   10  N1  UNL     1      16.240   6.015  23.341  1.00  0.00    -0.322 N 
HETATM   11  O2  UNL     1      18.406   5.240  23.036  1.00  0.00    -0.247 OA
HETATM   12  C4  UNL     1      15.291   5.376  22.669  1.00  0.00     0.073 C 
ATOM     13  H1  UNL     1      16.081   6.462  24.244  1.00  0.00     0.169 HD
HETATM   14  C7  UNL     1      16.742   8.015  19.719  1.00  0.00     0.022 C 
HETATM   15  C8  UNL     1      17.961   7.274  19.294  1.00  0.00     0.037 C 
BRANCH  12  16
HETATM   16  C3  UNL     1      15.518   4.722  21.379  1.00  0.00     0.122 C 
BRANCH  16  17
HETATM   17  C2  UNL     1      14.667   5.416  20.349  1.00  0.00     0.127 C 
HETATM   18  C1  UNL     1      13.588   6.340  20.790  1.00  0.00     0.091 C 
HETATM   19  O1  UNL     1      14.848   5.212  19.169  1.00  0.00    -0.298 OA
ENDBRANCH  16  17
ENDBRANCH  12  16
ENDBRANCH   3   6
ENDBRANCH   1   2
BRANCH   1  20
HETATM   20  C12 UNL     1      21.437  11.264  19.893  1.00  0.00     0.241 C 
HETATM   21  O4  UNL     1      21.284  12.206  20.672  1.00  0.00    -0.271 OA
HETATM   22  N4  UNL     1      21.883  11.467  18.536  1.00  0.00    -0.347 N 
ATOM     23  H4  UNL     1      21.974  10.584  18.034  1.00  0.00     0.163 HD
BRANCH  22  24
HETATM   24  C13 UNL     1      22.226  12.564  17.726  1.00  0.00     0.163 C 
BRANCH  24  25
HETATM   25  C14 UNL     1      23.227  13.414  18.407  1.00  0.00     0.038 C 
BRANCH  25  26
HETATM   26  C15 UNL     1      24.474  13.768  17.719  1.00  0.00    -0.012 C 
HETATM   27  C16 UNL     1      25.369  12.568  17.487  1.00  0.00     0.005 C 
HETATM   28  C17 UNL     1      26.797  13.050  17.499  1.00  0.00     0.000 C 
HETATM   29  C18 UNL     1      26.974  14.130  16.482  1.00  0.00     0.000 C 
HETATM   30  C19 UNL     1      25.750  14.448  15.702  1.00  0.00     0.000 C 
HETATM   31  C20 UNL     1      24.513  14.674  16.585  1.00  0.00     0.005 C 
ENDBRANCH  25  26
ENDBRANCH  24  25
BRANCH  24  32
HETATM   32  C21 UNL     1      20.946  13.183  17.317  1.00  0.00     0.216 C 
HETATM   33  O5  UNL     1      20.931  14.398  17.011  1.00  0.00    -0.287 OA
BRANCH  32  34
HETATM   34  C22 UNL     1      19.697  12.452  17.234  1.00  0.00     0.193 C 
HETATM   35  C23 UNL     1      18.406  12.864  17.824  1.00  0.00     0.100 C 
HETATM   36  O6  UNL     1      19.658  11.324  16.596  1.00  0.00    -0.290 OA
ENDBRANCH  32  34
ENDBRANCH  24  32
ENDBRANCH  22  24
ENDBRANCH   1  20
BRANCH   1  37
HETATM   37  C24 UNL     1      22.585   9.189  19.618  1.00  0.00     0.009 C 
HETATM   38  C25 UNL     1      22.265   7.915  18.913  1.00  0.00     0.012 C 
HETATM   39  C26 UNL     1      23.491   9.100  20.791  1.00  0.00     0.012 C 
ENDBRANCH   1  37
TORSDOF 11
ENDMDL
