MODEL 1
REMARK VINA RESULT: -6.514067951      0.000      0.000
REMARK  1 active torsions:
REMARK  status: ('A' for Active; 'I' for Inactive)
REMARK       I    between atoms: N1_1  and  C1_5 
REMARK       I    between atoms: C1_5  and  N2_6 
REMARK       I    between atoms: C1_5  and  N3_10 
REMARK    1  A    between atoms: N3_10  and  C2_12 
ROOT
HETATM    1  C2  UNL     1      39.022  15.985  31.518  1.00  0.00     0.188 A 
HETATM    2  N4  UNL     1      40.337  16.198  31.218  1.00  0.00    -0.277 N 
ATOM      3  H4  UNL     1      40.731  15.743  30.396  1.00  0.00     0.189 HD
HETATM    4  N5  UNL     1      41.117  16.967  31.948  1.00  0.00    -0.250 N 
ATOM      5  H5  UNL     1      42.091  17.086  31.672  1.00  0.00     0.192 HD
HETATM    6  C3  UNL     1      40.669  17.601  33.046  1.00  0.00     0.341 A 
HETATM    7  O1  UNL     1      41.436  18.334  33.730  1.00  0.00    -0.245 OA
HETATM    8  N6  UNL     1      39.386  17.414  33.367  1.00  0.00    -0.271 N 
ATOM      9  H6  UNL     1      39.018  17.882  34.194  1.00  0.00     0.174 HD
HETATM   10  C4  UNL     1      38.544  16.622  32.634  1.00  0.00     0.294 A 
HETATM   11  O2  UNL     1      37.343  16.504  33.013  1.00  0.00    -0.264 OA
ENDROOT
BRANCH   1  12
HETATM   12  N3  UNL     1      38.317  15.238  30.785  1.00  0.00    -0.322 N 
HETATM   13  C1  UNL     1      37.460  15.485  29.703  1.00  0.00     0.481 C 
HETATM   14  N1  UNL     1      38.112  15.791  28.445  1.00  0.00    -0.033 N 
HETATM   15  N2  UNL     1      36.598  14.315  29.419  1.00  0.00    -0.033 N 
ATOM     16  H13 UNL     1      38.611  15.001  28.036  1.00  0.00     0.278 HD
ATOM     17  H12 UNL     1      37.464  15.935  27.670  1.00  0.00     0.278 HD
ATOM     18  H11 UNL     1      38.706  16.597  28.640  1.00  0.00     0.278 HD
ATOM     19  H23 UNL     1      35.950  14.459  28.644  1.00  0.00     0.278 HD
ATOM     20  H22 UNL     1      37.097  13.525  29.010  1.00  0.00     0.278 HD
ATOM     21  H21 UNL     1      36.139  14.099  30.304  1.00  0.00     0.278 HD
ATOM     22  H3  UNL     1      38.384  14.250  31.031  1.00  0.00     0.165 HD
ENDBRANCH   1  12
TORSDOF 1
ENDMDL
MODEL 2
REMARK VINA RESULT: -6.077605694      1.908      4.373
REMARK  1 active torsions:
REMARK  status: ('A' for Active; 'I' for Inactive)
REMARK       I    between atoms: N1_1  and  C1_5 
REMARK       I    between atoms: C1_5  and  N2_6 
REMARK       I    between atoms: C1_5  and  N3_10 
REMARK    1  A    between atoms: N3_10  and  C2_12 
ROOT
HETATM    1  C2  UNL     1      39.209  16.394  32.172  1.00  0.00     0.188 A 
HETATM    2  N4  UNL     1      40.260  16.098  31.351  1.00  0.00    -0.277 N 
ATOM      3  H4  UNL     1      41.207  16.171  31.723  1.00  0.00     0.189 HD
HETATM    4  N5  UNL     1      40.101  15.723  30.100  1.00  0.00    -0.250 N 
ATOM      5  H5  UNL     1      40.926  15.516  29.538  1.00  0.00     0.192 HD
HETATM    6  C3  UNL     1      38.885  15.604  29.540  1.00  0.00     0.341 A 
HETATM    7  O1  UNL     1      38.758  15.242  28.338  1.00  0.00    -0.245 OA
HETATM    8  N6  UNL     1      37.835  15.885  30.316  1.00  0.00    -0.271 N 
ATOM      9  H6  UNL     1      36.900  15.803  29.918  1.00  0.00     0.174 HD
HETATM   10  C4  UNL     1      37.959  16.278  31.621  1.00  0.00     0.294 A 
HETATM   11  O2  UNL     1      36.909  16.524  32.281  1.00  0.00    -0.264 OA
ENDROOT
BRANCH   1  12
HETATM   12  N3  UNL     1      39.416  16.750  33.365  1.00  0.00    -0.322 N 
HETATM   13  C1  UNL     1      39.634  17.995  33.972  1.00  0.00     0.481 C 
HETATM   14  N1  UNL     1      38.460  18.833  34.122  1.00  0.00    -0.033 N 
HETATM   15  N2  UNL     1      40.177  17.841  35.341  1.00  0.00    -0.033 N 
ATOM     16  H13 UNL     1      37.783  18.477  34.796  1.00  0.00     0.278 HD
ATOM     17  H12 UNL     1      38.643  19.718  34.594  1.00  0.00     0.278 HD
ATOM     18  H11 UNL     1      38.085  18.939  33.179  1.00  0.00     0.278 HD
ATOM     19  H23 UNL     1      40.361  18.726  35.813  1.00  0.00     0.278 HD
ATOM     20  H22 UNL     1      39.500  17.485  36.015  1.00  0.00     0.278 HD
ATOM     21  H21 UNL     1      41.003  17.251  35.236  1.00  0.00     0.278 HD
ATOM     22  H3  UNL     1      39.427  15.971  34.024  1.00  0.00     0.165 HD
ENDBRANCH   1  12
TORSDOF 1
ENDMDL
MODEL 3
REMARK VINA RESULT: -5.870314747      1.074      1.079
REMARK  1 active torsions:
REMARK  status: ('A' for Active; 'I' for Inactive)
REMARK       I    between atoms: N1_1  and  C1_5 
REMARK       I    between atoms: C1_5  and  N2_6 
REMARK       I    between atoms: C1_5  and  N3_10 
REMARK    1  A    between atoms: N3_10  and  C2_12 
ROOT
HETATM    1  C2  UNL     1      38.614  16.327  32.006  1.00  0.00     0.188 A 
HETATM    2  N4  UNL     1      39.911  16.748  31.930  1.00  0.00    -0.277 N 
ATOM      3  H4  UNL     1      40.486  16.423  31.154  1.00  0.00     0.189 HD
HETATM    4  N5  UNL     1      40.449  17.555  32.819  1.00  0.00    -0.250 N 
ATOM      5  H5  UNL     1      41.424  17.833  32.708  1.00  0.00     0.192 HD
HETATM    6  C3  UNL     1      39.754  18.025  33.870  1.00  0.00     0.341 A 
HETATM    7  O1  UNL     1      40.292  18.798  34.710  1.00  0.00    -0.245 OA
HETATM    8  N6  UNL     1      38.482  17.633  33.973  1.00  0.00    -0.271 N 
ATOM      9  H6  UNL     1      37.930  17.973  34.759  1.00  0.00     0.174 HD
HETATM   10  C4  UNL     1      37.886  16.794  33.070  1.00  0.00     0.294 A 
HETATM   11  O2  UNL     1      36.675  16.476  33.247  1.00  0.00    -0.264 OA
ENDROOT
BRANCH   1  12
HETATM   12  N3  UNL     1      38.145  15.551  31.127  1.00  0.00    -0.322 N 
HETATM   13  C1  UNL     1      38.227  15.525  29.728  1.00  0.00     0.481 C 
HETATM   14  N1  UNL     1      39.494  15.077  29.182  1.00  0.00    -0.033 N 
HETATM   15  N2  UNL     1      37.212  14.619  29.144  1.00  0.00    -0.033 N 
ATOM     16  H13 UNL     1      39.685  14.088  29.341  1.00  0.00     0.278 HD
ATOM     17  H12 UNL     1      39.513  15.039  28.163  1.00  0.00     0.278 HD
ATOM     18  H11 UNL     1      40.194  15.701  29.584  1.00  0.00     0.278 HD
ATOM     19  H23 UNL     1      37.231  14.581  28.125  1.00  0.00     0.278 HD
ATOM     20  H22 UNL     1      37.402  13.630  29.303  1.00  0.00     0.278 HD
ATOM     21  H21 UNL     1      36.321  14.934  29.528  1.00  0.00     0.278 HD
ATOM     22  H3  UNL     1      37.594  14.786  31.514  1.00  0.00     0.165 HD
ENDBRANCH   1  12
TORSDOF 1
ENDMDL
MODEL 4
REMARK VINA RESULT: -5.803007075      1.567      1.990
REMARK  1 active torsions:
REMARK  status: ('A' for Active; 'I' for Inactive)
REMARK       I    between atoms: N1_1  and  C1_5 
REMARK       I    between atoms: C1_5  and  N2_6 
REMARK       I    between atoms: C1_5  and  N3_10 
REMARK    1  A    between atoms: N3_10  and  C2_12 
ROOT
HETATM    1  C2  UNL     1      38.302  16.019  31.780  1.00  0.00     0.188 A 
HETATM    2  N4  UNL     1      37.543  16.528  32.795  1.00  0.00    -0.277 N 
ATOM      3  H4  UNL     1      36.572  16.228  32.878  1.00  0.00     0.189 HD
HETATM    4  N5  UNL     1      38.014  17.389  33.672  1.00  0.00    -0.250 N 
ATOM      5  H5  UNL     1      37.397  17.733  34.407  1.00  0.00     0.192 HD
HETATM    6  C3  UNL     1      39.283  17.829  33.628  1.00  0.00     0.341 A 
HETATM    7  O1  UNL     1      39.712  18.655  34.481  1.00  0.00    -0.245 OA
HETATM    8  N6  UNL     1      40.052  17.350  32.648  1.00  0.00    -0.271 N 
ATOM      9  H6  UNL     1      41.020  17.666  32.590  1.00  0.00     0.174 HD
HETATM   10  C4  UNL     1      39.600  16.454  31.717  1.00  0.00     0.294 A 
HETATM   11  O2  UNL     1      40.400  16.054  30.823  1.00  0.00    -0.264 OA
ENDROOT
BRANCH   1  12
HETATM   12  N3  UNL     1      37.801  15.196  30.965  1.00  0.00    -0.322 N 
HETATM   13  C1  UNL     1      37.197  15.336  29.707  1.00  0.00     0.481 C 
HETATM   14  N1  UNL     1      38.100  15.596  28.603  1.00  0.00    -0.033 N 
HETATM   15  N2  UNL     1      36.458  14.111  29.324  1.00  0.00    -0.033 N 
ATOM     16  H13 UNL     1      38.703  14.808  28.369  1.00  0.00     0.278 HD
ATOM     17  H12 UNL     1      37.635  15.662  27.698  1.00  0.00     0.278 HD
ATOM     18  H11 UNL     1      38.609  16.440  28.867  1.00  0.00     0.278 HD
ATOM     19  H23 UNL     1      35.993  14.177  28.418  1.00  0.00     0.278 HD
ATOM     20  H22 UNL     1      37.060  13.323  29.090  1.00  0.00     0.278 HD
ATOM     21  H21 UNL     1      35.823  13.928  30.101  1.00  0.00     0.278 HD
ATOM     22  H3  UNL     1      37.845  14.229  31.287  1.00  0.00     0.165 HD
ENDBRANCH   1  12
TORSDOF 1
ENDMDL
MODEL 5
REMARK VINA RESULT: -5.732088931      1.995      4.610
REMARK  1 active torsions:
REMARK  status: ('A' for Active; 'I' for Inactive)
REMARK       I    between atoms: N1_1  and  C1_5 
REMARK       I    between atoms: C1_5  and  N2_6 
REMARK       I    between atoms: C1_5  and  N3_10 
REMARK    1  A    between atoms: N3_10  and  C2_12 
ROOT
HETATM    1  C2  UNL     1      39.931  17.042  32.617  1.00  0.00     0.188 A 
HETATM    2  N4  UNL     1      40.891  16.995  31.647  1.00  0.00    -0.277 N 
ATOM      3  H4  UNL     1      41.821  17.354  31.860  1.00  0.00     0.189 HD
HETATM    4  N5  UNL     1      40.665  16.503  30.447  1.00  0.00    -0.250 N 
ATOM      5  H5  UNL     1      41.423  16.496  29.765  1.00  0.00     0.192 HD
HETATM    6  C3  UNL     1      39.466  16.010  30.093  1.00  0.00     0.341 A 
HETATM    7  O1  UNL     1      39.273  15.543  28.936  1.00  0.00    -0.245 OA
HETATM    8  N6  UNL     1      38.505  16.041  31.019  1.00  0.00    -0.271 N 
ATOM      9  H6  UNL     1      37.585  15.673  30.779  1.00  0.00     0.174 HD
HETATM   10  C4  UNL     1      38.700  16.544  32.277  1.00  0.00     0.294 A 
HETATM   11  O2  UNL     1      37.732  16.533  33.091  1.00  0.00    -0.264 OA
ENDROOT
BRANCH   1  12
HETATM   12  N3  UNL     1      40.200  17.525  33.753  1.00  0.00    -0.322 N 
HETATM   13  C1  UNL     1      41.105  18.502  34.191  1.00  0.00     0.481 C 
HETATM   14  N1  UNL     1      40.736  19.874  33.901  1.00  0.00    -0.033 N 
HETATM   15  N2  UNL     1      41.285  18.451  35.660  1.00  0.00    -0.033 N 
ATOM     16  H13 UNL     1      39.927  20.203  34.427  1.00  0.00     0.278 HD
ATOM     17  H12 UNL     1      41.398  20.562  34.259  1.00  0.00     0.278 HD
ATOM     18  H11 UNL     1      40.612  19.909  32.889  1.00  0.00     0.278 HD
ATOM     19  H23 UNL     1      41.947  19.139  36.018  1.00  0.00     0.278 HD
ATOM     20  H22 UNL     1      40.476  18.779  36.186  1.00  0.00     0.278 HD
ATOM     21  H21 UNL     1      41.544  17.485  35.864  1.00  0.00     0.278 HD
ATOM     22  H3  UNL     1      39.644  17.121  34.506  1.00  0.00     0.165 HD
ENDBRANCH   1  12
TORSDOF 1
ENDMDL
