MODEL 1
REMARK VINA RESULT: -6.119131795      0.000      0.000
REMARK  0 active torsions:
REMARK  status: ('A' for Active; 'I' for Inactive)
REMARK       I    between atoms: C1_2  and  N2_4 
ROOT
HETATM    1  N1  UNL     1      38.311  16.426  28.132  1.00  0.00    -0.040 NA
HETATM    2  C1  UNL     1      39.186  15.631  28.893  1.00  0.00     0.334 C 
HETATM    3  O1  UNL     1      39.068  14.357  28.935  1.00  0.00    -0.251 OA
HETATM    4  N2  UNL     1      40.226  16.194  29.642  1.00  0.00    -0.291 N 
ATOM      5  H2  UNL     1      41.130  16.339  29.193  1.00  0.00     0.172 HD
HETATM    6  C2  UNL     1      40.085  16.535  30.871  1.00  0.00     0.193 A 
HETATM    7  N3  UNL     1      41.159  17.078  31.522  1.00  0.00    -0.277 N 
ATOM      8  H3  UNL     1      42.042  17.202  31.027  1.00  0.00     0.189 HD
HETATM    9  N4  UNL     1      41.060  17.442  32.778  1.00  0.00    -0.250 N 
ATOM     10  H4  UNL     1      41.882  17.844  33.230  1.00  0.00     0.192 HD
HETATM   11  C3  UNL     1      39.935  17.314  33.504  1.00  0.00     0.341 A 
HETATM   12  O2  UNL     1      39.864  17.673  34.718  1.00  0.00    -0.245 OA
HETATM   13  N5  UNL     1      38.848  16.785  32.913  1.00  0.00    -0.271 N 
ATOM     14  H5  UNL     1      37.978  16.674  33.433  1.00  0.00     0.174 HD
HETATM   15  C4  UNL     1      38.930  16.400  31.606  1.00  0.00     0.295 A 
HETATM   16  O3  UNL     1      37.921  15.911  31.064  1.00  0.00    -0.264 OA
ENDROOT
TORSDOF 0
ENDMDL
MODEL 2
REMARK VINA RESULT: -6.088798238      1.348      4.369
REMARK  0 active torsions:
REMARK  status: ('A' for Active; 'I' for Inactive)
REMARK       I    between atoms: C1_2  and  N2_4 
ROOT
HETATM    1  N1  UNL     1      39.199  16.723  35.103  1.00  0.00    -0.040 NA
HETATM    2  C1  UNL     1      39.250  17.602  34.006  1.00  0.00     0.334 C 
HETATM    3  O1  UNL     1      38.533  18.661  33.962  1.00  0.00    -0.251 OA
HETATM    4  N2  UNL     1      40.088  17.360  32.911  1.00  0.00    -0.291 N 
ATOM      5  H2  UNL     1      41.043  17.716  32.936  1.00  0.00     0.172 HD
HETATM    6  C2  UNL     1      39.700  16.708  31.877  1.00  0.00     0.193 A 
HETATM    7  N3  UNL     1      40.590  16.521  30.855  1.00  0.00    -0.277 N 
ATOM      8  H3  UNL     1      41.535  16.899  30.930  1.00  0.00     0.189 HD
HETATM    9  N4  UNL     1      40.237  15.859  29.778  1.00  0.00    -0.250 N 
ATOM     10  H4  UNL     1      40.928  15.740  29.037  1.00  0.00     0.192 HD
HETATM   11  C3  UNL     1      39.013  15.331  29.598  1.00  0.00     0.341 A 
HETATM   12  O2  UNL     1      38.695  14.695  28.548  1.00  0.00    -0.245 OA
HETATM   13  N5  UNL     1      38.099  15.485  30.572  1.00  0.00    -0.271 N 
ATOM     14  H5  UNL     1      37.161  15.096  30.469  1.00  0.00     0.174 HD
HETATM   15  C4  UNL     1      38.446  16.170  31.701  1.00  0.00     0.295 A 
HETATM   16  O3  UNL     1      37.595  16.310  32.599  1.00  0.00    -0.264 OA
ENDROOT
TORSDOF 0
ENDMDL
MODEL 3
REMARK VINA RESULT: -5.890193320      1.560      1.780
REMARK  0 active torsions:
REMARK  status: ('A' for Active; 'I' for Inactive)
REMARK       I    between atoms: C1_2  and  N2_4 
ROOT
HETATM    1  N1  UNL     1      39.512  17.107  28.199  1.00  0.00    -0.040 NA
HETATM    2  C1  UNL     1      39.614  16.017  29.081  1.00  0.00     0.334 C 
HETATM    3  O1  UNL     1      39.350  14.823  28.705  1.00  0.00    -0.251 OA
HETATM    4  N2  UNL     1      40.009  16.186  30.414  1.00  0.00    -0.291 N 
ATOM      5  H2  UNL     1      41.004  16.154  30.638  1.00  0.00     0.172 HD
HETATM    6  C2  UNL     1      39.168  16.380  31.363  1.00  0.00     0.193 A 
HETATM    7  N3  UNL     1      39.648  16.535  32.635  1.00  0.00    -0.277 N 
ATOM      8  H3  UNL     1      40.653  16.494  32.806  1.00  0.00     0.189 HD
HETATM    9  N4  UNL     1      38.825  16.736  33.636  1.00  0.00    -0.250 N 
ATOM     10  H4  UNL     1      39.220  16.848  34.570  1.00  0.00     0.192 HD
HETATM   11  C3  UNL     1      37.488  16.803  33.499  1.00  0.00     0.341 A 
HETATM   12  O2  UNL     1      36.713  16.998  34.482  1.00  0.00    -0.245 OA
HETATM   13  N5  UNL     1      36.963  16.657  32.270  1.00  0.00    -0.271 N 
ATOM     14  H5  UNL     1      35.954  16.703  32.129  1.00  0.00     0.174 HD
HETATM   15  C4  UNL     1      37.803  16.447  31.213  1.00  0.00     0.295 A 
HETATM   16  O3  UNL     1      37.310  16.312  30.077  1.00  0.00    -0.264 OA
ENDROOT
TORSDOF 0
ENDMDL
MODEL 4
REMARK VINA RESULT: -5.452053901      1.631      4.684
REMARK  0 active torsions:
REMARK  status: ('A' for Active; 'I' for Inactive)
REMARK       I    between atoms: C1_2  and  N2_4 
ROOT
HETATM    1  N1  UNL     1      39.449  18.811  34.101  1.00  0.00    -0.040 NA
HETATM    2  C1  UNL     1      38.948  17.497  34.086  1.00  0.00     0.334 C 
HETATM    3  O1  UNL     1      39.378  16.606  34.897  1.00  0.00    -0.251 OA
HETATM    4  N2  UNL     1      37.955  17.101  33.182  1.00  0.00    -0.291 N 
ATOM      5  H2  UNL     1      36.976  17.216  33.447  1.00  0.00     0.172 HD
HETATM    6  C2  UNL     1      38.228  16.598  32.034  1.00  0.00     0.193 A 
HETATM    7  N3  UNL     1      37.190  16.241  31.217  1.00  0.00    -0.277 N 
ATOM      8  H3  UNL     1      36.229  16.377  31.530  1.00  0.00     0.189 HD
HETATM    9  N4  UNL     1      37.423  15.723  30.034  1.00  0.00    -0.250 N 
ATOM     10  H4  UNL     1      36.624  15.469  29.453  1.00  0.00     0.192 HD
HETATM   11  C3  UNL     1      38.658  15.509  29.545  1.00  0.00     0.341 A 
HETATM   12  O2  UNL     1      38.857  15.008  28.398  1.00  0.00    -0.245 OA
HETATM   13  N5  UNL     1      39.715  15.843  30.307  1.00  0.00    -0.271 N 
ATOM     14  H5  UNL     1      40.665  15.695  29.967  1.00  0.00     0.174 HD
HETATM   15  C4  UNL     1      39.494  16.383  31.542  1.00  0.00     0.295 A 
HETATM   16  O3  UNL     1      40.477  16.690  32.243  1.00  0.00    -0.264 OA
ENDROOT
TORSDOF 0
ENDMDL
MODEL 5
REMARK VINA RESULT: -5.389539318      1.651      2.276
REMARK  0 active torsions:
REMARK  status: ('A' for Active; 'I' for Inactive)
REMARK       I    between atoms: C1_2  and  N2_4 
ROOT
HETATM    1  N1  UNL     1      38.722  14.426  28.517  1.00  0.00    -0.040 NA
HETATM    2  C1  UNL     1      38.317  15.741  28.809  1.00  0.00     0.334 C 
HETATM    3  O1  UNL     1      38.683  16.730  28.085  1.00  0.00    -0.251 OA
HETATM    4  N2  UNL     1      37.497  16.030  29.905  1.00  0.00    -0.291 N 
ATOM      5  H2  UNL     1      36.485  16.000  29.782  1.00  0.00     0.172 HD
HETATM    6  C2  UNL     1      37.969  16.330  31.060  1.00  0.00     0.193 A 
HETATM    7  N3  UNL     1      37.088  16.597  32.073  1.00  0.00    -0.277 N 
ATOM      8  H3  UNL     1      36.084  16.554  31.896  1.00  0.00     0.189 HD
HETATM    9  N4  UNL     1      37.526  16.907  33.270  1.00  0.00    -0.250 N 
ATOM     10  H4  UNL     1      36.840  17.099  33.999  1.00  0.00     0.192 HD
HETATM   11  C3  UNL     1      38.831  16.987  33.587  1.00  0.00     0.341 A 
HETATM   12  O2  UNL     1      39.230  17.289  34.752  1.00  0.00    -0.245 OA
HETATM   13  N5  UNL     1      39.740  16.734  32.629  1.00  0.00    -0.271 N 
ATOM     14  H5  UNL     1      40.738  16.784  32.835  1.00  0.00     0.174 HD
HETATM   15  C4  UNL     1      39.305  16.409  31.376  1.00  0.00     0.295 A 
HETATM   16  O3  UNL     1      40.151  16.176  30.492  1.00  0.00    -0.264 OA
ENDROOT
TORSDOF 0
ENDMDL
