MODEL 1
REMARK VINA RESULT: -5.254214379      0.000      0.000
REMARK  4 active torsions:
REMARK  status: ('A' for Active; 'I' for Inactive)
REMARK    1  A    between atoms: C2_2  and  N1_4 
REMARK    2  A    between atoms: N1_4  and  C4_6 
REMARK    3  A    between atoms: C4_6  and  N2_8 
REMARK    4  A    between atoms: N3_10  and  C5_12 
ROOT
HETATM    1  N2  UNL     1      17.348   2.423  15.813  1.00  0.00    -0.274 N 
ATOM      2  H2  UNL     1      17.974   2.783  16.535  1.00  0.00     0.189 HD
HETATM    3  N3  UNL     1      17.157   3.046  14.710  1.00  0.00    -0.269 N 
ATOM      4  H3  UNL     1      16.532   2.687  13.989  1.00  0.00     0.190 HD
ENDROOT
BRANCH   1   5
HETATM    5  C4  UNL     1      16.639   1.204  15.975  1.00  0.00     0.186 C 
HETATM    6  S1  UNL     1      16.739   0.117  14.768  1.00  0.00    -0.040 SA
BRANCH   5   7
HETATM    7  N1  UNL     1      15.894   0.993  17.150  1.00  0.00    -0.362 N 
ATOM      8  H1  UNL     1      16.108   0.208  17.766  1.00  0.00     0.162 HD
BRANCH   7   9
HETATM    9  C2  UNL     1      14.819   1.910  17.472  1.00  0.00     0.076 C 
HETATM   10  C1  UNL     1      14.805   2.130  18.970  1.00  0.00     0.032 C 
HETATM   11  C3  UNL     1      13.524   1.276  16.995  1.00  0.00     0.032 C 
ENDBRANCH   7   9
ENDBRANCH   5   7
ENDBRANCH   1   5
BRANCH   3  12
HETATM   12  C5  UNL     1      17.865   4.264  14.550  1.00  0.00     0.190 C 
HETATM   13  N4  UNL     1      17.375   5.437  14.661  1.00  0.00    -0.360 N 
HETATM   14  C6  UNL     1      18.396   6.458  14.430  1.00  0.00     0.142 C 
ATOM     15  H4  UNL     1      16.399   5.636  14.882  1.00  0.00     0.162 HD
HETATM   16  C7  UNL     1      19.462   5.667  13.682  1.00  0.00     0.142 C 
HETATM   17  N5  UNL     1      19.239   4.346  14.247  1.00  0.00    -0.360 N 
ATOM     18  H5  UNL     1      19.941   3.620  14.395  1.00  0.00     0.162 HD
ENDBRANCH   3  12
TORSDOF 4
ENDMDL
MODEL 2
REMARK VINA RESULT: -5.233043334      1.946      5.650
REMARK  4 active torsions:
REMARK  status: ('A' for Active; 'I' for Inactive)
REMARK    1  A    between atoms: C2_2  and  N1_4 
REMARK    2  A    between atoms: N1_4  and  C4_6 
REMARK    3  A    between atoms: C4_6  and  N2_8 
REMARK    4  A    between atoms: N3_10  and  C5_12 
ROOT
HETATM    1  N2  UNL     1      16.151   2.457  13.718  1.00  0.00    -0.274 N 
ATOM      2  H2  UNL     1      15.249   2.916  13.849  1.00  0.00     0.189 HD
HETATM    3  N3  UNL     1      16.632   1.647  14.587  1.00  0.00    -0.269 N 
ATOM      4  H3  UNL     1      17.533   1.188  14.457  1.00  0.00     0.190 HD
ENDROOT
BRANCH   1   5
HETATM    5  C4  UNL     1      16.945   2.680  12.563  1.00  0.00     0.186 C 
HETATM    6  S1  UNL     1      16.388   2.096  11.150  1.00  0.00    -0.040 SA
BRANCH   5   7
HETATM    7  N1  UNL     1      18.159   3.381  12.689  1.00  0.00    -0.362 N 
ATOM      8  H1  UNL     1      19.035   2.960  12.379  1.00  0.00     0.162 HD
BRANCH   7   9
HETATM    9  C2  UNL     1      18.143   4.710  13.265  1.00  0.00     0.076 C 
HETATM   10  C1  UNL     1      18.706   5.683  12.250  1.00  0.00     0.032 C 
HETATM   11  C3  UNL     1      18.995   4.671  14.522  1.00  0.00     0.032 C 
ENDBRANCH   7   9
ENDBRANCH   5   7
ENDBRANCH   1   5
BRANCH   3  12
HETATM   12  C5  UNL     1      15.837   1.426  15.741  1.00  0.00     0.190 C 
HETATM   13  N4  UNL     1      15.968   0.465  16.569  1.00  0.00    -0.360 N 
HETATM   14  C6  UNL     1      14.975   0.552  17.639  1.00  0.00     0.142 C 
ATOM     15  H4  UNL     1      16.673  -0.269  16.494  1.00  0.00     0.162 HD
HETATM   16  C7  UNL     1      13.928   1.468  17.015  1.00  0.00     0.142 C 
HETATM   17  N5  UNL     1      14.775   2.262  16.142  1.00  0.00    -0.360 N 
ATOM     18  H5  UNL     1      14.630   3.235  15.871  1.00  0.00     0.162 HD
ENDBRANCH   3  12
TORSDOF 4
ENDMDL
MODEL 3
REMARK VINA RESULT: -5.230559500      0.885      1.377
REMARK  4 active torsions:
REMARK  status: ('A' for Active; 'I' for Inactive)
REMARK    1  A    between atoms: C2_2  and  N1_4 
REMARK    2  A    between atoms: N1_4  and  C4_6 
REMARK    3  A    between atoms: C4_6  and  N2_8 
REMARK    4  A    between atoms: N3_10  and  C5_12 
ROOT
HETATM    1  N2  UNL     1      17.112   2.912  14.782  1.00  0.00    -0.274 N 
ATOM      2  H2  UNL     1      16.930   2.970  13.780  1.00  0.00     0.189 HD
HETATM    3  N3  UNL     1      17.961   3.676  15.363  1.00  0.00    -0.269 N 
ATOM      4  H3  UNL     1      18.143   3.619  16.364  1.00  0.00     0.190 HD
ENDROOT
BRANCH   1   5
HETATM    5  C4  UNL     1      16.438   1.979  15.614  1.00  0.00     0.186 C 
HETATM    6  S1  UNL     1      16.689   0.399  15.319  1.00  0.00    -0.040 SA
BRANCH   5   7
HETATM    7  N1  UNL     1      15.596   2.455  16.637  1.00  0.00    -0.362 N 
ATOM      8  H1  UNL     1      15.459   3.456  16.772  1.00  0.00     0.162 HD
BRANCH   7   9
HETATM    9  C2  UNL     1      14.927   1.498  17.495  1.00  0.00     0.076 C 
HETATM   10  C1  UNL     1      13.535   1.253  16.951  1.00  0.00     0.032 C 
HETATM   11  C3  UNL     1      14.878   2.095  18.890  1.00  0.00     0.032 C 
ENDBRANCH   7   9
ENDBRANCH   5   7
ENDBRANCH   1   5
BRANCH   3  12
HETATM   12  C5  UNL     1      18.634   4.607  14.530  1.00  0.00     0.190 C 
HETATM   13  N4  UNL     1      18.390   5.857  14.454  1.00  0.00    -0.360 N 
HETATM   14  C6  UNL     1      19.278   6.508  13.491  1.00  0.00     0.142 C 
ATOM     15  H4  UNL     1      17.672   6.339  14.994  1.00  0.00     0.162 HD
HETATM   16  C7  UNL     1      19.755   5.324  12.659  1.00  0.00     0.142 C 
HETATM   17  N5  UNL     1      19.689   4.271  13.659  1.00  0.00    -0.360 N 
ATOM     18  H5  UNL     1      20.290   3.448  13.718  1.00  0.00     0.162 HD
ENDBRANCH   3  12
TORSDOF 4
ENDMDL
MODEL 4
REMARK VINA RESULT: -5.208958623      3.150      4.151
REMARK  4 active torsions:
REMARK  status: ('A' for Active; 'I' for Inactive)
REMARK    1  A    between atoms: C2_2  and  N1_4 
REMARK    2  A    between atoms: N1_4  and  C4_6 
REMARK    3  A    between atoms: C4_6  and  N2_8 
REMARK    4  A    between atoms: N3_10  and  C5_12 
ROOT
HETATM    1  N2  UNL     1      16.524   1.394  14.627  1.00  0.00    -0.274 N 
ATOM      2  H2  UNL     1      16.499   0.385  14.774  1.00  0.00     0.189 HD
HETATM    3  N3  UNL     1      16.541   1.908  13.453  1.00  0.00    -0.269 N 
ATOM      4  H3  UNL     1      16.566   2.917  13.306  1.00  0.00     0.190 HD
ENDROOT
BRANCH   1   5
HETATM    5  C4  UNL     1      16.542   2.310  15.712  1.00  0.00     0.186 C 
HETATM    6  S1  UNL     1      17.116   3.804  15.417  1.00  0.00    -0.040 SA
BRANCH   5   7
HETATM    7  N1  UNL     1      16.074   1.893  16.972  1.00  0.00    -0.362 N 
ATOM      8  H1  UNL     1      16.661   1.322  17.580  1.00  0.00     0.162 HD
BRANCH   7   9
HETATM    9  C2  UNL     1      14.743   2.285  17.389  1.00  0.00     0.076 C 
HETATM   10  C1  UNL     1      14.737   2.439  18.896  1.00  0.00     0.032 C 
HETATM   11  C3  UNL     1      13.786   1.194  16.942  1.00  0.00     0.032 C 
ENDBRANCH   7   9
ENDBRANCH   5   7
ENDBRANCH   1   5
BRANCH   3  12
HETATM   12  C5  UNL     1      16.523   0.992  12.371  1.00  0.00     0.190 C 
HETATM   13  N4  UNL     1      15.966   1.180  11.239  1.00  0.00    -0.360 N 
HETATM   14  C6  UNL     1      16.146   0.021  10.365  1.00  0.00     0.142 C 
ATOM     15  H4  UNL     1      15.461   2.027  10.977  1.00  0.00     0.162 HD
HETATM   16  C7  UNL     1      16.491  -1.073  11.368  1.00  0.00     0.142 C 
HETATM   17  N5  UNL     1      17.137  -0.276  12.398  1.00  0.00    -0.360 N 
ATOM     18  H5  UNL     1      17.888  -0.577  13.020  1.00  0.00     0.162 HD
ENDBRANCH   3  12
TORSDOF 4
ENDMDL
MODEL 5
REMARK VINA RESULT: -5.006212808      2.702      5.796
REMARK  4 active torsions:
REMARK  status: ('A' for Active; 'I' for Inactive)
REMARK    1  A    between atoms: C2_2  and  N1_4 
REMARK    2  A    between atoms: N1_4  and  C4_6 
REMARK    3  A    between atoms: C4_6  and  N2_8 
REMARK    4  A    between atoms: N3_10  and  C5_12 
ROOT
HETATM    1  N2  UNL     1      16.841   3.432  14.721  1.00  0.00    -0.274 N 
ATOM      2  H2  UNL     1      16.321   4.079  15.313  1.00  0.00     0.189 HD
HETATM    3  N3  UNL     1      16.752   2.161  14.864  1.00  0.00    -0.269 N 
ATOM      4  H3  UNL     1      17.272   1.514  14.273  1.00  0.00     0.190 HD
ENDROOT
BRANCH   1   5
HETATM    5  C4  UNL     1      17.708   3.887  13.692  1.00  0.00     0.186 C 
HETATM    6  S1  UNL     1      18.538   5.259  13.968  1.00  0.00    -0.040 SA
BRANCH   5   7
HETATM    7  N1  UNL     1      17.807   3.145  12.500  1.00  0.00    -0.362 N 
ATOM      8  H1  UNL     1      18.586   2.502  12.354  1.00  0.00     0.162 HD
BRANCH   7   9
HETATM    9  C2  UNL     1      16.786   3.309  11.485  1.00  0.00     0.076 C 
HETATM   10  C1  UNL     1      16.261   1.941  11.104  1.00  0.00     0.032 C 
HETATM   11  C3  UNL     1      17.433   4.003  10.299  1.00  0.00     0.032 C 
ENDBRANCH   7   9
ENDBRANCH   5   7
ENDBRANCH   1   5
BRANCH   3  12
HETATM   12  C5  UNL     1      15.886   1.709  15.892  1.00  0.00     0.190 C 
HETATM   13  N4  UNL     1      16.011   0.627  16.555  1.00  0.00    -0.360 N 
HETATM   14  C6  UNL     1      14.936   0.483  17.536  1.00  0.00     0.142 C 
ATOM     15  H4  UNL     1      16.762  -0.050  16.420  1.00  0.00     0.162 HD
HETATM   16  C7  UNL     1      13.886   1.442  16.988  1.00  0.00     0.142 C 
HETATM   17  N5  UNL     1      14.748   2.414  16.335  1.00  0.00    -0.360 N 
ATOM     18  H5  UNL     1      14.565   3.411  16.219  1.00  0.00     0.162 HD
ENDBRANCH   3  12
TORSDOF 4
ENDMDL
