MODEL 1
REMARK VINA RESULT: -7.326151448      0.000      0.000
REMARK  6 active torsions:
REMARK  status: ('A' for Active; 'I' for Inactive)
REMARK    1  A    between atoms: N1_2  and  C4_5 
REMARK    2  A    between atoms: C4_5  and  C5_6 
REMARK    3  A    between atoms: C9_10  and  C10_11 
REMARK    4  A    between atoms: N3_14  and  C11_15 
REMARK    5  A    between atoms: C11_15  and  C12_16 
REMARK    6  A    between atoms: C12_16  and  N4_17 
ROOT
HETATM    1  C5  UNL     1      15.296 -14.008  20.447  1.00  0.00     0.024 C 
HETATM    2  C6  UNL     1      14.479 -13.000  21.123  1.00  0.00     0.016 C 
HETATM    3  C7  UNL     1      15.529 -11.972  21.579  1.00  0.00     0.037 C 
HETATM    4  C8  UNL     1      16.864 -12.502  21.100  1.00  0.00     0.236 C 
HETATM    5  C9  UNL     1      16.400 -13.163  19.788  1.00  0.00     0.120 C 
HETATM    6  N3  UNL     1      17.231 -13.694  21.778  1.00  0.00     0.096 N 
HETATM    7  C20 UNL     1      16.166 -14.619  21.575  1.00  0.00     0.285 C 
ENDROOT
BRANCH   6   8
HETATM    8  C11 UNL     1      17.765 -13.573  23.077  1.00  0.00     0.301 C 
BRANCH   8   9
HETATM    9  C12 UNL     1      18.782 -14.663  23.262  1.00  0.00     0.279 C 
BRANCH   9  10
HETATM   10  N4  UNL     1      19.945 -14.315  23.994  1.00  0.00     0.015 N 
HETATM   11  C13 UNL     1      20.439 -15.308  24.898  1.00  0.00     0.250 C 
HETATM   12  C14 UNL     1      21.740 -14.884  25.497  1.00  0.00     0.035 C 
HETATM   13  C15 UNL     1      21.884 -13.419  25.733  1.00  0.00     0.007 C 
HETATM   14  C16 UNL     1      20.527 -12.774  25.842  1.00  0.00     0.035 C 
HETATM   15  C18 UNL     1      22.652 -12.710  24.622  1.00  0.00     0.129 C 
HETATM   16  C17 UNL     1      19.625 -13.064  24.698  1.00  0.00     0.250 C 
HETATM   17  N5  UNL     1      22.240 -13.357  23.379  1.00  0.00    -0.336 N 
HETATM   18  C19 UNL     1      21.000 -14.005  23.083  1.00  0.00     0.415 C 
ATOM     19  H5  UNL     1      22.925 -13.346  22.625  1.00  0.00     0.164 HD
HETATM   20  O2  UNL     1      20.882 -14.311  21.873  1.00  0.00    -0.239 OA
ENDBRANCH   9  10
ENDBRANCH   8   9
ENDBRANCH   6   8
BRANCH   5  21
HETATM   21  C10 UNL     1      15.978 -12.236  18.788  1.00  0.00     0.238 C 
HETATM   22  N2  UNL     1      16.681 -11.009  18.629  1.00  0.00    -0.062 NA
HETATM   23  O1  UNL     1      15.006 -12.389  17.991  1.00  0.00    -0.276 OA
ENDBRANCH   5  21
BRANCH   1  24
HETATM   24  C4  UNL     1      14.760 -14.998  19.539  1.00  0.00     0.248 C 
BRANCH  24  25
HETATM   25  N1  UNL     1      13.509 -15.595  19.640  1.00  0.00    -0.078 N 
HETATM   26  C1  UNL     1      12.396 -14.705  19.248  1.00  0.00     0.271 C 
HETATM   27  C2  UNL     1      13.125 -16.225  20.872  1.00  0.00     0.271 C 
HETATM   28  C3  UNL     1      13.432 -16.674  18.632  1.00  0.00     0.271 C 
ENDBRANCH  24  25
ENDBRANCH   1  24
TORSDOF 6
ENDMDL
MODEL 2
REMARK VINA RESULT: -7.010183185      1.222      1.686
REMARK  6 active torsions:
REMARK  status: ('A' for Active; 'I' for Inactive)
REMARK    1  A    between atoms: N1_2  and  C4_5 
REMARK    2  A    between atoms: C4_5  and  C5_6 
REMARK    3  A    between atoms: C9_10  and  C10_11 
REMARK    4  A    between atoms: N3_14  and  C11_15 
REMARK    5  A    between atoms: C11_15  and  C12_16 
REMARK    6  A    between atoms: C12_16  and  N4_17 
ROOT
HETATM    1  C5  UNL     1      15.783 -13.138  20.091  1.00  0.00     0.024 C 
HETATM    2  C6  UNL     1      15.181 -11.950  20.694  1.00  0.00     0.016 C 
HETATM    3  C7  UNL     1      16.322 -10.921  20.614  1.00  0.00     0.037 C 
HETATM    4  C8  UNL     1      17.481 -11.637  19.952  1.00  0.00     0.236 C 
HETATM    5  C9  UNL     1      16.683 -12.542  18.994  1.00  0.00     0.120 C 
HETATM    6  N3  UNL     1      18.003 -12.668  20.776  1.00  0.00     0.096 N 
HETATM    7  C20 UNL     1      16.914 -13.538  21.073  1.00  0.00     0.285 C 
ENDROOT
BRANCH   6   8
HETATM    8  C11 UNL     1      18.860 -12.295  21.831  1.00  0.00     0.301 C 
BRANCH   8   9
HETATM    9  C12 UNL     1      19.835 -13.416  22.053  1.00  0.00     0.279 C 
BRANCH   9  10
HETATM   10  N4  UNL     1      20.345 -13.548  23.370  1.00  0.00     0.015 N 
HETATM   11  C13 UNL     1      19.611 -12.877  24.397  1.00  0.00     0.250 C 
HETATM   12  C14 UNL     1      20.158 -13.208  25.748  1.00  0.00     0.035 C 
HETATM   13  C15 UNL     1      21.632 -13.420  25.801  1.00  0.00     0.007 C 
HETATM   14  C16 UNL     1      22.301 -12.723  24.644  1.00  0.00     0.035 C 
HETATM   15  C18 UNL     1      22.024 -14.894  25.750  1.00  0.00     0.129 C 
HETATM   16  C17 UNL     1      21.739 -13.080  23.316  1.00  0.00     0.250 C 
HETATM   17  N5  UNL     1      21.086 -15.522  24.824  1.00  0.00    -0.336 N 
HETATM   18  C19 UNL     1      20.399 -14.932  23.718  1.00  0.00     0.415 C 
ATOM     19  H5  UNL     1      20.895 -16.510  24.988  1.00  0.00     0.164 HD
HETATM   20  O2  UNL     1      19.794 -15.772  23.010  1.00  0.00    -0.239 OA
ENDBRANCH   9  10
ENDBRANCH   8   9
ENDBRANCH   6   8
BRANCH   5  21
HETATM   21  C10 UNL     1      16.020 -11.838  17.944  1.00  0.00     0.238 C 
HETATM   22  N2  UNL     1      16.689 -10.765  17.291  1.00  0.00    -0.062 NA
HETATM   23  O1  UNL     1      14.854 -12.070  17.509  1.00  0.00    -0.276 OA
ENDBRANCH   5  21
BRANCH   1  24
HETATM   24  C4  UNL     1      15.019 -14.268  19.608  1.00  0.00     0.248 C 
BRANCH  24  25
HETATM   25  N1  UNL     1      13.772 -14.660  20.077  1.00  0.00    -0.078 N 
HETATM   26  C1  UNL     1      12.685 -13.724  19.720  1.00  0.00     0.271 C 
HETATM   27  C2  UNL     1      13.609 -14.979  21.468  1.00  0.00     0.271 C 
HETATM   28  C3  UNL     1      13.382 -15.896  19.365  1.00  0.00     0.271 C 
ENDBRANCH  24  25
ENDBRANCH   1  24
TORSDOF 6
ENDMDL
MODEL 3
REMARK VINA RESULT: -6.982084138      1.875      2.990
REMARK  6 active torsions:
REMARK  status: ('A' for Active; 'I' for Inactive)
REMARK    1  A    between atoms: N1_2  and  C4_5 
REMARK    2  A    between atoms: C4_5  and  C5_6 
REMARK    3  A    between atoms: C9_10  and  C10_11 
REMARK    4  A    between atoms: N3_14  and  C11_15 
REMARK    5  A    between atoms: C11_15  and  C12_16 
REMARK    6  A    between atoms: C12_16  and  N4_17 
ROOT
HETATM    1  C5  UNL     1      15.826 -12.118  19.426  1.00  0.00     0.024 C 
HETATM    2  C6  UNL     1      14.657 -12.997  19.423  1.00  0.00     0.016 C 
HETATM    3  C7  UNL     1      14.364 -13.166  20.924  1.00  0.00     0.037 C 
HETATM    4  C8  UNL     1      15.411 -12.344  21.646  1.00  0.00     0.236 C 
HETATM    5  C9  UNL     1      15.554 -11.197  20.628  1.00  0.00     0.120 C 
HETATM    6  N3  UNL     1      16.711 -12.888  21.486  1.00  0.00     0.096 N 
HETATM    7  C20 UNL     1      16.945 -12.968  20.082  1.00  0.00     0.285 C 
ENDROOT
BRANCH   6   8
HETATM    8  C11 UNL     1      17.062 -13.998  22.280  1.00  0.00     0.301 C 
BRANCH   8   9
HETATM    9  C12 UNL     1      18.415 -14.476  21.834  1.00  0.00     0.279 C 
BRANCH   9  10
HETATM   10  N4  UNL     1      19.463 -14.354  22.781  1.00  0.00     0.015 N 
HETATM   11  C13 UNL     1      20.008 -15.581  23.275  1.00  0.00     0.250 C 
HETATM   12  C14 UNL     1      21.194 -15.325  24.148  1.00  0.00     0.035 C 
HETATM   13  C15 UNL     1      21.129 -14.074  24.956  1.00  0.00     0.007 C 
HETATM   14  C16 UNL     1      19.696 -13.648  25.142  1.00  0.00     0.035 C 
HETATM   15  C18 UNL     1      21.884 -12.912  24.317  1.00  0.00     0.129 C 
HETATM   16  C17 UNL     1      18.930 -13.527  23.875  1.00  0.00     0.250 C 
HETATM   17  N5  UNL     1      21.656 -13.035  22.879  1.00  0.00    -0.336 N 
HETATM   18  C19 UNL     1      20.537 -13.612  22.202  1.00  0.00     0.415 C 
ATOM     19  H5  UNL     1      22.391 -12.660  22.281  1.00  0.00     0.164 HD
HETATM   20  O2  UNL     1      20.555 -13.412  20.965  1.00  0.00    -0.239 OA
ENDBRANCH   9  10
ENDBRANCH   8   9
ENDBRANCH   6   8
BRANCH   5  21
HETATM   21  C10 UNL     1      14.406 -10.355  20.534  1.00  0.00     0.238 C 
HETATM   22  N2  UNL     1      13.881  -9.753  21.712  1.00  0.00    -0.062 NA
HETATM   23  O1  UNL     1      13.774 -10.069  19.475  1.00  0.00    -0.276 OA
ENDBRANCH   5  21
BRANCH   1  24
HETATM   24  C4  UNL     1      16.276 -11.377  18.268  1.00  0.00     0.248 C 
BRANCH  24  25
HETATM   25  N1  UNL     1      15.988 -11.690  16.946  1.00  0.00    -0.078 N 
HETATM   26  C1  UNL     1      14.849 -10.927  16.392  1.00  0.00     0.271 C 
HETATM   27  C2  UNL     1      15.793 -13.063  16.572  1.00  0.00     0.271 C 
HETATM   28  C3  UNL     1      17.120 -11.235  16.109  1.00  0.00     0.271 C 
ENDBRANCH  24  25
ENDBRANCH   1  24
TORSDOF 6
ENDMDL
MODEL 4
REMARK VINA RESULT: -6.840036221      1.800      3.195
REMARK  6 active torsions:
REMARK  status: ('A' for Active; 'I' for Inactive)
REMARK    1  A    between atoms: N1_2  and  C4_5 
REMARK    2  A    between atoms: C4_5  and  C5_6 
REMARK    3  A    between atoms: C9_10  and  C10_11 
REMARK    4  A    between atoms: N3_14  and  C11_15 
REMARK    5  A    between atoms: C11_15  and  C12_16 
REMARK    6  A    between atoms: C12_16  and  N4_17 
ROOT
HETATM    1  C5  UNL     1      14.836 -12.502  20.949  1.00  0.00     0.024 C 
HETATM    2  C6  UNL     1      15.355 -12.208  19.613  1.00  0.00     0.016 C 
HETATM    3  C7  UNL     1      15.962 -13.556  19.188  1.00  0.00     0.037 C 
HETATM    4  C8  UNL     1      15.716 -14.505  20.343  1.00  0.00     0.236 C 
HETATM    5  C9  UNL     1      14.355 -13.957  20.813  1.00  0.00     0.120 C 
HETATM    6  N3  UNL     1      16.462 -14.139  21.493  1.00  0.00     0.096 N 
HETATM    7  C20 UNL     1      16.100 -12.794  21.798  1.00  0.00     0.285 C 
ENDROOT
BRANCH   6   8
HETATM    8  C11 UNL     1      17.829 -14.481  21.527  1.00  0.00     0.301 C 
BRANCH   8   9
HETATM    9  C12 UNL     1      18.573 -13.348  22.176  1.00  0.00     0.279 C 
BRANCH   9  10
HETATM   10  N4  UNL     1      19.650 -13.713  23.024  1.00  0.00     0.015 N 
HETATM   11  C13 UNL     1      19.834 -15.116  23.234  1.00  0.00     0.250 C 
HETATM   12  C14 UNL     1      21.077 -15.380  24.020  1.00  0.00     0.035 C 
HETATM   13  C15 UNL     1      21.412 -14.347  25.042  1.00  0.00     0.007 C 
HETATM   14  C16 UNL     1      20.174 -13.587  25.440  1.00  0.00     0.035 C 
HETATM   15  C18 UNL     1      22.446 -13.337  24.553  1.00  0.00     0.129 C 
HETATM   16  C17 UNL     1      19.426 -13.008  24.295  1.00  0.00     0.250 C 
HETATM   17  N5  UNL     1      22.133 -13.102  23.145  1.00  0.00    -0.336 N 
HETATM   18  C19 UNL     1      20.868 -13.198  22.487  1.00  0.00     0.415 C 
ATOM     19  H5  UNL     1      22.920 -12.834  22.556  1.00  0.00     0.164 HD
HETATM   20  O2  UNL     1      20.892 -12.767  21.310  1.00  0.00    -0.239 OA
ENDBRANCH   9  10
ENDBRANCH   8   9
ENDBRANCH   6   8
BRANCH   5  21
HETATM   21  C10 UNL     1      13.286 -14.189  19.896  1.00  0.00     0.238 C 
HETATM   22  N2  UNL     1      13.298 -15.361  19.089  1.00  0.00    -0.062 NA
HETATM   23  O1  UNL     1      12.285 -13.436  19.711  1.00  0.00    -0.276 OA
ENDBRANCH   5  21
BRANCH   1  24
HETATM   24  C4  UNL     1      13.867 -11.675  21.634  1.00  0.00     0.248 C 
BRANCH  24  25
HETATM   25  N1  UNL     1      13.306 -10.506  21.135  1.00  0.00    -0.078 N 
HETATM   26  C1  UNL     1      11.956 -10.224  21.668  1.00  0.00     0.271 C 
HETATM   27  C2  UNL     1      13.246 -10.301  19.715  1.00  0.00     0.271 C 
HETATM   28  C3  UNL     1      14.098  -9.364  21.641  1.00  0.00     0.271 C 
ENDBRANCH  24  25
ENDBRANCH   1  24
TORSDOF 6
ENDMDL
MODEL 5
REMARK VINA RESULT: -6.782802638      1.346      1.770
REMARK  6 active torsions:
REMARK  status: ('A' for Active; 'I' for Inactive)
REMARK    1  A    between atoms: N1_2  and  C4_5 
REMARK    2  A    between atoms: C4_5  and  C5_6 
REMARK    3  A    between atoms: C9_10  and  C10_11 
REMARK    4  A    between atoms: N3_14  and  C11_15 
REMARK    5  A    between atoms: C11_15  and  C12_16 
REMARK    6  A    between atoms: C12_16  and  N4_17 
ROOT
HETATM    1  C5  UNL     1      15.669 -13.862  20.493  1.00  0.00     0.024 C 
HETATM    2  C6  UNL     1      15.178 -12.979  21.551  1.00  0.00     0.016 C 
HETATM    3  C7  UNL     1      15.975 -11.687  21.301  1.00  0.00     0.037 C 
HETATM    4  C8  UNL     1      16.850 -11.964  20.097  1.00  0.00     0.236 C 
HETATM    5  C9  UNL     1      15.896 -12.892  19.320  1.00  0.00     0.120 C 
HETATM    6  N3  UNL     1      17.847 -12.933  20.383  1.00  0.00     0.096 N 
HETATM    7  C20 UNL     1      17.161 -14.094  20.845  1.00  0.00     0.285 C 
ENDROOT
BRANCH   6   8
HETATM    8  C11 UNL     1      18.988 -12.512  21.093  1.00  0.00     0.301 C 
BRANCH   8   9
HETATM    9  C12 UNL     1      19.737 -13.737  21.535  1.00  0.00     0.279 C 
BRANCH   9  10
HETATM   10  N4  UNL     1      20.078 -13.799  22.910  1.00  0.00     0.015 N 
HETATM   11  C13 UNL     1      19.071 -13.359  23.826  1.00  0.00     0.250 C 
HETATM   12  C14 UNL     1      19.490 -13.607  25.239  1.00  0.00     0.035 C 
HETATM   13  C15 UNL     1      20.951 -13.470  25.501  1.00  0.00     0.007 C 
HETATM   14  C16 UNL     1      21.587 -12.591  24.456  1.00  0.00     0.035 C 
HETATM   15  C18 UNL     1      21.685 -14.808  25.498  1.00  0.00     0.129 C 
HETATM   16  C17 UNL     1      21.314 -13.016  23.059  1.00  0.00     0.250 C 
HETATM   17  N5  UNL     1      21.058 -15.601  24.443  1.00  0.00    -0.336 N 
HETATM   18  C19 UNL     1      20.410 -15.145  23.254  1.00  0.00     0.415 C 
ATOM     19  H5  UNL     1      21.087 -16.612  24.572  1.00  0.00     0.164 HD
HETATM   20  O2  UNL     1      20.125 -16.074  22.462  1.00  0.00    -0.239 OA
ENDBRANCH   9  10
ENDBRANCH   8   9
ENDBRANCH   6   8
BRANCH   5  21
HETATM   21  C10 UNL     1      14.738 -12.236  18.806  1.00  0.00     0.238 C 
HETATM   22  N2  UNL     1      14.889 -11.048  18.038  1.00  0.00    -0.062 NA
HETATM   23  O1  UNL     1      13.538 -12.609  18.962  1.00  0.00    -0.276 OA
ENDBRANCH   5  21
BRANCH   1  24
HETATM   24  C4  UNL     1      14.987 -15.067  20.072  1.00  0.00     0.248 C 
BRANCH  24  25
HETATM   25  N1  UNL     1      14.185 -15.864  20.878  1.00  0.00    -0.078 N 
HETATM   26  C1  UNL     1      12.913 -15.219  21.269  1.00  0.00     0.271 C 
HETATM   27  C2  UNL     1      14.738 -16.450  22.067  1.00  0.00     0.271 C 
HETATM   28  C3  UNL     1      13.728 -17.018  20.074  1.00  0.00     0.271 C 
ENDBRANCH  24  25
ENDBRANCH   1  24
TORSDOF 6
ENDMDL
