MODEL 1
REMARK VINA RESULT: -7.291410490      0.000      0.000
REMARK  3 active torsions:
REMARK  status: ('A' for Active; 'I' for Inactive)
REMARK    1  A    between atoms: N1_2  and  C3_4 
REMARK    2  A    between atoms: N4_11  and  N5_12 
REMARK       I    between atoms: N5_12  and  C5_14 
REMARK    3  A    between atoms: C5_14  and  C6_16 
ROOT
HETATM    1  C3  UNL     1      -2.907  85.857  26.104  1.00  0.00     0.718 A 
HETATM    2  N2  UNL     1      -4.311  85.842  26.110  1.00  0.00    -0.128 N 
ATOM      3  H2  UNL     1      -4.919  86.652  26.230  1.00  0.00     0.205 HD
HETATM    4  N3  UNL     1      -4.701  84.613  25.937  1.00  0.00    -0.260 N 
ATOM      5  H3  UNL     1      -5.667  84.286  25.897  1.00  0.00     0.190 HD
HETATM    6  C4  UNL     1      -3.609  83.857  25.822  1.00  0.00     0.230 A 
HETATM    7  S1  UNL     1      -3.642  82.259  25.593  1.00  0.00    -0.037 SA
HETATM    8  N4  UNL     1      -2.471  84.635  25.926  1.00  0.00    -0.054 N 
ENDROOT
BRANCH   8   9
HETATM    9  N5  UNL     1      -1.217  84.077  25.833  1.00  0.00    -0.246 N 
HETATM   10  C5  UNL     1      -0.348  83.463  26.714  1.00  0.00     0.241 C 
HETATM   11  O1  UNL     1      -0.516  83.254  27.900  1.00  0.00    -0.271 OA
ATOM     12  H5  UNL     1      -0.838  84.130  24.888  1.00  0.00     0.191 HD
BRANCH  10  13
HETATM   13  C6  UNL     1       0.989  82.975  26.166  1.00  0.00     0.079 C 
HETATM   14  C7  UNL     1       1.614  84.161  25.464  1.00  0.00     0.014 C 
HETATM   15  C8  UNL     1       3.104  84.054  25.364  1.00  0.00     0.001 C 
HETATM   16  C9  UNL     1       3.595  82.667  25.064  1.00  0.00     0.000 C 
HETATM   17  C10 UNL     1       4.054  82.036  26.369  1.00  0.00     0.000 C 
HETATM   18  C11 UNL     1       2.817  81.488  27.042  1.00  0.00     0.001 C 
HETATM   19  C12 UNL     1       1.851  82.616  27.332  1.00  0.00     0.014 C 
ENDBRANCH  10  13
ENDBRANCH   8   9
BRANCH   1  20
HETATM   20  N1  UNL     1      -2.267  87.095  26.279  1.00  0.00    -0.223 N 
HETATM   21  C1  UNL     1      -2.485  87.855  27.481  1.00  0.00     0.168 C 
HETATM   22  C2  UNL     1      -1.451  87.641  25.228  1.00  0.00     0.168 C 
ENDBRANCH   1  20
TORSDOF 3
ENDMDL
MODEL 2
REMARK VINA RESULT: -7.151951482      3.067      4.721
REMARK  3 active torsions:
REMARK  status: ('A' for Active; 'I' for Inactive)
REMARK    1  A    between atoms: N1_2  and  C3_4 
REMARK    2  A    between atoms: N4_11  and  N5_12 
REMARK       I    between atoms: N5_12  and  C5_14 
REMARK    3  A    between atoms: C5_14  and  C6_16 
ROOT
HETATM    1  C3  UNL     1      -1.715  84.055  26.474  1.00  0.00     0.718 A 
HETATM    2  N2  UNL     1      -1.735  82.930  27.316  1.00  0.00    -0.128 N 
ATOM      3  H2  UNL     1      -2.548  82.569  27.813  1.00  0.00     0.205 HD
HETATM    4  N3  UNL     1      -0.534  82.431  27.348  1.00  0.00    -0.260 N 
ATOM      5  H3  UNL     1      -0.236  81.610  27.875  1.00  0.00     0.190 HD
HETATM    6  C4  UNL     1       0.237  83.188  26.568  1.00  0.00     0.230 A 
HETATM    7  S1  UNL     1       1.811  82.917  26.325  1.00  0.00    -0.037 SA
HETATM    8  N4  UNL     1      -0.500  84.217  26.012  1.00  0.00    -0.054 N 
ENDROOT
BRANCH   8   9
HETATM    9  N5  UNL     1       0.079  85.130  25.163  1.00  0.00    -0.246 N 
HETATM   10  C5  UNL     1      -0.237  86.402  24.725  1.00  0.00     0.241 C 
HETATM   11  O1  UNL     1      -1.206  87.072  25.026  1.00  0.00    -0.271 OA
ATOM     12  H5  UNL     1       0.952  84.787  24.760  1.00  0.00     0.191 HD
BRANCH  10  13
HETATM   13  C6  UNL     1       0.723  87.074  23.749  1.00  0.00     0.079 C 
HETATM   14  C7  UNL     1       0.179  88.467  23.516  1.00  0.00     0.014 C 
HETATM   15  C8  UNL     1       1.232  89.430  23.065  1.00  0.00     0.001 C 
HETATM   16  C9  UNL     1       2.218  88.844  22.096  1.00  0.00     0.000 C 
HETATM   17  C10 UNL     1       3.476  88.474  22.866  1.00  0.00     0.000 C 
HETATM   18  C11 UNL     1       3.222  87.117  23.480  1.00  0.00     0.001 C 
HETATM   19  C12 UNL     1       2.047  87.198  24.430  1.00  0.00     0.014 C 
ENDBRANCH  10  13
ENDBRANCH   8   9
BRANCH   1  20
HETATM   20  N1  UNL     1      -2.918  84.757  26.295  1.00  0.00    -0.223 N 
HETATM   21  C1  UNL     1      -3.389  85.654  27.317  1.00  0.00     0.168 C 
HETATM   22  C2  UNL     1      -3.721  84.525  25.124  1.00  0.00     0.168 C 
ENDBRANCH   1  20
TORSDOF 3
ENDMDL
MODEL 3
REMARK VINA RESULT: -6.950383136      3.350      4.793
REMARK  3 active torsions:
REMARK  status: ('A' for Active; 'I' for Inactive)
REMARK    1  A    between atoms: N1_2  and  C3_4 
REMARK    2  A    between atoms: N4_11  and  N5_12 
REMARK       I    between atoms: N5_12  and  C5_14 
REMARK    3  A    between atoms: C5_14  and  C6_16 
ROOT
HETATM    1  C3  UNL     1      -3.004  85.429  26.370  1.00  0.00     0.718 A 
HETATM    2  N2  UNL     1      -3.935  85.665  27.396  1.00  0.00    -0.128 N 
ATOM      3  H2  UNL     1      -4.581  84.981  27.787  1.00  0.00     0.205 HD
HETATM    4  N3  UNL     1      -3.827  86.910  27.759  1.00  0.00    -0.260 N 
ATOM      5  H3  UNL     1      -4.372  87.376  28.484  1.00  0.00     0.190 HD
HETATM    6  C4  UNL     1      -2.873  87.465  27.011  1.00  0.00     0.230 A 
HETATM    7  S1  UNL     1      -2.417  89.009  27.138  1.00  0.00    -0.037 SA
HETATM    8  N4  UNL     1      -2.349  86.537  26.131  1.00  0.00    -0.054 N 
ENDROOT
BRANCH   8   9
HETATM    9  N5  UNL     1      -1.343  86.876  25.255  1.00  0.00    -0.246 N 
HETATM   10  C5  UNL     1      -0.195  86.262  24.794  1.00  0.00     0.241 C 
HETATM   11  O1  UNL     1       0.231  85.162  25.092  1.00  0.00    -0.271 OA
ATOM     12  H5  UNL     1      -1.477  87.802  24.850  1.00  0.00     0.191 HD
BRANCH  10  13
HETATM   13  C6  UNL     1       0.663  87.025  23.790  1.00  0.00     0.079 C 
HETATM   14  C7  UNL     1       0.033  88.395  23.654  1.00  0.00     0.014 C 
HETATM   15  C8  UNL     1       1.004  89.432  23.180  1.00  0.00     0.001 C 
HETATM   16  C9  UNL     1       1.953  88.940  22.126  1.00  0.00     0.000 C 
HETATM   17  C10 UNL     1       3.276  88.609  22.799  1.00  0.00     0.000 C 
HETATM   18  C11 UNL     1       3.134  87.216  23.367  1.00  0.00     0.001 C 
HETATM   19  C12 UNL     1       2.020  87.194  24.392  1.00  0.00     0.014 C 
ENDBRANCH  10  13
ENDBRANCH   8   9
BRANCH   1  20
HETATM   20  N1  UNL     1      -2.950  84.137  25.823  1.00  0.00    -0.223 N 
HETATM   21  C1  UNL     1      -3.730  83.815  24.658  1.00  0.00     0.168 C 
HETATM   22  C2  UNL     1      -2.174  83.112  26.467  1.00  0.00     0.168 C 
ENDBRANCH   1  20
TORSDOF 3
ENDMDL
MODEL 4
REMARK VINA RESULT: -6.942969852      3.167      5.165
REMARK  3 active torsions:
REMARK  status: ('A' for Active; 'I' for Inactive)
REMARK    1  A    between atoms: N1_2  and  C3_4 
REMARK    2  A    between atoms: N4_11  and  N5_12 
REMARK       I    between atoms: N5_12  and  C5_14 
REMARK    3  A    between atoms: C5_14  and  C6_16 
ROOT
HETATM    1  C3  UNL     1      -1.197  83.648  26.299  1.00  0.00     0.718 A 
HETATM    2  N2  UNL     1      -1.087  82.351  26.827  1.00  0.00    -0.128 N 
ATOM      3  H2  UNL     1      -1.855  81.781  27.181  1.00  0.00     0.205 HD
HETATM    4  N3  UNL     1       0.166  82.003  26.784  1.00  0.00    -0.260 N 
ATOM      5  H3  UNL     1       0.556  81.114  27.098  1.00  0.00     0.190 HD
HETATM    6  C4  UNL     1       0.846  83.019  26.254  1.00  0.00     0.230 A 
HETATM    7  S1  UNL     1       2.444  83.005  26.019  1.00  0.00    -0.037 SA
HETATM    8  N4  UNL     1      -0.006  84.063  25.946  1.00  0.00    -0.054 N 
ENDROOT
BRANCH   8   9
HETATM    9  N5  UNL     1       0.466  85.225  25.381  1.00  0.00    -0.246 N 
HETATM   10  C5  UNL     1      -0.099  86.287  24.702  1.00  0.00     0.241 C 
HETATM   11  O1  UNL     1      -1.271  86.450  24.421  1.00  0.00    -0.271 OA
ATOM     12  H5  UNL     1       1.476  85.326  25.489  1.00  0.00     0.191 HD
BRANCH  10  13
HETATM   13  C6  UNL     1       0.829  87.405  24.238  1.00  0.00     0.079 C 
HETATM   14  C7  UNL     1       2.201  86.783  24.097  1.00  0.00     0.014 C 
HETATM   15  C8  UNL     1       3.082  87.536  23.149  1.00  0.00     0.001 C 
HETATM   16  C9  UNL     1       2.947  89.028  23.249  1.00  0.00     0.000 C 
HETATM   17  C10 UNL     1       2.040  89.497  22.122  1.00  0.00     0.000 C 
HETATM   18  C11 UNL     1       0.620  89.303  22.603  1.00  0.00     0.001 C 
HETATM   19  C12 UNL     1       0.371  87.837  22.883  1.00  0.00     0.014 C 
ENDBRANCH  10  13
ENDBRANCH   8   9
BRANCH   1  20
HETATM   20  N1  UNL     1      -2.475  84.227  26.251  1.00  0.00    -0.223 N 
HETATM   21  C1  UNL     1      -2.880  85.166  27.264  1.00  0.00     0.168 C 
HETATM   22  C2  UNL     1      -3.410  83.828  25.234  1.00  0.00     0.168 C 
ENDBRANCH   1  20
TORSDOF 3
ENDMDL
MODEL 5
REMARK VINA RESULT: -6.935410242      3.159      4.568
REMARK  3 active torsions:
REMARK  status: ('A' for Active; 'I' for Inactive)
REMARK    1  A    between atoms: N1_2  and  C3_4 
REMARK    2  A    between atoms: N4_11  and  N5_12 
REMARK       I    between atoms: N5_12  and  C5_14 
REMARK    3  A    between atoms: C5_14  and  C6_16 
ROOT
HETATM    1  C3  UNL     1      -3.672  83.375  25.595  1.00  0.00     0.718 A 
HETATM    2  N2  UNL     1      -4.019  82.467  26.609  1.00  0.00    -0.128 N 
ATOM      3  H2  UNL     1      -4.893  81.946  26.674  1.00  0.00     0.205 HD
HETATM    4  N3  UNL     1      -3.029  82.407  27.452  1.00  0.00    -0.260 N 
ATOM      5  H3  UNL     1      -2.988  81.833  28.294  1.00  0.00     0.190 HD
HETATM    6  C4  UNL     1      -2.079  83.233  27.014  1.00  0.00     0.230 A 
HETATM    7  S1  UNL     1      -0.670  83.463  27.769  1.00  0.00    -0.037 SA
HETATM    8  N4  UNL     1      -2.476  83.850  25.842  1.00  0.00    -0.054 N 
ENDROOT
BRANCH   8   9
HETATM    9  N5  UNL     1      -1.658  84.746  25.195  1.00  0.00    -0.246 N 
HETATM   10  C5  UNL     1      -1.660  86.113  24.998  1.00  0.00     0.241 C 
HETATM   11  O1  UNL     1      -2.479  86.920  25.397  1.00  0.00    -0.271 OA
ATOM     12  H5  UNL     1      -0.856  84.292  24.756  1.00  0.00     0.191 HD
BRANCH  10  13
HETATM   13  C6  UNL     1      -0.515  86.715  24.190  1.00  0.00     0.079 C 
HETATM   14  C7  UNL     1      -0.827  88.190  24.054  1.00  0.00     0.014 C 
HETATM   15  C8  UNL     1       0.396  89.017  23.805  1.00  0.00     0.001 C 
HETATM   16  C9  UNL     1       1.385  88.376  22.876  1.00  0.00     0.000 C 
HETATM   17  C10 UNL     1       2.488  87.751  23.717  1.00  0.00     0.000 C 
HETATM   18  C11 UNL     1       1.978  86.400  24.161  1.00  0.00     0.001 C 
HETATM   19  C12 UNL     1       0.731  86.575  25.001  1.00  0.00     0.014 C 
ENDBRANCH  10  13
ENDBRANCH   8   9
BRANCH   1  20
HETATM   20  N1  UNL     1      -4.606  83.597  24.570  1.00  0.00    -0.223 N 
HETATM   21  C1  UNL     1      -4.660  82.708  23.439  1.00  0.00     0.168 C 
HETATM   22  C2  UNL     1      -5.462  84.752  24.611  1.00  0.00     0.168 C 
ENDBRANCH   1  20
TORSDOF 3
ENDMDL
