MODEL 1
REMARK VINA RESULT: -9.223467455      0.000      0.000
REMARK  14 active torsions:
REMARK  status: ('A' for Active; 'I' for Inactive)
REMARK    1  A    between atoms: C2_2  and  C3_3 
REMARK    2  A    between atoms: C3_3  and  C4_4 
REMARK    3  A    between atoms: C4_4  and  C5_5 
REMARK    4  A    between atoms: C5_5  and  O1_6 
REMARK    5  A    between atoms: O1_6  and  C6_7 
REMARK       I    between atoms: C6_7  and  N1_9 
REMARK       I    between atoms: N2_12  and  C9_13 
REMARK    6  A    between atoms: C9_13  and  C10_15 
REMARK    7  A    between atoms: C10_15  and  C11_16 
REMARK    8  A    between atoms: C10_15  and  N5_34 
REMARK    9  A    between atoms: C11_16  and  N3_17 
REMARK       I    between atoms: N3_17  and  C12_19 
REMARK   10  A    between atoms: C12_19  and  C13_21 
REMARK   11  A    between atoms: C15_23  and  C16_24 
REMARK       I    between atoms: N5_34  and  C23_36 
REMARK   12  A    between atoms: C23_36  and  C24_38 
REMARK   13  A    between atoms: C24_38  and  C27_41 
REMARK   14  A    between atoms: C27_41  and  N6_42 
ROOT
HETATM    1  C10 UNL     1      16.591  22.485  15.481  1.00  0.00     0.194 C 
ENDROOT
BRANCH   1   2
HETATM    2  C9  UNL     1      15.458  21.899  14.751  1.00  0.00     0.244 C 
HETATM    3  N2  UNL     1      14.487  21.047  15.335  1.00  0.00    -0.347 N 
HETATM    4  C8  UNL     1      14.433  20.636  16.698  1.00  0.00     0.146 C 
HETATM    5  C28 UNL     1      13.434  20.533  14.447  1.00  0.00     0.146 C 
HETATM    6  C7  UNL     1      13.053  20.573  17.285  1.00  0.00     0.148 C 
HETATM    7  N1  UNL     1      11.993  20.499  16.323  1.00  0.00    -0.325 N 
HETATM    8  C6  UNL     1      10.772  19.811  16.646  1.00  0.00     0.362 C 
HETATM    9  C29 UNL     1      12.141  21.115  15.032  1.00  0.00     0.148 C 
HETATM   10  O2  UNL     1       9.844  19.753  15.798  1.00  0.00    -0.238 OA
HETATM   11  O3  UNL     1      15.357  22.191  13.508  1.00  0.00    -0.271 OA
BRANCH   8  12
HETATM   12  O1  UNL     1      10.596  19.211  17.871  1.00  0.00    -0.304 OA
BRANCH  12  13
HETATM   13  C5  UNL     1      10.568  17.828  18.047  1.00  0.00     0.180 C 
BRANCH  13  14
HETATM   14  C4  UNL     1      11.903  17.202  18.369  1.00  0.00     0.027 C 
BRANCH  14  15
HETATM   15  C3  UNL     1      12.354  17.639  19.771  1.00  0.00     0.002 C 
BRANCH  15  16
HETATM   16  C2  UNL     1      13.831  18.010  19.734  1.00  0.00    -0.004 C 
HETATM   17  C1  UNL     1      14.469  17.448  18.476  1.00  0.00     0.005 C 
ENDBRANCH  15  16
ENDBRANCH  14  15
ENDBRANCH  13  14
ENDBRANCH  12  13
ENDBRANCH   8  12
ENDBRANCH   1   2
BRANCH   1  18
HETATM   18  C11 UNL     1      16.554  23.989  15.302  1.00  0.00     0.158 C 
BRANCH  18  19
HETATM   19  N3  UNL     1      17.884  24.560  15.276  1.00  0.00    -0.354 N 
HETATM   20  C12 UNL     1      18.268  25.468  16.255  1.00  0.00     0.253 C 
HETATM   21  O4  UNL     1      17.356  25.734  17.139  1.00  0.00    -0.268 OA
ATOM     22  H3  UNL     1      18.538  24.297  14.539  1.00  0.00     0.162 HD
BRANCH  20  23
HETATM   23  C13 UNL     1      19.516  26.166  16.445  1.00  0.00     0.053 A 
HETATM   24  C14 UNL     1      19.958  27.083  15.472  1.00  0.00     0.043 A 
HETATM   25  C15 UNL     1      21.166  27.686  15.725  1.00  0.00     0.010 A 
HETATM   26  N4  UNL     1      21.901  27.454  16.798  1.00  0.00    -0.358 N 
HETATM   27  C18 UNL     1      21.499  26.564  17.771  1.00  0.00     0.051 A 
ATOM     28  H4  UNL     1      22.788  27.946  16.909  1.00  0.00     0.166 HD
HETATM   29  C19 UNL     1      22.174  26.264  18.900  1.00  0.00     0.045 A 
HETATM   30  C22 UNL     1      20.299  25.934  17.564  1.00  0.00     0.047 A 
HETATM   31  C20 UNL     1      21.607  25.359  19.748  1.00  0.00    -0.018 A 
HETATM   32  C21 UNL     1      22.151  24.857  21.064  1.00  0.00     0.056 C 
HETATM   33  S1  UNL     1      20.159  24.951  18.954  1.00  0.00    -0.092 SA
BRANCH  25  34
HETATM   34  C16 UNL     1      21.725  28.682  14.731  1.00  0.00     0.052 C 
HETATM   35  C17 UNL     1      23.195  28.819  15.061  1.00  0.00     0.011 C 
ENDBRANCH  25  34
ENDBRANCH  20  23
ENDBRANCH  18  19
ENDBRANCH   1  18
BRANCH   1  36
HETATM   36  N5  UNL     1      16.494  22.251  16.914  1.00  0.00    -0.345 N 
HETATM   37  C23 UNL     1      17.626  22.074  17.732  1.00  0.00     0.228 C 
HETATM   38  O5  UNL     1      18.773  22.115  17.245  1.00  0.00    -0.273 OA
ATOM     39  H5  UNL     1      15.569  22.215  17.343  1.00  0.00     0.163 HD
BRANCH  37  40
HETATM   40  C24 UNL     1      17.455  21.836  19.182  1.00  0.00     0.057 C 
HETATM   41  C25 UNL     1      16.356  20.811  19.392  1.00  0.00     0.027 C 
HETATM   42  C26 UNL     1      16.994  23.143  19.826  1.00  0.00     0.027 C 
BRANCH  40  43
HETATM   43  C27 UNL     1      18.764  21.445  19.789  1.00  0.00     0.247 C 
BRANCH  43  44
HETATM   44  N6  UNL     1      18.769  21.378  21.220  1.00  0.00    -0.078 N 
ATOM     45  H63 UNL     1      18.729  22.317  21.617  1.00  0.00     0.274 HD
ATOM     46  H62 UNL     1      17.882  21.004  21.558  1.00  0.00     0.274 HD
ATOM     47  H61 UNL     1      19.548  20.858  21.623  1.00  0.00     0.274 HD
ENDBRANCH  43  44
ENDBRANCH  40  43
ENDBRANCH  37  40
ENDBRANCH   1  36
TORSDOF 14
ENDMDL
MODEL 2
REMARK VINA RESULT: -9.174342408      3.931     10.808
REMARK  14 active torsions:
REMARK  status: ('A' for Active; 'I' for Inactive)
REMARK    1  A    between atoms: C2_2  and  C3_3 
REMARK    2  A    between atoms: C3_3  and  C4_4 
REMARK    3  A    between atoms: C4_4  and  C5_5 
REMARK    4  A    between atoms: C5_5  and  O1_6 
REMARK    5  A    between atoms: O1_6  and  C6_7 
REMARK       I    between atoms: C6_7  and  N1_9 
REMARK       I    between atoms: N2_12  and  C9_13 
REMARK    6  A    between atoms: C9_13  and  C10_15 
REMARK    7  A    between atoms: C10_15  and  C11_16 
REMARK    8  A    between atoms: C10_15  and  N5_34 
REMARK    9  A    between atoms: C11_16  and  N3_17 
REMARK       I    between atoms: N3_17  and  C12_19 
REMARK   10  A    between atoms: C12_19  and  C13_21 
REMARK   11  A    between atoms: C15_23  and  C16_24 
REMARK       I    between atoms: N5_34  and  C23_36 
REMARK   12  A    between atoms: C23_36  and  C24_38 
REMARK   13  A    between atoms: C24_38  and  C27_41 
REMARK   14  A    between atoms: C27_41  and  N6_42 
ROOT
HETATM    1  C10 UNL     1      12.985  20.911  16.116  1.00  0.00     0.194 C 
ENDROOT
BRANCH   1   2
HETATM    2  C9  UNL     1      14.204  21.335  15.415  1.00  0.00     0.244 C 
HETATM    3  N2  UNL     1      15.094  22.330  15.891  1.00  0.00    -0.347 N 
HETATM    4  C8  UNL     1      14.973  23.060  17.109  1.00  0.00     0.146 C 
HETATM    5  C28 UNL     1      16.254  22.644  15.045  1.00  0.00     0.146 C 
HETATM    6  C7  UNL     1      16.266  23.302  17.832  1.00  0.00     0.148 C 
HETATM    7  N1  UNL     1      17.441  23.172  17.022  1.00  0.00    -0.325 N 
HETATM    8  C6  UNL     1      18.612  23.953  17.319  1.00  0.00     0.362 C 
HETATM    9  C29 UNL     1      17.460  22.259  15.911  1.00  0.00     0.148 C 
HETATM   10  O2  UNL     1      19.642  23.830  16.606  1.00  0.00    -0.238 OA
HETATM   11  O3  UNL     1      14.464  20.755  14.303  1.00  0.00    -0.271 OA
BRANCH   8  12
HETATM   12  O1  UNL     1      18.631  24.835  18.372  1.00  0.00    -0.304 OA
BRANCH  12  13
HETATM   13  C5  UNL     1      19.779  25.120  19.111  1.00  0.00     0.180 C 
BRANCH  13  14
HETATM   14  C4  UNL     1      19.637  24.941  20.602  1.00  0.00     0.027 C 
BRANCH  14  15
HETATM   15  C3  UNL     1      18.534  23.913  20.896  1.00  0.00     0.002 C 
BRANCH  15  16
HETATM   16  C2  UNL     1      19.155  22.529  21.030  1.00  0.00    -0.004 C 
HETATM   17  C1  UNL     1      18.314  21.514  20.277  1.00  0.00     0.005 C 
ENDBRANCH  15  16
ENDBRANCH  14  15
ENDBRANCH  13  14
ENDBRANCH  12  13
ENDBRANCH   8  12
ENDBRANCH   1   2
BRANCH   1  18
HETATM   18  C11 UNL     1      11.902  20.655  15.088  1.00  0.00     0.158 C 
BRANCH  18  19
HETATM   19  N3  UNL     1      11.941  19.295  14.592  1.00  0.00    -0.354 N 
HETATM   20  C12 UNL     1      10.841  18.465  14.757  1.00  0.00     0.253 C 
HETATM   21  O4  UNL     1       9.835  19.008  15.373  1.00  0.00    -0.268 OA
ATOM     22  H3  UNL     1      12.777  18.948  14.122  1.00  0.00     0.162 HD
BRANCH  20  23
HETATM   23  C13 UNL     1      10.635  17.093  14.359  1.00  0.00     0.053 A 
HETATM   24  C14 UNL     1      10.562  16.086  15.340  1.00  0.00     0.043 A 
HETATM   25  C15 UNL     1      10.386  14.807  14.869  1.00  0.00     0.010 A 
HETATM   26  N4  UNL     1      10.284  14.494  13.590  1.00  0.00    -0.358 N 
HETATM   27  C18 UNL     1      10.350  15.455  12.604  1.00  0.00     0.051 A 
ATOM     28  H4  UNL     1      10.154  13.517  13.326  1.00  0.00     0.166 HD
HETATM   29  C19 UNL     1      10.251  15.236  11.275  1.00  0.00     0.045 A 
HETATM   30  C22 UNL     1      10.526  16.748  13.022  1.00  0.00     0.047 A 
HETATM   31  C20 UNL     1      10.333  16.322  10.454  1.00  0.00    -0.018 A 
HETATM   32  C21 UNL     1      10.254  16.349   8.946  1.00  0.00     0.056 C 
HETATM   33  S1  UNL     1      10.546  17.609  11.547  1.00  0.00    -0.092 SA
BRANCH  25  34
HETATM   34  C16 UNL     1      10.304  13.656  15.850  1.00  0.00     0.052 C 
HETATM   35  C17 UNL     1      10.015  14.278  17.199  1.00  0.00     0.011 C 
ENDBRANCH  25  34
ENDBRANCH  20  23
ENDBRANCH  18  19
ENDBRANCH   1  18
BRANCH   1  36
HETATM   36  N5  UNL     1      13.172  19.651  16.820  1.00  0.00    -0.345 N 
HETATM   37  C23 UNL     1      13.324  19.577  18.217  1.00  0.00     0.228 C 
HETATM   38  O5  UNL     1      13.300  20.611  18.913  1.00  0.00    -0.273 OA
ATOM     39  H5  UNL     1      13.194  18.786  16.278  1.00  0.00     0.163 HD
BRANCH  37  40
HETATM   40  C24 UNL     1      13.515  18.263  18.867  1.00  0.00     0.057 C 
HETATM   41  C25 UNL     1      14.776  17.617  18.324  1.00  0.00     0.027 C 
HETATM   42  C26 UNL     1      12.338  17.367  18.484  1.00  0.00     0.027 C 
BRANCH  40  43
HETATM   43  C27 UNL     1      13.518  18.428  20.353  1.00  0.00     0.247 C 
BRANCH  43  44
HETATM   44  N6  UNL     1      12.222  18.560  20.949  1.00  0.00    -0.078 N 
ATOM     45  H63 UNL     1      12.262  18.315  21.938  1.00  0.00     0.274 HD
ATOM     46  H62 UNL     1      11.965  19.545  21.020  1.00  0.00     0.274 HD
ATOM     47  H61 UNL     1      11.480  18.035  20.485  1.00  0.00     0.274 HD
ENDBRANCH  43  44
ENDBRANCH  40  43
ENDBRANCH  37  40
ENDBRANCH   1  36
TORSDOF 14
ENDMDL
MODEL 3
REMARK VINA RESULT: -9.161682294      3.883     10.554
REMARK  14 active torsions:
REMARK  status: ('A' for Active; 'I' for Inactive)
REMARK    1  A    between atoms: C2_2  and  C3_3 
REMARK    2  A    between atoms: C3_3  and  C4_4 
REMARK    3  A    between atoms: C4_4  and  C5_5 
REMARK    4  A    between atoms: C5_5  and  O1_6 
REMARK    5  A    between atoms: O1_6  and  C6_7 
REMARK       I    between atoms: C6_7  and  N1_9 
REMARK       I    between atoms: N2_12  and  C9_13 
REMARK    6  A    between atoms: C9_13  and  C10_15 
REMARK    7  A    between atoms: C10_15  and  C11_16 
REMARK    8  A    between atoms: C10_15  and  N5_34 
REMARK    9  A    between atoms: C11_16  and  N3_17 
REMARK       I    between atoms: N3_17  and  C12_19 
REMARK   10  A    between atoms: C12_19  and  C13_21 
REMARK   11  A    between atoms: C15_23  and  C16_24 
REMARK       I    between atoms: N5_34  and  C23_36 
REMARK   12  A    between atoms: C23_36  and  C24_38 
REMARK   13  A    between atoms: C24_38  and  C27_41 
REMARK   14  A    between atoms: C27_41  and  N6_42 
ROOT
HETATM    1  C10 UNL     1      12.963  20.864  16.109  1.00  0.00     0.194 C 
ENDROOT
BRANCH   1   2
HETATM    2  C9  UNL     1      14.178  21.291  15.402  1.00  0.00     0.244 C 
HETATM    3  N2  UNL     1      15.067  22.289  15.874  1.00  0.00    -0.347 N 
HETATM    4  C8  UNL     1      14.950  23.018  17.093  1.00  0.00     0.146 C 
HETATM    5  C28 UNL     1      16.223  22.606  15.023  1.00  0.00     0.146 C 
HETATM    6  C7  UNL     1      16.246  23.264  17.810  1.00  0.00     0.148 C 
HETATM    7  N1  UNL     1      17.418  23.137  16.994  1.00  0.00    -0.325 N 
HETATM    8  C6  UNL     1      18.588  23.921  17.286  1.00  0.00     0.362 C 
HETATM    9  C29 UNL     1      17.433  22.224  15.883  1.00  0.00     0.148 C 
HETATM   10  O2  UNL     1      19.615  23.801  16.568  1.00  0.00    -0.238 OA
HETATM   11  O3  UNL     1      14.434  20.712  14.289  1.00  0.00    -0.271 OA
BRANCH   8  12
HETATM   12  O1  UNL     1      18.609  24.803  18.340  1.00  0.00    -0.304 OA
BRANCH  12  13
HETATM   13  C5  UNL     1      19.764  25.106  19.060  1.00  0.00     0.180 C 
BRANCH  13  14
HETATM   14  C4  UNL     1      19.646  24.934  20.554  1.00  0.00     0.027 C 
BRANCH  14  15
HETATM   15  C3  UNL     1      18.532  23.925  20.871  1.00  0.00     0.002 C 
BRANCH  15  16
HETATM   16  C2  UNL     1      19.135  22.535  21.020  1.00  0.00    -0.004 C 
HETATM   17  C1  UNL     1      18.309  21.531  20.237  1.00  0.00     0.005 C 
ENDBRANCH  15  16
ENDBRANCH  14  15
ENDBRANCH  13  14
ENDBRANCH  12  13
ENDBRANCH   8  12
ENDBRANCH   1   2
BRANCH   1  18
HETATM   18  C11 UNL     1      11.889  20.565  15.084  1.00  0.00     0.158 C 
BRANCH  18  19
HETATM   19  N3  UNL     1      11.997  19.216  14.568  1.00  0.00    -0.354 N 
HETATM   20  C12 UNL     1      10.849  18.491  14.276  1.00  0.00     0.253 C 
HETATM   21  O4  UNL     1       9.735  19.117  14.507  1.00  0.00    -0.268 OA
ATOM     22  H3  UNL     1      12.916  18.798  14.420  1.00  0.00     0.162 HD
BRANCH  20  23
HETATM   23  C13 UNL     1      10.693  17.152  13.761  1.00  0.00     0.053 A 
HETATM   24  C14 UNL     1      10.865  16.911  12.384  1.00  0.00     0.043 A 
HETATM   25  C15 UNL     1      10.677  15.611  11.979  1.00  0.00     0.010 A 
HETATM   26  N4  UNL     1      10.357  14.620  12.790  1.00  0.00    -0.358 N 
HETATM   27  C18 UNL     1      10.182  14.820  14.143  1.00  0.00     0.051 A 
ATOM     28  H4  UNL     1      10.235  13.682  12.406  1.00  0.00     0.166 HD
HETATM   29  C19 UNL     1       9.861  13.874  15.051  1.00  0.00     0.045 A 
HETATM   30  C22 UNL     1      10.358  16.102  14.598  1.00  0.00     0.047 A 
HETATM   31  C20 UNL     1       9.739  14.268  16.351  1.00  0.00    -0.018 A 
HETATM   32  C21 UNL     1       9.392  13.416  17.548  1.00  0.00     0.056 C 
HETATM   33  S1  UNL     1      10.070  15.936  16.274  1.00  0.00    -0.092 SA
BRANCH  25  34
HETATM   34  C16 UNL     1      10.833  15.257  10.515  1.00  0.00     0.052 C 
HETATM   35  C17 UNL     1      12.260  15.601  10.153  1.00  0.00     0.011 C 
ENDBRANCH  25  34
ENDBRANCH  20  23
ENDBRANCH  18  19
ENDBRANCH   1  18
BRANCH   1  36
HETATM   36  N5  UNL     1      13.168  19.625  16.844  1.00  0.00    -0.345 N 
HETATM   37  C23 UNL     1      13.374  19.593  18.236  1.00  0.00     0.228 C 
HETATM   38  O5  UNL     1      13.384  20.648  18.900  1.00  0.00    -0.273 OA
ATOM     39  H5  UNL     1      13.163  18.744  16.329  1.00  0.00     0.163 HD
BRANCH  37  40
HETATM   40  C24 UNL     1      13.580  18.297  18.919  1.00  0.00     0.057 C 
HETATM   41  C25 UNL     1      14.821  17.630  18.355  1.00  0.00     0.027 C 
HETATM   42  C26 UNL     1      12.388  17.397  18.600  1.00  0.00     0.027 C 
BRANCH  40  43
HETATM   43  C27 UNL     1      13.632  18.507  20.398  1.00  0.00     0.247 C 
BRANCH  43  44
HETATM   44  N6  UNL     1      12.362  18.739  21.019  1.00  0.00    -0.078 N 
ATOM     45  H63 UNL     1      12.390  19.598  21.569  1.00  0.00     0.274 HD
ATOM     46  H62 UNL     1      11.668  18.999  20.318  1.00  0.00     0.274 HD
ATOM     47  H61 UNL     1      12.015  17.967  21.589  1.00  0.00     0.274 HD
ENDBRANCH  43  44
ENDBRANCH  40  43
ENDBRANCH  37  40
ENDBRANCH   1  36
TORSDOF 14
ENDMDL
MODEL 4
REMARK VINA RESULT: -9.076345332      1.407      2.836
REMARK  14 active torsions:
REMARK  status: ('A' for Active; 'I' for Inactive)
REMARK    1  A    between atoms: C2_2  and  C3_3 
REMARK    2  A    between atoms: C3_3  and  C4_4 
REMARK    3  A    between atoms: C4_4  and  C5_5 
REMARK    4  A    between atoms: C5_5  and  O1_6 
REMARK    5  A    between atoms: O1_6  and  C6_7 
REMARK       I    between atoms: C6_7  and  N1_9 
REMARK       I    between atoms: N2_12  and  C9_13 
REMARK    6  A    between atoms: C9_13  and  C10_15 
REMARK    7  A    between atoms: C10_15  and  C11_16 
REMARK    8  A    between atoms: C10_15  and  N5_34 
REMARK    9  A    between atoms: C11_16  and  N3_17 
REMARK       I    between atoms: N3_17  and  C12_19 
REMARK   10  A    between atoms: C12_19  and  C13_21 
REMARK   11  A    between atoms: C15_23  and  C16_24 
REMARK       I    between atoms: N5_34  and  C23_36 
REMARK   12  A    between atoms: C23_36  and  C24_38 
REMARK   13  A    between atoms: C24_38  and  C27_41 
REMARK   14  A    between atoms: C27_41  and  N6_42 
ROOT
HETATM    1  C10 UNL     1      16.487  22.265  14.970  1.00  0.00     0.194 C 
ENDROOT
BRANCH   1   2
HETATM    2  C9  UNL     1      15.285  21.986  14.172  1.00  0.00     0.244 C 
HETATM    3  N2  UNL     1      14.217  21.158  14.601  1.00  0.00    -0.347 N 
HETATM    4  C8  UNL     1      14.118  20.485  15.853  1.00  0.00     0.146 C 
HETATM    5  C28 UNL     1      13.102  20.971  13.660  1.00  0.00     0.146 C 
HETATM    6  C7  UNL     1      12.744  20.474  16.457  1.00  0.00     0.148 C 
HETATM    7  N1  UNL     1      11.678  20.730  15.533  1.00  0.00    -0.325 N 
HETATM    8  C6  UNL     1      10.382  20.146  15.748  1.00  0.00     0.362 C 
HETATM    9  C29 UNL     1      11.896  21.574  14.390  1.00  0.00     0.148 C 
HETATM   10  O2  UNL     1       9.449  20.378  14.935  1.00  0.00    -0.238 OA
HETATM   11  O3  UNL     1      15.215  22.536  13.018  1.00  0.00    -0.271 OA
BRANCH   8  12
HETATM   12  O1  UNL     1      10.137  19.334  16.830  1.00  0.00    -0.304 OA
BRANCH  12  13
HETATM   13  C5  UNL     1      10.614  18.027  16.929  1.00  0.00     0.180 C 
BRANCH  13  14
HETATM   14  C4  UNL     1      11.009  17.599  18.320  1.00  0.00     0.027 C 
BRANCH  14  15
HETATM   15  C3  UNL     1      12.500  17.230  18.345  1.00  0.00     0.002 C 
BRANCH  15  16
HETATM   16  C2  UNL     1      13.162  17.881  19.552  1.00  0.00    -0.004 C 
HETATM   17  C1  UNL     1      12.113  18.197  20.603  1.00  0.00     0.005 C 
ENDBRANCH  15  16
ENDBRANCH  14  15
ENDBRANCH  13  14
ENDBRANCH  12  13
ENDBRANCH   8  12
ENDBRANCH   1   2
BRANCH   1  18
HETATM   18  C11 UNL     1      16.922  23.691  14.702  1.00  0.00     0.158 C 
BRANCH  18  19
HETATM   19  N3  UNL     1      18.141  24.023  15.410  1.00  0.00    -0.354 N 
HETATM   20  C12 UNL     1      18.096  24.870  16.510  1.00  0.00     0.253 C 
HETATM   21  O4  UNL     1      16.911  25.308  16.812  1.00  0.00    -0.268 OA
ATOM     22  H3  UNL     1      19.032  23.636  15.100  1.00  0.00     0.162 HD
BRANCH  20  23
HETATM   23  C13 UNL     1      19.153  25.345  17.369  1.00  0.00     0.053 A 
HETATM   24  C14 UNL     1      19.255  24.855  18.685  1.00  0.00     0.043 A 
HETATM   25  C15 UNL     1      20.278  25.378  19.438  1.00  0.00     0.010 A 
HETATM   26  N4  UNL     1      21.135  26.283  19.001  1.00  0.00    -0.358 N 
HETATM   27  C18 UNL     1      21.064  26.784  17.718  1.00  0.00     0.051 A 
ATOM     28  H4  UNL     1      21.867  26.619  19.627  1.00  0.00     0.166 HD
HETATM   29  C19 UNL     1      21.893  27.702  17.178  1.00  0.00     0.045 A 
HETATM   30  C22 UNL     1      20.059  26.294  16.925  1.00  0.00     0.047 A 
HETATM   31  C20 UNL     1      21.665  28.069  15.885  1.00  0.00    -0.018 A 
HETATM   32  C21 UNL     1      22.439  29.065  15.055  1.00  0.00     0.056 C 
HETATM   33  S1  UNL     1      20.310  27.131  15.458  1.00  0.00    -0.092 SA
BRANCH  25  34
HETATM   34  C16 UNL     1      20.462  24.916  20.868  1.00  0.00     0.052 C 
HETATM   35  C17 UNL     1      21.919  24.527  20.996  1.00  0.00     0.011 C 
ENDBRANCH  25  34
ENDBRANCH  20  23
ENDBRANCH  18  19
ENDBRANCH   1  18
BRANCH   1  36
HETATM   36  N5  UNL     1      16.220  22.191  16.399  1.00  0.00    -0.345 N 
HETATM   37  C23 UNL     1      17.082  21.535  17.299  1.00  0.00     0.228 C 
HETATM   38  O5  UNL     1      18.125  20.987  16.892  1.00  0.00    -0.273 OA
ATOM     39  H5  UNL     1      15.376  22.633  16.763  1.00  0.00     0.163 HD
BRANCH  37  40
HETATM   40  C24 UNL     1      16.748  21.495  18.738  1.00  0.00     0.057 C 
HETATM   41  C25 UNL     1      18.028  21.379  19.544  1.00  0.00     0.027 C 
HETATM   42  C26 UNL     1      15.924  20.236  19.000  1.00  0.00     0.027 C 
BRANCH  40  43
HETATM   43  C27 UNL     1      15.919  22.686  19.099  1.00  0.00     0.247 C 
BRANCH  43  44
HETATM   44  N6  UNL     1      14.508  22.442  19.165  1.00  0.00    -0.078 N 
ATOM     45  H63 UNL     1      14.191  22.465  20.134  1.00  0.00     0.274 HD
ATOM     46  H62 UNL     1      13.995  23.240  18.790  1.00  0.00     0.274 HD
ATOM     47  H61 UNL     1      14.199  21.581  18.713  1.00  0.00     0.274 HD
ENDBRANCH  43  44
ENDBRANCH  40  43
ENDBRANCH  37  40
ENDBRANCH   1  36
TORSDOF 14
ENDMDL
MODEL 5
REMARK VINA RESULT: -8.972424324      2.607      5.328
REMARK  14 active torsions:
REMARK  status: ('A' for Active; 'I' for Inactive)
REMARK    1  A    between atoms: C2_2  and  C3_3 
REMARK    2  A    between atoms: C3_3  and  C4_4 
REMARK    3  A    between atoms: C4_4  and  C5_5 
REMARK    4  A    between atoms: C5_5  and  O1_6 
REMARK    5  A    between atoms: O1_6  and  C6_7 
REMARK       I    between atoms: C6_7  and  N1_9 
REMARK       I    between atoms: N2_12  and  C9_13 
REMARK    6  A    between atoms: C9_13  and  C10_15 
REMARK    7  A    between atoms: C10_15  and  C11_16 
REMARK    8  A    between atoms: C10_15  and  N5_34 
REMARK    9  A    between atoms: C11_16  and  N3_17 
REMARK       I    between atoms: N3_17  and  C12_19 
REMARK   10  A    between atoms: C12_19  and  C13_21 
REMARK   11  A    between atoms: C15_23  and  C16_24 
REMARK       I    between atoms: N5_34  and  C23_36 
REMARK   12  A    between atoms: C23_36  and  C24_38 
REMARK   13  A    between atoms: C24_38  and  C27_41 
REMARK   14  A    between atoms: C27_41  and  N6_42 
ROOT
HETATM    1  C10 UNL     1      14.052  21.126  18.137  1.00  0.00     0.194 C 
ENDROOT
BRANCH   1   2
HETATM    2  C9  UNL     1      13.280  20.047  18.770  1.00  0.00     0.244 C 
HETATM    3  N2  UNL     1      12.151  19.423  18.182  1.00  0.00    -0.347 N 
HETATM    4  C8  UNL     1      11.595  19.713  16.903  1.00  0.00     0.146 C 
HETATM    5  C28 UNL     1      11.486  18.375  18.971  1.00  0.00     0.146 C 
HETATM    6  C7  UNL     1      11.120  18.514  16.134  1.00  0.00     0.148 C 
HETATM    7  N1  UNL     1      10.884  17.345  16.928  1.00  0.00    -0.325 N 
HETATM    8  C6  UNL     1       9.877  16.396  16.534  1.00  0.00     0.362 C 
HETATM    9  C29 UNL     1      11.653  17.110  18.121  1.00  0.00     0.148 C 
HETATM   10  O2  UNL     1       9.678  15.370  17.234  1.00  0.00    -0.238 OA
HETATM   11  O3  UNL     1      13.669  19.658  19.926  1.00  0.00    -0.271 OA
BRANCH   8  12
HETATM   12  O1  UNL     1       9.123  16.588  15.400  1.00  0.00    -0.304 OA
BRANCH  12  13
HETATM   13  C5  UNL     1       9.284  15.833  14.239  1.00  0.00     0.180 C 
BRANCH  13  14
HETATM   14  C4  UNL     1      10.713  15.497  13.892  1.00  0.00     0.027 C 
BRANCH  14  15
HETATM   15  C3  UNL     1      10.903  15.559  12.368  1.00  0.00     0.002 C 
BRANCH  15  16
HETATM   16  C2  UNL     1      12.132  16.399  12.045  1.00  0.00    -0.004 C 
HETATM   17  C1  UNL     1      11.836  17.863  12.314  1.00  0.00     0.005 C 
ENDBRANCH  15  16
ENDBRANCH  14  15
ENDBRANCH  13  14
ENDBRANCH  12  13
ENDBRANCH   8  12
ENDBRANCH   1   2
BRANCH   1  18
HETATM   18  C11 UNL     1      15.500  20.995  18.562  1.00  0.00     0.158 C 
BRANCH  18  19
HETATM   19  N3  UNL     1      16.141  22.287  18.693  1.00  0.00    -0.354 N 
HETATM   20  C12 UNL     1      17.524  22.387  18.606  1.00  0.00     0.253 C 
HETATM   21  O4  UNL     1      18.140  21.261  18.411  1.00  0.00    -0.268 OA
ATOM     22  H3  UNL     1      15.578  23.123  18.849  1.00  0.00     0.162 HD
BRANCH  20  23
HETATM   23  C13 UNL     1      18.387  23.539  18.701  1.00  0.00     0.053 A 
HETATM   24  C14 UNL     1      19.093  23.784  19.895  1.00  0.00     0.043 A 
HETATM   25  C15 UNL     1      19.874  24.914  19.904  1.00  0.00     0.010 A 
HETATM   26  N4  UNL     1      19.988  25.746  18.885  1.00  0.00    -0.358 N 
HETATM   27  C18 UNL     1      19.311  25.537  17.702  1.00  0.00     0.051 A 
ATOM     28  H4  UNL     1      20.591  26.565  18.976  1.00  0.00     0.166 HD
HETATM   29  C19 UNL     1      19.367  26.323  16.606  1.00  0.00     0.045 A 
HETATM   30  C22 UNL     1      18.517  24.421  17.642  1.00  0.00     0.047 A 
HETATM   31  C20 UNL     1      18.627  25.944  15.525  1.00  0.00    -0.018 A 
HETATM   32  C21 UNL     1      18.515  26.641  14.190  1.00  0.00     0.056 C 
HETATM   33  S1  UNL     1      17.879  24.513  16.060  1.00  0.00    -0.092 SA
BRANCH  25  34
HETATM   34  C16 UNL     1      20.665  25.263  21.147  1.00  0.00     0.052 C 
HETATM   35  C17 UNL     1      22.039  24.660  20.950  1.00  0.00     0.011 C 
ENDBRANCH  25  34
ENDBRANCH  20  23
ENDBRANCH  18  19
ENDBRANCH   1  18
BRANCH   1  36
HETATM   36  N5  UNL     1      14.051  21.017  16.686  1.00  0.00    -0.345 N 
HETATM   37  C23 UNL     1      14.170  22.136  15.841  1.00  0.00     0.228 C 
HETATM   38  O5  UNL     1      14.285  23.282  16.319  1.00  0.00    -0.273 OA
ATOM     39  H5  UNL     1      13.960  20.092  16.265  1.00  0.00     0.163 HD
BRANCH  37  40
HETATM   40  C24 UNL     1      14.157  21.953  14.373  1.00  0.00     0.057 C 
HETATM   41  C25 UNL     1      13.056  22.809  13.775  1.00  0.00     0.027 C 
HETATM   42  C26 UNL     1      13.816  20.493  14.079  1.00  0.00     0.027 C 
BRANCH  40  43
HETATM   43  C27 UNL     1      15.513  22.244  13.815  1.00  0.00     0.247 C 
BRANCH  43  44
HETATM   44  N6  UNL     1      15.592  22.233  12.385  1.00  0.00    -0.078 N 
ATOM     45  H63 UNL     1      15.421  21.292  12.030  1.00  0.00     0.274 HD
ATOM     46  H62 UNL     1      14.791  22.722  11.984  1.00  0.00     0.274 HD
ATOM     47  H61 UNL     1      16.460  22.604  11.999  1.00  0.00     0.274 HD
ENDBRANCH  43  44
ENDBRANCH  40  43
ENDBRANCH  37  40
ENDBRANCH   1  36
TORSDOF 14
ENDMDL
