MODEL 1
REMARK VINA RESULT: -6.603131843      0.000      0.000
REMARK  10 active torsions:
REMARK  status: ('A' for Active; 'I' for Inactive)
REMARK    1  A    between atoms: N1_1  and  C1_4 
REMARK    2  A    between atoms: C3_8  and  C4_9 
REMARK    3  A    between atoms: C4_9  and  N3_10 
REMARK    4  A    between atoms: N4_13  and  C7_14 
REMARK    5  A    between atoms: C7_14  and  C8_15 
REMARK    6  A    between atoms: C8_15  and  O1_16 
REMARK    7  A    between atoms: C13_25  and  N6_26 
REMARK    8  A    between atoms: N6_26  and  C14_28 
REMARK    9  A    between atoms: C14_28  and  C15_29 
REMARK   10  A    between atoms: C15_29  and  O3_30 
ROOT
HETATM    1  C1  UNL     1      39.867 -21.022  15.428  1.00  0.00     0.127 A 
HETATM    2  N2  UNL     1      41.029 -21.154  14.801  1.00  0.00    -0.350 N 
ATOM      3  H2  UNL     1      41.535 -22.034  14.890  1.00  0.00     0.166 HD
HETATM    4  C2  UNL     1      41.572 -20.170  14.048  1.00  0.00     0.099 A 
HETATM    5  C3  UNL     1      40.937 -18.956  13.886  1.00  0.00     0.004 A 
HETATM    6  C11 UNL     1      39.714 -18.786  14.535  1.00  0.00     0.073 A 
HETATM    7  C12 UNL     1      38.961 -17.643  14.481  1.00  0.00     0.272 A 
HETATM    8  O2  UNL     1      39.365 -16.669  13.814  1.00  0.00    -0.267 OA
HETATM    9  N5  UNL     1      37.776 -17.472  15.111  1.00  0.00    -0.155 N 
ATOM     10  H5  UNL     1      37.264 -16.593  15.030  1.00  0.00     0.187 HD
HETATM   11  C13 UNL     1      37.288 -18.480  15.843  1.00  0.00     0.681 A 
HETATM   12  N7  UNL     1      37.996 -19.636  15.928  1.00  0.00    -0.187 N 
ATOM     13  H7  UNL     1      37.614 -20.397  16.488  1.00  0.00     0.184 HD
HETATM   14  C16 UNL     1      39.178 -19.828  15.309  1.00  0.00     0.109 A 
ENDROOT
BRANCH   5  15
HETATM   15  C4  UNL     1      41.450 -17.843  13.106  1.00  0.00     0.313 C 
BRANCH  15  16
HETATM   16  N3  UNL     1      41.950 -18.227  11.758  1.00  0.00     0.096 N 
HETATM   17  C5  UNL     1      43.361 -17.780  11.823  1.00  0.00     0.303 C 
HETATM   18  C6  UNL     1      44.096 -17.895  10.550  1.00  0.00     0.302 C 
HETATM   19  N4  UNL     1      43.382 -17.236   9.445  1.00  0.00     0.093 N 
HETATM   20  C9  UNL     1      42.243 -16.539   9.967  1.00  0.00     0.302 C 
HETATM   21  C10 UNL     1      41.304 -17.444  10.723  1.00  0.00     0.303 C 
BRANCH  19  22
HETATM   22  C7  UNL     1      43.130 -18.262   8.491  1.00  0.00     0.298 C 
BRANCH  22  23
HETATM   23  C8  UNL     1      43.756 -19.590   8.688  1.00  0.00     0.194 C 
BRANCH  23  24
HETATM   24  O1  UNL     1      43.307 -20.599   7.883  1.00  0.00    -0.399 OA
ATOM     25  H1  UNL     1      43.924 -20.938   7.245  1.00  0.00     0.209 HD
ENDBRANCH  23  24
ENDBRANCH  22  23
ENDBRANCH  19  22
ENDBRANCH  15  16
ENDBRANCH   5  15
BRANCH   1  26
HETATM   26  N1  UNL     1      39.334 -21.954  16.150  1.00  0.00    -0.384 N 
ATOM     27  H12 UNL     1      39.449 -21.893  17.162  1.00  0.00     0.157 HD
ATOM     28  H11 UNL     1      38.811 -22.739  15.763  1.00  0.00     0.157 HD
ENDBRANCH   1  26
BRANCH  11  29
HETATM   29  N6  UNL     1      36.164 -18.338  16.452  1.00  0.00    -0.224 N 
ATOM     30  H6  UNL     1      36.116 -18.600  17.437  1.00  0.00     0.177 HD
BRANCH  29  31
HETATM   31  C14 UNL     1      34.976 -17.832  15.830  1.00  0.00     0.164 C 
BRANCH  31  32
HETATM   32  C15 UNL     1      34.690 -16.483  16.490  1.00  0.00     0.184 C 
BRANCH  32  33
HETATM   33  O3  UNL     1      35.399 -15.492  15.835  1.00  0.00    -0.399 OA
ATOM     34  H3  UNL     1      36.076 -15.157  16.411  1.00  0.00     0.209 HD
ENDBRANCH  32  33
ENDBRANCH  31  32
ENDBRANCH  29  31
ENDBRANCH  11  29
TORSDOF 10
ENDMDL
MODEL 2
REMARK VINA RESULT: -6.437936263      1.110      1.203
REMARK  10 active torsions:
REMARK  status: ('A' for Active; 'I' for Inactive)
REMARK    1  A    between atoms: N1_1  and  C1_4 
REMARK    2  A    between atoms: C3_8  and  C4_9 
REMARK    3  A    between atoms: C4_9  and  N3_10 
REMARK    4  A    between atoms: N4_13  and  C7_14 
REMARK    5  A    between atoms: C7_14  and  C8_15 
REMARK    6  A    between atoms: C8_15  and  O1_16 
REMARK    7  A    between atoms: C13_25  and  N6_26 
REMARK    8  A    between atoms: N6_26  and  C14_28 
REMARK    9  A    between atoms: C14_28  and  C15_29 
REMARK   10  A    between atoms: C15_29  and  O3_30 
ROOT
HETATM    1  C1  UNL     1      39.796 -20.735  15.357  1.00  0.00     0.127 A 
HETATM    2  N2  UNL     1      41.037 -20.663  14.890  1.00  0.00    -0.350 N 
ATOM      3  H2  UNL     1      41.618 -21.500  14.920  1.00  0.00     0.166 HD
HETATM    4  C2  UNL     1      41.563 -19.528  14.377  1.00  0.00     0.099 A 
HETATM    5  C3  UNL     1      40.828 -18.363  14.308  1.00  0.00     0.004 A 
HETATM    6  C11 UNL     1      39.521 -18.406  14.793  1.00  0.00     0.073 A 
HETATM    7  C12 UNL     1      38.663 -17.337  14.802  1.00  0.00     0.272 A 
HETATM    8  O2  UNL     1      39.042 -16.237  14.352  1.00  0.00    -0.267 OA
HETATM    9  N5  UNL     1      37.395 -17.373  15.274  1.00  0.00    -0.155 N 
ATOM     10  H5  UNL     1      36.807 -16.539  15.252  1.00  0.00     0.187 HD
HETATM   11  C13 UNL     1      36.928 -18.524  15.770  1.00  0.00     0.681 A 
HETATM   12  N7  UNL     1      37.739 -19.613  15.784  1.00  0.00    -0.187 N 
ATOM     13  H7  UNL     1      37.372 -20.485  16.164  1.00  0.00     0.184 HD
HETATM   14  C16 UNL     1      39.005 -19.601  15.320  1.00  0.00     0.109 A 
ENDROOT
BRANCH   5  15
HETATM   15  C4  UNL     1      41.315 -17.098  13.784  1.00  0.00     0.313 C 
BRANCH  15  16
HETATM   16  N3  UNL     1      41.624 -17.125  12.328  1.00  0.00     0.096 N 
HETATM   17  C5  UNL     1      43.085 -17.370  12.337  1.00  0.00     0.303 C 
HETATM   18  C6  UNL     1      43.723 -17.298  11.008  1.00  0.00     0.302 C 
HETATM   19  N4  UNL     1      43.399 -16.042  10.313  1.00  0.00     0.093 N 
HETATM   20  C9  UNL     1      42.675 -15.183  11.203  1.00  0.00     0.302 C 
HETATM   21  C10 UNL     1      41.415 -15.821  11.730  1.00  0.00     0.303 C 
BRANCH  19  22
HETATM   22  C7  UNL     1      42.741 -16.433   9.113  1.00  0.00     0.298 C 
BRANCH  22  23
HETATM   23  C8  UNL     1      42.410 -17.862   8.911  1.00  0.00     0.194 C 
BRANCH  23  24
HETATM   24  O1  UNL     1      41.092 -18.204   9.027  1.00  0.00    -0.399 OA
ATOM     25  H1  UNL     1      40.893 -19.132   9.013  1.00  0.00     0.209 HD
ENDBRANCH  23  24
ENDBRANCH  22  23
ENDBRANCH  19  22
ENDBRANCH  15  16
ENDBRANCH   5  15
BRANCH   1  26
HETATM   26  N1  UNL     1      39.278 -21.814  15.849  1.00  0.00    -0.384 N 
ATOM     27  H12 UNL     1      39.253 -22.642  15.254  1.00  0.00     0.157 HD
ATOM     28  H11 UNL     1      38.897 -21.876  16.793  1.00  0.00     0.157 HD
ENDBRANCH   1  26
BRANCH  11  29
HETATM   29  N6  UNL     1      35.727 -18.578  16.226  1.00  0.00    -0.224 N 
ATOM     30  H6  UNL     1      35.534 -19.222  16.994  1.00  0.00     0.177 HD
BRANCH  29  31
HETATM   31  C14 UNL     1      34.643 -17.789  15.720  1.00  0.00     0.164 C 
BRANCH  31  32
HETATM   32  C15 UNL     1      34.624 -16.506  16.552  1.00  0.00     0.184 C 
BRANCH  32  33
HETATM   33  O3  UNL     1      35.075 -15.452  15.778  1.00  0.00    -0.399 OA
ATOM     34  H3  UNL     1      34.334 -15.029  15.360  1.00  0.00     0.209 HD
ENDBRANCH  32  33
ENDBRANCH  31  32
ENDBRANCH  29  31
ENDBRANCH  11  29
TORSDOF 10
ENDMDL
MODEL 3
REMARK VINA RESULT: -6.397295392      1.897      7.851
REMARK  10 active torsions:
REMARK  status: ('A' for Active; 'I' for Inactive)
REMARK    1  A    between atoms: N1_1  and  C1_4 
REMARK    2  A    between atoms: C3_8  and  C4_9 
REMARK    3  A    between atoms: C4_9  and  N3_10 
REMARK    4  A    between atoms: N4_13  and  C7_14 
REMARK    5  A    between atoms: C7_14  and  C8_15 
REMARK    6  A    between atoms: C8_15  and  O1_16 
REMARK    7  A    between atoms: C13_25  and  N6_26 
REMARK    8  A    between atoms: N6_26  and  C14_28 
REMARK    9  A    between atoms: C14_28  and  C15_29 
REMARK   10  A    between atoms: C15_29  and  O3_30 
ROOT
HETATM    1  C1  UNL     1      41.188 -20.372  14.259  1.00  0.00     0.127 A 
HETATM    2  N2  UNL     1      40.208 -20.670  15.104  1.00  0.00    -0.350 N 
ATOM      3  H2  UNL     1      40.200 -21.595  15.534  1.00  0.00     0.166 HD
HETATM    4  C2  UNL     1      39.221 -19.802  15.419  1.00  0.00     0.099 A 
HETATM    5  C3  UNL     1      39.177 -18.536  14.871  1.00  0.00     0.004 A 
HETATM    6  C11 UNL     1      40.192 -18.193  13.978  1.00  0.00     0.073 A 
HETATM    7  C12 UNL     1      40.290 -16.982  13.345  1.00  0.00     0.272 A 
HETATM    8  O2  UNL     1      39.432 -16.102  13.560  1.00  0.00    -0.267 OA
HETATM    9  N5  UNL     1      41.270 -16.646  12.475  1.00  0.00    -0.155 N 
ATOM     10  H5  UNL     1      41.285 -15.725  12.036  1.00  0.00     0.187 HD
HETATM   11  C13 UNL     1      42.221 -17.547  12.201  1.00  0.00     0.681 A 
HETATM   12  N7  UNL     1      42.169 -18.763  12.803  1.00  0.00    -0.187 N 
ATOM     13  H7  UNL     1      42.899 -19.441  12.587  1.00  0.00     0.184 HD
HETATM   14  C16 UNL     1      41.202 -19.120  13.672  1.00  0.00     0.109 A 
ENDROOT
BRANCH   5  15
HETATM   15  C4  UNL     1      38.151 -17.543  15.144  1.00  0.00     0.313 C 
BRANCH  15  16
HETATM   16  N3  UNL     1      36.991 -18.067  15.915  1.00  0.00     0.096 N 
HETATM   17  C5  UNL     1      36.008 -18.326  14.838  1.00  0.00     0.303 C 
HETATM   18  C6  UNL     1      34.670 -18.722  15.317  1.00  0.00     0.302 C 
HETATM   19  N4  UNL     1      34.138 -17.768  16.304  1.00  0.00     0.093 N 
HETATM   20  C9  UNL     1      35.021 -16.643  16.398  1.00  0.00     0.302 C 
HETATM   21  C10 UNL     1      36.428 -17.038  16.767  1.00  0.00     0.303 C 
BRANCH  19  22
HETATM   22  C7  UNL     1      33.929 -18.527  17.490  1.00  0.00     0.298 C 
BRANCH  22  23
HETATM   23  C8  UNL     1      33.500 -19.940  17.369  1.00  0.00     0.194 C 
BRANCH  23  24
HETATM   24  O1  UNL     1      32.534 -20.359  18.240  1.00  0.00    -0.399 OA
ATOM     25  H1  UNL     1      32.820 -20.561  19.123  1.00  0.00     0.209 HD
ENDBRANCH  23  24
ENDBRANCH  22  23
ENDBRANCH  19  22
ENDBRANCH  15  16
ENDBRANCH   5  15
BRANCH   1  26
HETATM   26  N1  UNL     1      42.140 -21.192  13.949  1.00  0.00    -0.384 N 
ATOM     27  H12 UNL     1      42.520 -21.779  14.692  1.00  0.00     0.157 HD
ATOM     28  H11 UNL     1      42.525 -21.280  13.009  1.00  0.00     0.157 HD
ENDBRANCH   1  26
BRANCH  11  29
HETATM   29  N6  UNL     1      43.160 -17.248  11.375  1.00  0.00    -0.224 N 
ATOM     30  H6  UNL     1      43.786 -16.480  11.618  1.00  0.00     0.177 HD
BRANCH  29  31
HETATM   31  C14 UNL     1      43.380 -17.931  10.134  1.00  0.00     0.164 C 
BRANCH  31  32
HETATM   32  C15 UNL     1      42.444 -17.278   9.116  1.00  0.00     0.184 C 
BRANCH  32  33
HETATM   33  O3  UNL     1      41.381 -18.125   8.862  1.00  0.00    -0.399 OA
ATOM     34  H3  UNL     1      41.195 -18.126   7.930  1.00  0.00     0.209 HD
ENDBRANCH  32  33
ENDBRANCH  31  32
ENDBRANCH  29  31
ENDBRANCH  11  29
TORSDOF 10
ENDMDL
MODEL 4
REMARK VINA RESULT: -6.354734880      1.477      1.605
REMARK  10 active torsions:
REMARK  status: ('A' for Active; 'I' for Inactive)
REMARK    1  A    between atoms: N1_1  and  C1_4 
REMARK    2  A    between atoms: C3_8  and  C4_9 
REMARK    3  A    between atoms: C4_9  and  N3_10 
REMARK    4  A    between atoms: N4_13  and  C7_14 
REMARK    5  A    between atoms: C7_14  and  C8_15 
REMARK    6  A    between atoms: C8_15  and  O1_16 
REMARK    7  A    between atoms: C13_25  and  N6_26 
REMARK    8  A    between atoms: N6_26  and  C14_28 
REMARK    9  A    between atoms: C14_28  and  C15_29 
REMARK   10  A    between atoms: C15_29  and  O3_30 
ROOT
HETATM    1  C1  UNL     1      39.208 -19.953  15.453  1.00  0.00     0.127 A 
HETATM    2  N2  UNL     1      40.524 -20.106  15.364  1.00  0.00    -0.350 N 
ATOM      3  H2  UNL     1      40.930 -21.003  15.630  1.00  0.00     0.166 HD
HETATM    4  C2  UNL     1      41.349 -19.125  14.935  1.00  0.00     0.099 A 
HETATM    5  C3  UNL     1      40.861 -17.890  14.559  1.00  0.00     0.004 A 
HETATM    6  C11 UNL     1      39.483 -17.698  14.644  1.00  0.00     0.073 A 
HETATM    7  C12 UNL     1      38.842 -16.532  14.314  1.00  0.00     0.272 A 
HETATM    8  O2  UNL     1      39.505 -15.557  13.906  1.00  0.00    -0.267 OA
HETATM    9  N5  UNL     1      37.505 -16.339  14.398  1.00  0.00    -0.155 N 
ATOM     10  H5  UNL     1      37.091 -15.444  14.137  1.00  0.00     0.187 HD
HETATM   11  C13 UNL     1      36.738 -17.347  14.829  1.00  0.00     0.681 A 
HETATM   12  N7  UNL     1      37.325 -18.524  15.168  1.00  0.00    -0.187 N 
ATOM     13  H7  UNL     1      36.730 -19.285  15.495  1.00  0.00     0.184 HD
HETATM   14  C16 UNL     1      38.654 -18.738  15.094  1.00  0.00     0.109 A 
ENDROOT
BRANCH   5  15
HETATM   15  C4  UNL     1      41.674 -16.777  14.097  1.00  0.00     0.313 C 
BRANCH  15  16
HETATM   16  N3  UNL     1      42.473 -17.076  12.878  1.00  0.00     0.096 N 
HETATM   17  C5  UNL     1      43.191 -15.797  12.670  1.00  0.00     0.303 C 
HETATM   18  C6  UNL     1      43.970 -15.732  11.418  1.00  0.00     0.302 C 
HETATM   19  N4  UNL     1      43.150 -16.077  10.246  1.00  0.00     0.093 N 
HETATM   20  C9  UNL     1      41.784 -16.229  10.652  1.00  0.00     0.302 C 
HETATM   21  C10 UNL     1      41.611 -17.270  11.729  1.00  0.00     0.303 C 
BRANCH  19  22
HETATM   22  C7  UNL     1      43.782 -17.211   9.663  1.00  0.00     0.298 C 
BRANCH  22  23
HETATM   23  C8  UNL     1      43.302 -17.700   8.349  1.00  0.00     0.194 C 
BRANCH  23  24
HETATM   24  O1  UNL     1      42.305 -18.635   8.374  1.00  0.00    -0.399 OA
ATOM     25  H1  UNL     1      42.139 -19.097   7.562  1.00  0.00     0.209 HD
ENDBRANCH  23  24
ENDBRANCH  22  23
ENDBRANCH  19  22
ENDBRANCH  15  16
ENDBRANCH   5  15
BRANCH   1  26
HETATM   26  N1  UNL     1      38.406 -20.883  15.860  1.00  0.00    -0.384 N 
ATOM     27  H12 UNL     1      38.672 -21.852  15.680  1.00  0.00     0.157 HD
ATOM     28  H11 UNL     1      37.528 -20.699  16.347  1.00  0.00     0.157 HD
ENDBRANCH   1  26
BRANCH  11  29
HETATM   29  N6  UNL     1      35.466 -17.183  14.919  1.00  0.00    -0.224 N 
ATOM     30  H6  UNL     1      35.018 -16.538  14.267  1.00  0.00     0.177 HD
BRANCH  29  31
HETATM   31  C14 UNL     1      34.639 -17.854  15.878  1.00  0.00     0.164 C 
BRANCH  31  32
HETATM   32  C15 UNL     1      34.526 -16.911  17.077  1.00  0.00     0.184 C 
BRANCH  32  33
HETATM   33  O3  UNL     1      34.930 -17.575  18.221  1.00  0.00    -0.399 OA
ATOM     34  H3  UNL     1      35.127 -16.940  18.900  1.00  0.00     0.209 HD
ENDBRANCH  32  33
ENDBRANCH  31  32
ENDBRANCH  29  31
ENDBRANCH  11  29
TORSDOF 10
ENDMDL
MODEL 5
REMARK VINA RESULT: -6.291583372      3.024      7.768
REMARK  10 active torsions:
REMARK  status: ('A' for Active; 'I' for Inactive)
REMARK    1  A    between atoms: N1_1  and  C1_4 
REMARK    2  A    between atoms: C3_8  and  C4_9 
REMARK    3  A    between atoms: C4_9  and  N3_10 
REMARK    4  A    between atoms: N4_13  and  C7_14 
REMARK    5  A    between atoms: C7_14  and  C8_15 
REMARK    6  A    between atoms: C8_15  and  O1_16 
REMARK    7  A    between atoms: C13_25  and  N6_26 
REMARK    8  A    between atoms: N6_26  and  C14_28 
REMARK    9  A    between atoms: C14_28  and  C15_29 
REMARK   10  A    between atoms: C15_29  and  O3_30 
ROOT
HETATM    1  C1  UNL     1      42.111 -18.599  13.184  1.00  0.00     0.127 A 
HETATM    2  N2  UNL     1      41.220 -19.317  13.857  1.00  0.00    -0.350 N 
ATOM      3  H2  UNL     1      41.411 -20.307  14.014  1.00  0.00     0.166 HD
HETATM    4  C2  UNL     1      40.072 -18.795  14.343  1.00  0.00     0.099 A 
HETATM    5  C3  UNL     1      39.758 -17.463  14.165  1.00  0.00     0.004 A 
HETATM    6  C11 UNL     1      40.673 -16.681  13.460  1.00  0.00     0.073 A 
HETATM    7  C12 UNL     1      40.508 -15.347  13.193  1.00  0.00     0.272 A 
HETATM    8  O2  UNL     1      39.484 -14.759  13.594  1.00  0.00    -0.267 OA
HETATM    9  N5  UNL     1      41.392 -14.586  12.507  1.00  0.00    -0.155 N 
ATOM     10  H5  UNL     1      41.208 -13.596  12.342  1.00  0.00     0.187 HD
HETATM   11  C13 UNL     1      42.511 -15.158  12.049  1.00  0.00     0.681 A 
HETATM   12  N7  UNL     1      42.722 -16.479  12.288  1.00  0.00    -0.187 N 
ATOM     13  H7  UNL     1      43.579 -16.903  11.935  1.00  0.00     0.184 HD
HETATM   14  C16 UNL     1      41.856 -17.256  12.968  1.00  0.00     0.109 A 
ENDROOT
BRANCH   5  15
HETATM   15  C4  UNL     1      38.545 -16.820  14.643  1.00  0.00     0.313 C 
BRANCH  15  16
HETATM   16  N3  UNL     1      37.416 -17.760  14.882  1.00  0.00     0.096 N 
HETATM   17  C5  UNL     1      36.383 -17.226  13.964  1.00  0.00     0.303 C 
HETATM   18  C6  UNL     1      35.063 -17.875  14.087  1.00  0.00     0.302 C 
HETATM   19  N4  UNL     1      34.585 -17.880  15.479  1.00  0.00     0.093 N 
HETATM   20  C9  UNL     1      35.482 -17.111  16.291  1.00  0.00     0.302 C 
HETATM   21  C10 UNL     1      36.901 -17.618  16.229  1.00  0.00     0.303 C 
BRANCH  19  22
HETATM   22  C7  UNL     1      34.422 -19.253  15.818  1.00  0.00     0.298 C 
BRANCH  22  23
HETATM   23  C8  UNL     1      33.742 -19.600  17.087  1.00  0.00     0.194 C 
BRANCH  23  24
HETATM   24  O1  UNL     1      34.546 -19.798  18.175  1.00  0.00    -0.399 OA
ATOM     25  H1  UNL     1      34.164 -20.275  18.902  1.00  0.00     0.209 HD
ENDBRANCH  23  24
ENDBRANCH  22  23
ENDBRANCH  19  22
ENDBRANCH  15  16
ENDBRANCH   5  15
BRANCH   1  26
HETATM   26  N1  UNL     1      43.214 -19.084  12.714  1.00  0.00    -0.384 N 
ATOM     27  H12 UNL     1      44.026 -18.467  12.677  1.00  0.00     0.157 HD
ATOM     28  H11 UNL     1      43.312 -20.044  12.382  1.00  0.00     0.157 HD
ENDBRANCH   1  26
BRANCH  11  29
HETATM   29  N6  UNL     1      43.362 -14.453  11.393  1.00  0.00    -0.224 N 
ATOM     30  H6  UNL     1      44.231 -14.191  11.860  1.00  0.00     0.177 HD
BRANCH  29  31
HETATM   31  C14 UNL     1      43.164 -14.012  10.043  1.00  0.00     0.164 C 
BRANCH  31  32
HETATM   32  C15 UNL     1      43.095 -12.485  10.098  1.00  0.00     0.184 C 
BRANCH  32  33
HETATM   33  O3  UNL     1      41.866 -12.100  10.601  1.00  0.00    -0.399 OA
ATOM     34  H3  UNL     1      41.299 -11.843   9.883  1.00  0.00     0.209 HD
ENDBRANCH  32  33
ENDBRANCH  31  32
ENDBRANCH  29  31
ENDBRANCH  11  29
TORSDOF 10
ENDMDL
