MODEL 1
REMARK VINA RESULT: -6.257623045      0.000      0.000
REMARK  5 active torsions:
REMARK  status: ('A' for Active; 'I' for Inactive)
REMARK       I    between atoms: C1_2  and  N2_4 
REMARK    1  A    between atoms: N2_4  and  C2_6 
REMARK    2  A    between atoms: C5_11  and  N4_12 
REMARK    3  A    between atoms: N4_12  and  C6_14 
REMARK    4  A    between atoms: C6_14  and  N5_15 
REMARK    5  A    between atoms: C6_14  and  C7_19 
ROOT
HETATM    1  C2  UNL     1      39.688  15.602 -14.039  1.00  0.00     0.687 A 
HETATM    2  N3  UNL     1      40.300  16.770 -13.779  1.00  0.00    -0.201 N 
ATOM      3  H3  UNL     1      41.168  16.765 -13.245  1.00  0.00     0.183 HD
HETATM    4  C3  UNL     1      39.802  17.942 -14.201  1.00  0.00     0.110 A 
HETATM    5  C4  UNL     1      38.630  17.995 -14.928  1.00  0.00     0.066 A 
HETATM    6  C5  UNL     1      37.991  16.806 -15.201  1.00  0.00     0.120 A 
HETATM    7  N7  UNL     1      38.550  15.646 -14.742  1.00  0.00    -0.177 N 
ATOM      8  H7  UNL     1      38.074  14.768 -14.947  1.00  0.00     0.186 HD
ENDROOT
BRANCH   6   9
HETATM    9  N4  UNL     1      36.909  16.761 -15.862  1.00  0.00    -0.341 N 
ATOM     10  H4  UNL     1      37.023  16.572 -16.858  1.00  0.00     0.163 HD
BRANCH   9  11
HETATM   11  C6  UNL     1      35.571  16.930 -15.441  1.00  0.00     0.373 C 
BRANCH  11  12
HETATM   12  N5  UNL     1      35.148  15.967 -14.435  1.00  0.00    -0.050 N 
ATOM     13  H53 UNL     1      34.703  15.160 -14.873  1.00  0.00     0.277 HD
ATOM     14  H52 UNL     1      35.955  15.508 -14.014  1.00  0.00     0.277 HD
ATOM     15  H51 UNL     1      34.544  16.364 -13.715  1.00  0.00     0.277 HD
ENDBRANCH  11  12
BRANCH  11  16
HETATM   16  C7  UNL     1      34.585  17.032 -16.560  1.00  0.00     0.281 C 
HETATM   17  N6  UNL     1      34.400  15.961 -17.446  1.00  0.00    -0.059 NA
HETATM   18  O2  UNL     1      33.933  18.098 -16.682  1.00  0.00    -0.273 OA
ENDBRANCH  11  16
ENDBRANCH   9  11
ENDBRANCH   6   9
BRANCH   1  19
HETATM   19  N2  UNL     1      40.197  14.487 -13.615  1.00  0.00    -0.143 N 
HETATM   20  C1  UNL     1      41.439  14.493 -12.926  1.00  0.00     0.346 C 
HETATM   21  N1  UNL     1      42.679  14.240 -13.553  1.00  0.00    -0.039 NA
HETATM   22  O1  UNL     1      41.459  14.735 -11.686  1.00  0.00    -0.250 OA
ATOM     23  H2  UNL     1      39.706  13.607 -13.777  1.00  0.00     0.188 HD
ENDBRANCH   1  19
TORSDOF 5
ENDMDL
MODEL 2
REMARK VINA RESULT: -6.149943703      0.854      1.524
REMARK  5 active torsions:
REMARK  status: ('A' for Active; 'I' for Inactive)
REMARK       I    between atoms: C1_2  and  N2_4 
REMARK    1  A    between atoms: N2_4  and  C2_6 
REMARK    2  A    between atoms: C5_11  and  N4_12 
REMARK    3  A    between atoms: N4_12  and  C6_14 
REMARK    4  A    between atoms: C6_14  and  N5_15 
REMARK    5  A    between atoms: C6_14  and  C7_19 
ROOT
HETATM    1  C2  UNL     1      39.666  15.655 -14.083  1.00  0.00     0.687 A 
HETATM    2  N3  UNL     1      40.317  16.805 -13.845  1.00  0.00    -0.201 N 
ATOM      3  H3  UNL     1      41.194  16.779 -13.325  1.00  0.00     0.183 HD
HETATM    4  C3  UNL     1      39.847  17.988 -14.271  1.00  0.00     0.110 A 
HETATM    5  C4  UNL     1      38.665  18.069 -14.978  1.00  0.00     0.066 A 
HETATM    6  C5  UNL     1      37.987  16.897 -15.229  1.00  0.00     0.120 A 
HETATM    7  N7  UNL     1      38.518  15.726 -14.768  1.00  0.00    -0.177 N 
ATOM      8  H7  UNL     1      38.013  14.861 -14.956  1.00  0.00     0.186 HD
ENDROOT
BRANCH   6   9
HETATM    9  N4  UNL     1      36.893  16.879 -15.871  1.00  0.00    -0.341 N 
ATOM     10  H4  UNL     1      36.959  17.197 -16.838  1.00  0.00     0.163 HD
BRANCH   9  11
HETATM   11  C6  UNL     1      35.598  16.490 -15.464  1.00  0.00     0.373 C 
BRANCH  11  12
HETATM   12  N5  UNL     1      34.638  16.415 -16.556  1.00  0.00    -0.050 N 
ATOM     13  H53 UNL     1      34.840  15.618 -17.160  1.00  0.00     0.277 HD
ATOM     14  H52 UNL     1      33.720  16.138 -16.210  1.00  0.00     0.277 HD
ATOM     15  H51 UNL     1      34.572  17.273 -17.104  1.00  0.00     0.277 HD
ENDBRANCH  11  12
BRANCH  11  16
HETATM   16  C7  UNL     1      35.060  17.268 -14.306  1.00  0.00     0.281 C 
HETATM   17  N6  UNL     1      35.436  16.944 -12.994  1.00  0.00    -0.059 NA
HETATM   18  O2  UNL     1      34.268  18.213 -14.541  1.00  0.00    -0.273 OA
ENDBRANCH  11  16
ENDBRANCH   9  11
ENDBRANCH   6   9
BRANCH   1  19
HETATM   19  N2  UNL     1      40.148  14.529 -13.657  1.00  0.00    -0.143 N 
HETATM   20  C1  UNL     1      41.382  14.509 -12.951  1.00  0.00     0.346 C 
HETATM   21  N1  UNL     1      42.624  14.235 -13.563  1.00  0.00    -0.039 NA
HETATM   22  O1  UNL     1      41.390  14.747 -11.710  1.00  0.00    -0.250 OA
ATOM     23  H2  UNL     1      39.643  13.658 -13.827  1.00  0.00     0.188 HD
ENDBRANCH   1  19
TORSDOF 5
ENDMDL
MODEL 3
REMARK VINA RESULT: -6.088487767      2.993      3.982
REMARK  5 active torsions:
REMARK  status: ('A' for Active; 'I' for Inactive)
REMARK       I    between atoms: C1_2  and  N2_4 
REMARK    1  A    between atoms: N2_4  and  C2_6 
REMARK    2  A    between atoms: C5_11  and  N4_12 
REMARK    3  A    between atoms: N4_12  and  C6_14 
REMARK    4  A    between atoms: C6_14  and  N5_15 
REMARK    5  A    between atoms: C6_14  and  C7_19 
ROOT
HETATM    1  C2  UNL     1      39.617  18.691 -14.621  1.00  0.00     0.687 A 
HETATM    2  N3  UNL     1      39.643  17.530 -13.944  1.00  0.00    -0.201 N 
ATOM      3  H3  UNL     1      40.417  17.347 -13.306  1.00  0.00     0.183 HD
HETATM    4  C3  UNL     1      38.681  16.606 -14.084  1.00  0.00     0.110 A 
HETATM    5  C4  UNL     1      37.616  16.813 -14.937  1.00  0.00     0.066 A 
HETATM    6  C5  UNL     1      37.577  17.998 -15.637  1.00  0.00     0.120 A 
HETATM    7  N7  UNL     1      38.587  18.898 -15.450  1.00  0.00    -0.177 N 
ATOM      8  H7  UNL     1      38.555  19.775 -15.970  1.00  0.00     0.186 HD
ENDROOT
BRANCH   6   9
HETATM    9  N4  UNL     1      36.635  18.272 -16.442  1.00  0.00    -0.341 N 
ATOM     10  H4  UNL     1      36.876  18.945 -17.169  1.00  0.00     0.163 HD
BRANCH   9  11
HETATM   11  C6  UNL     1      35.307  17.794 -16.494  1.00  0.00     0.373 C 
BRANCH  11  12
HETATM   12  N5  UNL     1      34.784  17.664 -17.847  1.00  0.00    -0.050 N 
ATOM     13  H53 UNL     1      33.779  17.498 -17.831  1.00  0.00     0.277 HD
ATOM     14  H52 UNL     1      34.800  18.564 -18.327  1.00  0.00     0.277 HD
ATOM     15  H51 UNL     1      35.258  16.952 -18.403  1.00  0.00     0.277 HD
ENDBRANCH  11  12
BRANCH  11  16
HETATM   16  C7  UNL     1      34.357  18.527 -15.601  1.00  0.00     0.281 C 
HETATM   17  N6  UNL     1      33.596  19.596 -16.095  1.00  0.00    -0.059 NA
HETATM   18  O2  UNL     1      34.261  18.157 -14.405  1.00  0.00    -0.273 OA
ENDBRANCH  11  16
ENDBRANCH   9  11
ENDBRANCH   6   9
BRANCH   1  19
HETATM   19  N2  UNL     1      40.564  19.563 -14.461  1.00  0.00    -0.143 N 
HETATM   20  C1  UNL     1      40.791  20.551 -15.457  1.00  0.00     0.346 C 
HETATM   21  N1  UNL     1      41.763  20.424 -16.473  1.00  0.00    -0.039 NA
HETATM   22  O1  UNL     1      40.097  21.607 -15.451  1.00  0.00    -0.250 OA
ATOM     23  H2  UNL     1      41.145  19.540 -13.623  1.00  0.00     0.188 HD
ENDBRANCH   1  19
TORSDOF 5
ENDMDL
MODEL 4
REMARK VINA RESULT: -6.083101850      2.969      4.114
REMARK  5 active torsions:
REMARK  status: ('A' for Active; 'I' for Inactive)
REMARK       I    between atoms: C1_2  and  N2_4 
REMARK    1  A    between atoms: N2_4  and  C2_6 
REMARK    2  A    between atoms: C5_11  and  N4_12 
REMARK    3  A    between atoms: N4_12  and  C6_14 
REMARK    4  A    between atoms: C6_14  and  N5_15 
REMARK    5  A    between atoms: C6_14  and  C7_19 
ROOT
HETATM    1  C2  UNL     1      37.533  17.625 -15.588  1.00  0.00     0.687 A 
HETATM    2  N3  UNL     1      37.269  17.118 -14.373  1.00  0.00    -0.201 N 
ATOM      3  H3  UNL     1      38.033  17.008 -13.706  1.00  0.00     0.183 HD
HETATM    4  C3  UNL     1      36.030  16.753 -14.009  1.00  0.00     0.110 A 
HETATM    5  C4  UNL     1      34.967  16.885 -14.878  1.00  0.00     0.066 A 
HETATM    6  C5  UNL     1      35.223  17.403 -16.129  1.00  0.00     0.120 A 
HETATM    7  N7  UNL     1      36.506  17.756 -16.438  1.00  0.00    -0.177 N 
ATOM      8  H7  UNL     1      36.691  18.139 -17.364  1.00  0.00     0.186 HD
ENDROOT
BRANCH   6   9
HETATM    9  N4  UNL     1      34.305  17.560 -16.991  1.00  0.00    -0.341 N 
ATOM     10  H4  UNL     1      33.745  16.728 -17.175  1.00  0.00     0.163 HD
BRANCH   9  11
HETATM   11  C6  UNL     1      33.934  18.700 -17.738  1.00  0.00     0.373 C 
BRANCH  11  12
HETATM   12  N5  UNL     1      35.047  19.332 -18.432  1.00  0.00    -0.050 N 
ATOM     13  H53 UNL     1      35.630  19.853 -17.779  1.00  0.00     0.277 HD
ATOM     14  H52 UNL     1      35.721  18.633 -18.743  1.00  0.00     0.277 HD
ATOM     15  H51 UNL     1      34.760  19.926 -19.211  1.00  0.00     0.277 HD
ENDBRANCH  11  12
BRANCH  11  16
HETATM   16  C7  UNL     1      33.121  19.695 -16.973  1.00  0.00     0.281 C 
HETATM   17  N6  UNL     1      31.990  20.287 -17.554  1.00  0.00    -0.059 NA
HETATM   18  O2  UNL     1      33.478  19.981 -15.804  1.00  0.00    -0.273 OA
ENDBRANCH  11  16
ENDBRANCH   9  11
ENDBRANCH   6   9
BRANCH   1  19
HETATM   19  N2  UNL     1      38.742  17.968 -15.907  1.00  0.00    -0.143 N 
HETATM   20  C1  UNL     1      39.498  18.794 -15.032  1.00  0.00     0.346 C 
HETATM   21  N1  UNL     1      39.598  20.195 -15.177  1.00  0.00    -0.039 NA
HETATM   22  O1  UNL     1      40.120  18.267 -14.066  1.00  0.00    -0.250 OA
ATOM     23  H2  UNL     1      39.151  17.645 -16.785  1.00  0.00     0.188 HD
ENDBRANCH   1  19
TORSDOF 5
ENDMDL
MODEL 5
REMARK VINA RESULT: -6.068716398      2.531      3.176
REMARK  5 active torsions:
REMARK  status: ('A' for Active; 'I' for Inactive)
REMARK       I    between atoms: C1_2  and  N2_4 
REMARK    1  A    between atoms: N2_4  and  C2_6 
REMARK    2  A    between atoms: C5_11  and  N4_12 
REMARK    3  A    between atoms: N4_12  and  C6_14 
REMARK    4  A    between atoms: C6_14  and  N5_15 
REMARK    5  A    between atoms: C6_14  and  C7_19 
ROOT
HETATM    1  C2  UNL     1      39.712  18.496 -14.576  1.00  0.00     0.687 A 
HETATM    2  N3  UNL     1      39.639  17.308 -13.953  1.00  0.00    -0.201 N 
ATOM      3  H3  UNL     1      40.407  17.018 -13.348  1.00  0.00     0.183 HD
HETATM    4  C3  UNL     1      38.585  16.492 -14.103  1.00  0.00     0.110 A 
HETATM    5  C4  UNL     1      37.523  16.845 -14.911  1.00  0.00     0.066 A 
HETATM    6  C5  UNL     1      37.585  18.060 -15.556  1.00  0.00     0.120 A 
HETATM    7  N7  UNL     1      38.686  18.845 -15.362  1.00  0.00    -0.177 N 
ATOM      8  H7  UNL     1      38.728  19.744 -15.841  1.00  0.00     0.186 HD
ENDROOT
BRANCH   6   9
HETATM    9  N4  UNL     1      36.654  18.464 -16.318  1.00  0.00    -0.341 N 
ATOM     10  H4  UNL     1      36.893  19.272 -16.893  1.00  0.00     0.163 HD
BRANCH   9  11
HETATM   11  C6  UNL     1      35.342  17.976 -16.499  1.00  0.00     0.373 C 
BRANCH  11  12
HETATM   12  N5  UNL     1      34.920  17.933 -17.892  1.00  0.00    -0.050 N 
ATOM     13  H53 UNL     1      35.274  18.742 -18.401  1.00  0.00     0.277 HD
ATOM     14  H52 UNL     1      35.408  17.190 -18.393  1.00  0.00     0.277 HD
ATOM     15  H51 UNL     1      33.911  17.845 -18.013  1.00  0.00     0.277 HD
ENDBRANCH  11  12
BRANCH  11  16
HETATM   16  C7  UNL     1      34.318  18.634 -15.630  1.00  0.00     0.281 C 
HETATM   17  N6  UNL     1      33.536  19.688 -16.124  1.00  0.00    -0.059 NA
HETATM   18  O2  UNL     1      34.180  18.217 -14.454  1.00  0.00    -0.273 OA
ENDBRANCH  11  16
ENDBRANCH   9  11
ENDBRANCH   6   9
BRANCH   1  19
HETATM   19  N2  UNL     1      40.746  19.261 -14.408  1.00  0.00    -0.143 N 
HETATM   20  C1  UNL     1      41.985  18.697 -14.001  1.00  0.00     0.346 C 
HETATM   21  N1  UNL     1      42.421  18.660 -12.659  1.00  0.00    -0.039 NA
HETATM   22  O1  UNL     1      42.753  18.195 -14.871  1.00  0.00    -0.250 OA
ATOM     23  H2  UNL     1      40.671  20.266 -14.568  1.00  0.00     0.188 HD
ENDBRANCH   1  19
TORSDOF 5
ENDMDL
