MODEL 1
REMARK VINA RESULT: -6.591191377      0.000      0.000
REMARK  2 active torsions:
REMARK  status: ('A' for Active; 'I' for Inactive)
REMARK    1  A    between atoms: N3_11  and  C5_12 
REMARK    2  A    between atoms: C5_12  and  C6_13 
ROOT
HETATM    1  C1  UNL     1      39.229  19.664 -15.068  1.00  0.00     0.050 C 
HETATM    2  C2  UNL     1      39.320  18.427 -15.563  1.00  0.00     0.115 A 
HETATM    3  C3  UNL     1      40.467  17.870 -16.261  1.00  0.00     0.286 A 
HETATM    4  O1  UNL     1      41.556  18.413 -16.528  1.00  0.00    -0.265 OA
HETATM    5  N1  UNL     1      40.132  16.520 -16.616  1.00  0.00    -0.154 N 
ATOM      6  H1  UNL     1      40.736  15.867 -17.116  1.00  0.00     0.187 HD
HETATM    7  C4  UNL     1      38.821  16.250 -16.154  1.00  0.00     0.685 A 
HETATM    8  N2  UNL     1      38.165  15.133 -16.285  1.00  0.00    -0.234 N 
ATOM      9  H21 UNL     1      37.221  14.939 -15.952  1.00  0.00     0.174 HD
ATOM     10  H22 UNL     1      38.517  14.294 -16.746  1.00  0.00     0.174 HD
HETATM   11  N3  UNL     1      38.325  17.434 -15.504  1.00  0.00    -0.151 N 
ENDROOT
BRANCH  11  12
HETATM   12  C5  UNL     1      37.048  17.530 -14.921  1.00  0.00     0.151 C 
BRANCH  12  13
HETATM   13  C6  UNL     1      35.944  17.775 -15.640  1.00  0.00     0.119 A 
HETATM   14  N4  UNL     1      35.566  18.978 -16.102  1.00  0.00    -0.338 N 
HETATM   15  C7  UNL     1      34.413  18.847 -16.777  1.00  0.00     0.098 A 
ATOM     16  H4  UNL     1      36.074  19.851 -15.964  1.00  0.00     0.167 HD
HETATM   17  C8  UNL     1      33.721  19.797 -17.382  1.00  0.00     0.063 C 
HETATM   18  N5  UNL     1      34.063  17.549 -16.739  1.00  0.00    -0.308 N 
HETATM   19  C9  UNL     1      34.991  16.875 -16.044  1.00  0.00     0.275 A 
ATOM     20  H5  UNL     1      33.231  17.143 -17.168  1.00  0.00     0.170 HD
HETATM   21  O2  UNL     1      35.013  15.623 -15.789  1.00  0.00    -0.266 OA
ENDBRANCH  12  13
ENDBRANCH  11  12
TORSDOF 2
ENDMDL
MODEL 2
REMARK VINA RESULT: -6.439062888      1.382      1.804
REMARK  2 active torsions:
REMARK  status: ('A' for Active; 'I' for Inactive)
REMARK    1  A    between atoms: N3_11  and  C5_12 
REMARK    2  A    between atoms: C5_12  and  C6_13 
ROOT
HETATM    1  C1  UNL     1      40.203  17.230 -17.281  1.00  0.00     0.050 C 
HETATM    2  C2  UNL     1      39.741  17.081 -16.036  1.00  0.00     0.115 A 
HETATM    3  C3  UNL     1      40.486  17.331 -14.814  1.00  0.00     0.286 A 
HETATM    4  O1  UNL     1      41.663  17.721 -14.684  1.00  0.00    -0.265 OA
HETATM    5  N1  UNL     1      39.609  17.043 -13.715  1.00  0.00    -0.154 N 
ATOM      6  H1  UNL     1      39.844  17.124 -12.726  1.00  0.00     0.187 HD
HETATM    7  C4  UNL     1      38.360  16.628 -14.240  1.00  0.00     0.685 A 
HETATM    8  N2  UNL     1      37.307  16.281 -13.558  1.00  0.00    -0.234 N 
ATOM      9  H21 UNL     1      36.408  15.982 -13.936  1.00  0.00     0.174 HD
ATOM     10  H22 UNL     1      37.244  16.263 -12.540  1.00  0.00     0.174 HD
HETATM   11  N3  UNL     1      38.450  16.653 -15.676  1.00  0.00    -0.151 N 
ENDROOT
BRANCH  11  12
HETATM   12  C5  UNL     1      37.391  16.300 -16.532  1.00  0.00     0.151 C 
BRANCH  12  13
HETATM   13  C6  UNL     1      36.230  16.969 -16.555  1.00  0.00     0.119 A 
HETATM   14  N4  UNL     1      36.033  18.170 -17.123  1.00  0.00    -0.338 N 
HETATM   15  C7  UNL     1      34.752  18.533 -16.952  1.00  0.00     0.098 A 
ATOM     16  H4  UNL     1      36.744  18.719 -17.607  1.00  0.00     0.167 HD
HETATM   17  C8  UNL     1      34.167  19.644 -17.365  1.00  0.00     0.063 C 
HETATM   18  N5  UNL     1      34.137  17.549 -16.271  1.00  0.00    -0.308 N 
HETATM   19  C9  UNL     1      35.029  16.581 -16.018  1.00  0.00     0.275 A 
ATOM     20  H5  UNL     1      33.155  17.541 -15.994  1.00  0.00     0.170 HD
HETATM   21  O2  UNL     1      34.828  15.484 -15.394  1.00  0.00    -0.266 OA
ENDBRANCH  12  13
ENDBRANCH  11  12
TORSDOF 2
ENDMDL
MODEL 3
REMARK VINA RESULT: -6.424923432      1.520      1.589
REMARK  2 active torsions:
REMARK  status: ('A' for Active; 'I' for Inactive)
REMARK    1  A    between atoms: N3_11  and  C5_12 
REMARK    2  A    between atoms: C5_12  and  C6_13 
ROOT
HETATM    1  C1  UNL     1      38.658  18.686 -15.006  1.00  0.00     0.050 C 
HETATM    2  C2  UNL     1      38.991  17.393 -15.035  1.00  0.00     0.115 A 
HETATM    3  C3  UNL     1      39.983  16.747 -14.192  1.00  0.00     0.286 A 
HETATM    4  O1  UNL     1      40.698  17.252 -13.304  1.00  0.00    -0.265 OA
HETATM    5  N1  UNL     1      40.016  15.361 -14.560  1.00  0.00    -0.154 N 
ATOM      6  H1  UNL     1      40.615  14.647 -14.145  1.00  0.00     0.187 HD
HETATM    7  C4  UNL     1      39.074  15.153 -15.598  1.00  0.00     0.685 A 
HETATM    8  N2  UNL     1      38.812  14.027 -16.196  1.00  0.00    -0.234 N 
ATOM      9  H21 UNL     1      38.134  13.878 -16.943  1.00  0.00     0.174 HD
ATOM     10  H22 UNL     1      39.259  13.133 -15.991  1.00  0.00     0.174 HD
HETATM   11  N3  UNL     1      38.444  16.415 -15.886  1.00  0.00    -0.151 N 
ENDROOT
BRANCH  11  12
HETATM   12  C5  UNL     1      37.451  16.586 -16.868  1.00  0.00     0.151 C 
BRANCH  12  13
HETATM   13  C6  UNL     1      36.264  17.148 -16.600  1.00  0.00     0.119 A 
HETATM   14  N4  UNL     1      35.870  18.367 -17.005  1.00  0.00    -0.338 N 
HETATM   15  C7  UNL     1      34.627  18.599 -16.553  1.00  0.00     0.098 A 
ATOM     16  H4  UNL     1      36.425  19.012 -17.566  1.00  0.00     0.167 HD
HETATM   17  C8  UNL     1      33.891  19.682 -16.738  1.00  0.00     0.063 C 
HETATM   18  N5  UNL     1      34.236  17.515 -15.858  1.00  0.00    -0.308 N 
HETATM   19  C9  UNL     1      35.229  16.614 -15.876  1.00  0.00     0.275 A 
ATOM     20  H5  UNL     1      33.335  17.398 -15.396  1.00  0.00     0.170 HD
HETATM   21  O2  UNL     1      35.239  15.459 -15.328  1.00  0.00    -0.266 OA
ENDBRANCH  12  13
ENDBRANCH  11  12
TORSDOF 2
ENDMDL
MODEL 4
REMARK VINA RESULT: -6.385912252      1.657      1.710
REMARK  2 active torsions:
REMARK  status: ('A' for Active; 'I' for Inactive)
REMARK    1  A    between atoms: N3_11  and  C5_12 
REMARK    2  A    between atoms: C5_12  and  C6_13 
ROOT
HETATM    1  C1  UNL     1      39.897  19.229 -14.631  1.00  0.00     0.050 C 
HETATM    2  C2  UNL     1      40.193  17.927 -14.681  1.00  0.00     0.115 A 
HETATM    3  C3  UNL     1      41.521  17.358 -14.836  1.00  0.00     0.286 A 
HETATM    4  O1  UNL     1      42.613  17.948 -14.949  1.00  0.00    -0.265 OA
HETATM    5  N1  UNL     1      41.374  15.930 -14.838  1.00  0.00    -0.154 N 
ATOM      6  H1  UNL     1      42.131  15.252 -14.931  1.00  0.00     0.187 HD
HETATM    7  C4  UNL     1      39.999  15.624 -14.689  1.00  0.00     0.685 A 
HETATM    8  N2  UNL     1      39.467  14.437 -14.646  1.00  0.00    -0.234 N 
ATOM      9  H21 UNL     1      38.477  14.216 -14.539  1.00  0.00     0.174 HD
ATOM     10  H22 UNL     1      39.981  13.558 -14.714  1.00  0.00     0.174 HD
HETATM   11  N3  UNL     1      39.274  16.864 -14.593  1.00  0.00    -0.151 N 
ENDROOT
BRANCH  11  12
HETATM   12  C5  UNL     1      37.878  16.944 -14.436  1.00  0.00     0.151 C 
BRANCH  12  13
HETATM   13  C6  UNL     1      37.058  17.276 -15.443  1.00  0.00     0.119 A 
HETATM   14  N4  UNL     1      36.340  18.408 -15.522  1.00  0.00    -0.338 N 
HETATM   15  C7  UNL     1      35.634  18.402 -16.664  1.00  0.00     0.098 A 
ATOM     16  H4  UNL     1      36.331  19.153 -14.826  1.00  0.00     0.167 HD
HETATM   17  C8  UNL     1      34.808  19.334 -17.106  1.00  0.00     0.063 C 
HETATM   18  N5  UNL     1      35.914  17.255 -17.310  1.00  0.00    -0.308 N 
HETATM   19  C9  UNL     1      36.786  16.551 -16.574  1.00  0.00     0.275 A 
ATOM     20  H5  UNL     1      35.527  16.969 -18.209  1.00  0.00     0.170 HD
HETATM   21  O2  UNL     1      37.291  15.409 -16.851  1.00  0.00    -0.266 OA
ENDBRANCH  12  13
ENDBRANCH  11  12
TORSDOF 2
ENDMDL
MODEL 5
REMARK VINA RESULT: -6.313593719      1.564      1.900
REMARK  2 active torsions:
REMARK  status: ('A' for Active; 'I' for Inactive)
REMARK    1  A    between atoms: N3_11  and  C5_12 
REMARK    2  A    between atoms: C5_12  and  C6_13 
ROOT
HETATM    1  C1  UNL     1      37.970  16.511 -13.583  1.00  0.00     0.050 C 
HETATM    2  C2  UNL     1      38.836  16.812 -14.555  1.00  0.00     0.115 A 
HETATM    3  C3  UNL     1      40.181  17.330 -14.370  1.00  0.00     0.286 A 
HETATM    4  O1  UNL     1      40.777  17.588 -13.306  1.00  0.00    -0.265 OA
HETATM    5  N1  UNL     1      40.751  17.509 -15.675  1.00  0.00    -0.154 N 
ATOM      6  H1  UNL     1      41.687  17.860 -15.875  1.00  0.00     0.187 HD
HETATM    7  C4  UNL     1      39.789  17.115 -16.638  1.00  0.00     0.685 A 
HETATM    8  N2  UNL     1      39.933  17.132 -17.931  1.00  0.00    -0.234 N 
ATOM      9  H21 UNL     1      39.241  16.848 -18.625  1.00  0.00     0.174 HD
ATOM     10  H22 UNL     1      40.771  17.436 -18.428  1.00  0.00     0.174 HD
HETATM   11  N3  UNL     1      38.607  16.686 -15.938  1.00  0.00    -0.151 N 
ENDROOT
BRANCH  11  12
HETATM   12  C5  UNL     1      37.443  16.223 -16.579  1.00  0.00     0.151 C 
BRANCH  12  13
HETATM   13  C6  UNL     1      36.291  16.907 -16.561  1.00  0.00     0.119 A 
HETATM   14  N4  UNL     1      36.088  18.108 -17.126  1.00  0.00    -0.338 N 
HETATM   15  C7  UNL     1      34.819  18.488 -16.908  1.00  0.00     0.098 A 
ATOM     16  H4  UNL     1      36.786  18.646 -17.639  1.00  0.00     0.167 HD
HETATM   17  C8  UNL     1      34.233  19.605 -17.303  1.00  0.00     0.063 C 
HETATM   18  N5  UNL     1      34.218  17.515 -16.200  1.00  0.00    -0.308 N 
HETATM   19  C9  UNL     1      35.107  16.536 -15.976  1.00  0.00     0.275 A 
ATOM     20  H5  UNL     1      33.248  17.520 -15.885  1.00  0.00     0.170 HD
HETATM   21  O2  UNL     1      34.916  15.444 -15.340  1.00  0.00    -0.266 OA
ENDBRANCH  12  13
ENDBRANCH  11  12
TORSDOF 2
ENDMDL
