MODEL 1
REMARK VINA RESULT: -7.873090524      0.000      0.000
REMARK  5 active torsions:
REMARK  status: ('A' for Active; 'I' for Inactive)
REMARK       I    between atoms: C2_2  and  N1_4 
REMARK    1  A    between atoms: C6_8  and  N2_9 
REMARK       I    between atoms: N2_9  and  C7_11 
REMARK    2  A    between atoms: C7_11  and  C8_13 
REMARK    3  A    between atoms: C8_13  and  C9_14 
REMARK    4  A    between atoms: C8_13  and  C14_22 
REMARK    5  A    between atoms: C9_14  and  N3_15 
ROOT
HETATM    1  C8  UNL     1      48.098  50.715  37.219  1.00  0.00     0.110 C 
ENDROOT
BRANCH   1   2
HETATM    2  C7  UNL     1      49.366  50.886  36.436  1.00  0.00     0.224 C 
HETATM    3  N2  UNL     1      50.071  49.773  35.926  1.00  0.00    -0.354 N 
ATOM      4  H2  UNL     1      49.724  48.829  36.093  1.00  0.00     0.162 HD
HETATM    5  O2  UNL     1      49.766  52.060  36.254  1.00  0.00    -0.273 OA
BRANCH   3   6
HETATM    6  C6  UNL     1      51.273  49.971  35.175  1.00  0.00     0.102 C 
HETATM    7  C5  UNL     1      52.420  49.635  36.155  1.00  0.00     0.028 C 
HETATM    8  C4  UNL     1      53.656  50.237  35.471  1.00  0.00     0.022 C 
HETATM    9  C3  UNL     1      53.931  49.410  34.261  1.00  0.00     0.126 C 
HETATM   10  N1  UNL     1      52.792  48.599  33.835  1.00  0.00    -0.350 N 
HETATM   11  C2  UNL     1      53.073  47.352  33.242  1.00  0.00     0.215 C 
HETATM   12  C20 UNL     1      51.433  49.031  33.999  1.00  0.00     0.150 C 
HETATM   13  C1  UNL     1      52.066  46.392  32.734  1.00  0.00     0.117 C 
HETATM   14  O1  UNL     1      54.295  46.972  33.106  1.00  0.00    -0.274 OA
ENDBRANCH   3   6
ENDBRANCH   1   2
BRANCH   1  15
HETATM   15  C9  UNL     1      46.964  50.379  36.321  1.00  0.00     0.287 C 
BRANCH  15  16
HETATM   16  N3  UNL     1      47.183  50.064  34.973  1.00  0.00     0.095 N 
HETATM   17  C10 UNL     1      46.847  51.271  34.180  1.00  0.00     0.278 C 
HETATM   18  C11 UNL     1      45.392  51.139  33.915  1.00  0.00     0.111 C 
HETATM   19  C12 UNL     1      45.332  49.672  33.488  1.00  0.00     0.271 C 
HETATM   20  F1  UNL     1      44.091  49.169  33.803  1.00  0.00    -0.204 F 
HETATM   21  F2  UNL     1      45.615  49.627  32.140  1.00  0.00    -0.204 F 
HETATM   22  C13 UNL     1      46.442  49.044  34.323  1.00  0.00     0.351 C 
ENDBRANCH  15  16
ENDBRANCH   1  15
BRANCH   1  23
HETATM   23  C14 UNL     1      48.226  49.854  38.406  1.00  0.00     0.000 C 
HETATM   24  C15 UNL     1      48.351  50.719  39.699  1.00  0.00     0.005 C 
HETATM   25  C16 UNL     1      48.838  49.728  40.737  1.00  0.00     0.000 C 
HETATM   26  C17 UNL     1      47.929  48.551  40.881  1.00  0.00     0.000 C 
HETATM   27  C18 UNL     1      46.751  48.534  39.988  1.00  0.00     0.000 C 
HETATM   28  C19 UNL     1      46.870  49.188  38.658  1.00  0.00     0.005 C 
ENDBRANCH   1  23
TORSDOF 5
ENDMDL
MODEL 2
REMARK VINA RESULT: -7.784504252      3.437      6.009
REMARK  5 active torsions:
REMARK  status: ('A' for Active; 'I' for Inactive)
REMARK       I    between atoms: C2_2  and  N1_4 
REMARK    1  A    between atoms: C6_8  and  N2_9 
REMARK       I    between atoms: N2_9  and  C7_11 
REMARK    2  A    between atoms: C7_11  and  C8_13 
REMARK    3  A    between atoms: C8_13  and  C9_14 
REMARK    4  A    between atoms: C8_13  and  C14_22 
REMARK    5  A    between atoms: C9_14  and  N3_15 
ROOT
HETATM    1  C8  UNL     1      47.984  49.796  36.954  1.00  0.00     0.110 C 
ENDROOT
BRANCH   1   2
HETATM    2  C7  UNL     1      47.229  50.749  36.076  1.00  0.00     0.224 C 
HETATM    3  N2  UNL     1      47.040  50.490  34.701  1.00  0.00    -0.354 N 
ATOM      4  H2  UNL     1      47.425  49.643  34.283  1.00  0.00     0.162 HD
HETATM    5  O2  UNL     1      46.774  51.783  36.621  1.00  0.00    -0.273 OA
BRANCH   3   6
HETATM    6  C6  UNL     1      46.307  51.416  33.893  1.00  0.00     0.102 C 
HETATM    7  C5  UNL     1      47.382  52.222  33.128  1.00  0.00     0.028 C 
HETATM    8  C4  UNL     1      46.606  53.440  32.606  1.00  0.00     0.022 C 
HETATM    9  C3  UNL     1      45.675  52.945  31.551  1.00  0.00     0.126 C 
HETATM   10  N1  UNL     1      45.444  51.503  31.605  1.00  0.00    -0.350 N 
HETATM   11  C2  UNL     1      45.220  50.839  30.382  1.00  0.00     0.215 C 
HETATM   12  C20 UNL     1      45.436  50.768  32.838  1.00  0.00     0.150 C 
HETATM   13  C1  UNL     1      44.955  49.390  30.223  1.00  0.00     0.117 C 
HETATM   14  O1  UNL     1      45.237  51.506  29.282  1.00  0.00    -0.274 OA
ENDBRANCH   3   6
ENDBRANCH   1   2
BRANCH   1  15
HETATM   15  C9  UNL     1      49.449  50.019  36.837  1.00  0.00     0.287 C 
BRANCH  15  16
HETATM   16  N3  UNL     1      49.972  50.849  35.837  1.00  0.00     0.095 N 
HETATM   17  C10 UNL     1      50.564  49.970  34.801  1.00  0.00     0.278 C 
HETATM   18  C11 UNL     1      51.957  49.745  35.264  1.00  0.00     0.111 C 
HETATM   19  C12 UNL     1      52.347  51.177  35.634  1.00  0.00     0.271 C 
HETATM   20  F1  UNL     1      53.291  51.136  36.633  1.00  0.00    -0.204 F 
HETATM   21  F2  UNL     1      52.793  51.789  34.482  1.00  0.00    -0.204 F 
HETATM   22  C13 UNL     1      51.023  51.763  36.111  1.00  0.00     0.351 C 
ENDBRANCH  15  16
ENDBRANCH   1  15
BRANCH   1  23
HETATM   23  C14 UNL     1      47.478  49.706  38.333  1.00  0.00     0.000 C 
HETATM   24  C15 UNL     1      47.610  48.248  38.871  1.00  0.00     0.005 C 
HETATM   25  C16 UNL     1      46.732  48.248  40.106  1.00  0.00     0.000 C 
HETATM   26  C17 UNL     1      47.129  49.296  41.094  1.00  0.00     0.000 C 
HETATM   27  C18 UNL     1      48.266  50.156  40.700  1.00  0.00     0.000 C 
HETATM   28  C19 UNL     1      48.474  50.422  39.252  1.00  0.00     0.005 C 
ENDBRANCH   1  23
TORSDOF 5
ENDMDL
MODEL 3
REMARK VINA RESULT: -7.782713073      1.979      2.021
REMARK  5 active torsions:
REMARK  status: ('A' for Active; 'I' for Inactive)
REMARK       I    between atoms: C2_2  and  N1_4 
REMARK    1  A    between atoms: C6_8  and  N2_9 
REMARK       I    between atoms: N2_9  and  C7_11 
REMARK    2  A    between atoms: C7_11  and  C8_13 
REMARK    3  A    between atoms: C8_13  and  C9_14 
REMARK    4  A    between atoms: C8_13  and  C14_22 
REMARK    5  A    between atoms: C9_14  and  N3_15 
ROOT
HETATM    1  C8  UNL     1      48.070  50.759  37.370  1.00  0.00     0.110 C 
ENDROOT
BRANCH   1   2
HETATM    2  C7  UNL     1      49.357  51.406  36.954  1.00  0.00     0.224 C 
HETATM    3  N2  UNL     1      50.416  50.651  36.404  1.00  0.00    -0.354 N 
ATOM      4  H2  UNL     1      50.318  49.643  36.288  1.00  0.00     0.162 HD
HETATM    5  O2  UNL     1      49.446  52.646  37.115  1.00  0.00    -0.273 OA
BRANCH   3   6
HETATM    6  C6  UNL     1      51.629  51.301  36.010  1.00  0.00     0.102 C 
HETATM    7  C5  UNL     1      52.717  50.207  36.089  1.00  0.00     0.028 C 
HETATM    8  C4  UNL     1      54.027  51.009  36.064  1.00  0.00     0.022 C 
HETATM    9  C3  UNL     1      54.160  51.583  34.695  1.00  0.00     0.126 C 
HETATM   10  N1  UNL     1      52.905  51.607  33.945  1.00  0.00    -0.350 N 
HETATM   11  C2  UNL     1      52.984  51.437  32.548  1.00  0.00     0.215 C 
HETATM   12  C20 UNL     1      51.632  51.796  34.579  1.00  0.00     0.150 C 
HETATM   13  C1  UNL     1      51.837  51.442  31.612  1.00  0.00     0.117 C 
HETATM   14  O1  UNL     1      54.131  51.261  31.991  1.00  0.00    -0.274 OA
ENDBRANCH   3   6
ENDBRANCH   1   2
BRANCH   1  15
HETATM   15  C9  UNL     1      47.369  50.176  36.197  1.00  0.00     0.287 C 
BRANCH  15  16
HETATM   16  N3  UNL     1      47.238  50.900  35.005  1.00  0.00     0.095 N 
HETATM   17  C10 UNL     1      45.793  51.169  34.810  1.00  0.00     0.278 C 
HETATM   18  C11 UNL     1      45.296  49.978  34.074  1.00  0.00     0.111 C 
HETATM   19  C12 UNL     1      46.391  49.846  33.015  1.00  0.00     0.271 C 
HETATM   20  F1  UNL     1      46.499  48.525  32.651  1.00  0.00    -0.204 F 
HETATM   21  F2  UNL     1      46.050  50.677  31.969  1.00  0.00    -0.204 F 
HETATM   22  C13 UNL     1      47.625  50.347  33.757  1.00  0.00     0.351 C 
ENDBRANCH  15  16
ENDBRANCH   1  15
BRANCH   1  23
HETATM   23  C14 UNL     1      48.185  49.863  38.532  1.00  0.00     0.000 C 
HETATM   24  C15 UNL     1      48.323  50.689  39.848  1.00  0.00     0.005 C 
HETATM   25  C16 UNL     1      48.795  49.662  40.858  1.00  0.00     0.000 C 
HETATM   26  C17 UNL     1      47.869  48.495  40.969  1.00  0.00     0.000 C 
HETATM   27  C18 UNL     1      46.691  48.520  40.077  1.00  0.00     0.000 C 
HETATM   28  C19 UNL     1      46.819  49.210  38.765  1.00  0.00     0.005 C 
ENDBRANCH   1  23
TORSDOF 5
ENDMDL
MODEL 4
REMARK VINA RESULT: -7.658606533      6.292      9.495
REMARK  5 active torsions:
REMARK  status: ('A' for Active; 'I' for Inactive)
REMARK       I    between atoms: C2_2  and  N1_4 
REMARK    1  A    between atoms: C6_8  and  N2_9 
REMARK       I    between atoms: N2_9  and  C7_11 
REMARK    2  A    between atoms: C7_11  and  C8_13 
REMARK    3  A    between atoms: C8_13  and  C9_14 
REMARK    4  A    between atoms: C8_13  and  C14_22 
REMARK    5  A    between atoms: C9_14  and  N3_15 
ROOT
HETATM    1  C8  UNL     1      55.559  46.743  34.582  1.00  0.00     0.110 C 
ENDROOT
BRANCH   1   2
HETATM    2  C7  UNL     1      55.394  48.032  35.329  1.00  0.00     0.224 C 
HETATM    3  N2  UNL     1      56.048  49.213  34.912  1.00  0.00    -0.354 N 
ATOM      4  H2  UNL     1      56.652  49.198  34.091  1.00  0.00     0.162 HD
HETATM    5  O2  UNL     1      54.647  48.013  36.336  1.00  0.00    -0.273 OA
BRANCH   3   6
HETATM    6  C6  UNL     1      55.863  50.429  35.643  1.00  0.00     0.102 C 
HETATM    7  C5  UNL     1      56.563  51.518  34.798  1.00  0.00     0.028 C 
HETATM    8  C4  UNL     1      56.701  52.691  35.779  1.00  0.00     0.022 C 
HETATM    9  C3  UNL     1      55.328  53.220  36.022  1.00  0.00     0.126 C 
HETATM   10  N1  UNL     1      54.267  52.284  35.654  1.00  0.00    -0.350 N 
HETATM   11  C2  UNL     1      53.062  52.832  35.170  1.00  0.00     0.215 C 
HETATM   12  C20 UNL     1      54.417  50.862  35.773  1.00  0.00     0.150 C 
HETATM   13  C1  UNL     1      51.868  52.060  34.758  1.00  0.00     0.117 C 
HETATM   14  O1  UNL     1      52.941  54.108  35.061  1.00  0.00    -0.274 OA
ENDBRANCH   3   6
ENDBRANCH   1   2
BRANCH   1  15
HETATM   15  C9  UNL     1      56.318  45.757  35.394  1.00  0.00     0.287 C 
BRANCH  15  16
HETATM   16  N3  UNL     1      57.652  45.453  35.092  1.00  0.00     0.095 N 
HETATM   17  C10 UNL     1      58.465  45.814  36.278  1.00  0.00     0.278 C 
HETATM   18  C11 UNL     1      58.803  47.245  36.066  1.00  0.00     0.111 C 
HETATM   19  C12 UNL     1      59.228  47.202  34.598  1.00  0.00     0.271 C 
HETATM   20  F1  UNL     1      58.974  48.427  34.027  1.00  0.00    -0.204 F 
HETATM   21  F2  UNL     1      60.559  46.849  34.568  1.00  0.00    -0.204 F 
HETATM   22  C13 UNL     1      58.337  46.103  34.032  1.00  0.00     0.351 C 
ENDBRANCH  15  16
ENDBRANCH   1  15
BRANCH   1  23
HETATM   23  C14 UNL     1      54.320  46.225  33.977  1.00  0.00     0.000 C 
HETATM   24  C15 UNL     1      53.647  47.317  33.089  1.00  0.00     0.005 C 
HETATM   25  C16 UNL     1      52.252  46.772  32.861  1.00  0.00     0.000 C 
HETATM   26  C17 UNL     1      52.259  45.411  32.245  1.00  0.00     0.000 C 
HETATM   27  C18 UNL     1      53.593  44.824  31.994  1.00  0.00     0.000 C 
HETATM   28  C19 UNL     1      54.708  45.205  32.901  1.00  0.00     0.005 C 
ENDBRANCH   1  23
TORSDOF 5
ENDMDL
MODEL 5
REMARK VINA RESULT: -7.633525074      3.616      7.086
REMARK  5 active torsions:
REMARK  status: ('A' for Active; 'I' for Inactive)
REMARK       I    between atoms: C2_2  and  N1_4 
REMARK    1  A    between atoms: C6_8  and  N2_9 
REMARK       I    between atoms: N2_9  and  C7_11 
REMARK    2  A    between atoms: C7_11  and  C8_13 
REMARK    3  A    between atoms: C8_13  and  C9_14 
REMARK    4  A    between atoms: C8_13  and  C14_22 
REMARK    5  A    between atoms: C9_14  and  N3_15 
ROOT
HETATM    1  C8  UNL     1      48.180  50.620  36.382  1.00  0.00     0.110 C 
ENDROOT
BRANCH   1   2
HETATM    2  C7  UNL     1      47.272  50.075  35.320  1.00  0.00     0.224 C 
HETATM    3  N2  UNL     1      46.747  50.903  34.304  1.00  0.00    -0.354 N 
ATOM      4  H2  UNL     1      46.979  51.896  34.285  1.00  0.00     0.162 HD
HETATM    5  O2  UNL     1      47.005  48.851  35.377  1.00  0.00    -0.273 OA
BRANCH   3   6
HETATM    6  C6  UNL     1      45.890  50.349  33.301  1.00  0.00     0.102 C 
HETATM    7  C5  UNL     1      44.507  50.991  33.552  1.00  0.00     0.028 C 
HETATM    8  C4  UNL     1      43.550  50.094  32.753  1.00  0.00     0.022 C 
HETATM    9  C3  UNL     1      43.829  50.338  31.309  1.00  0.00     0.126 C 
HETATM   10  N1  UNL     1      45.125  50.966  31.060  1.00  0.00    -0.350 N 
HETATM   11  C2  UNL     1      45.217  51.845  29.962  1.00  0.00     0.215 C 
HETATM   12  C20 UNL     1      46.274  50.716  31.883  1.00  0.00     0.150 C 
HETATM   13  C1  UNL     1      46.436  52.569  29.536  1.00  0.00     0.117 C 
HETATM   14  O1  UNL     1      44.178  52.068  29.235  1.00  0.00    -0.274 OA
ENDBRANCH   3   6
ENDBRANCH   1   2
BRANCH   1  15
HETATM   15  C9  UNL     1      47.678  50.271  37.736  1.00  0.00     0.287 C 
BRANCH  15  16
HETATM   16  N3  UNL     1      48.381  49.378  38.555  1.00  0.00     0.095 N 
HETATM   17  C10 UNL     1      47.520  48.188  38.751  1.00  0.00     0.278 C 
HETATM   18  C11 UNL     1      46.690  48.530  39.934  1.00  0.00     0.111 C 
HETATM   19  C12 UNL     1      47.769  49.088  40.863  1.00  0.00     0.271 C 
HETATM   20  F1  UNL     1      47.196  50.012  41.705  1.00  0.00    -0.204 F 
HETATM   21  F2  UNL     1      48.331  48.017  41.525  1.00  0.00    -0.204 F 
HETATM   22  C13 UNL     1      48.746  49.724  39.882  1.00  0.00     0.351 C 
ENDBRANCH  15  16
ENDBRANCH   1  15
BRANCH   1  23
HETATM   23  C14 UNL     1      49.610  50.348  36.161  1.00  0.00     0.000 C 
HETATM   24  C15 UNL     1      49.899  50.137  34.642  1.00  0.00     0.005 C 
HETATM   25  C16 UNL     1      51.281  49.517  34.631  1.00  0.00     0.000 C 
HETATM   26  C17 UNL     1      52.297  50.361  35.330  1.00  0.00     0.000 C 
HETATM   27  C18 UNL     1      51.791  51.616  35.926  1.00  0.00     0.000 C 
HETATM   28  C19 UNL     1      50.384  51.648  36.405  1.00  0.00     0.005 C 
ENDBRANCH   1  23
TORSDOF 5
ENDMDL
