MODEL 1
REMARK VINA RESULT: -7.127823999      0.000      0.000
REMARK  9 active torsions:
REMARK  status: ('A' for Active; 'I' for Inactive)
REMARK    1  A    between atoms: C2_2  and  C3_3 
REMARK    2  A    between atoms: C3_3  and  C5_5 
REMARK    3  A    between atoms: C5_5  and  N1_6 
REMARK    4  A    between atoms: N1_6  and  C6_8 
REMARK    5  A    between atoms: C6_8  and  O1_9 
REMARK    6  A    between atoms: C6_8  and  N2_11 
REMARK    7  A    between atoms: N3_14  and  C9_15 
REMARK    8  A    between atoms: C9_15  and  C10_16 
REMARK    9  A    between atoms: N4_21  and  C13_22 
ROOT
HETATM    1  N2  UNL     1      47.572  51.587  35.483  1.00  0.00    -0.345 N 
HETATM    2  C7  UNL     1      48.336  51.485  34.276  1.00  0.00     0.146 C 
HETATM    3  C8  UNL     1      47.516  50.658  33.241  1.00  0.00     0.137 C 
HETATM    4  N3  UNL     1      46.426  51.507  32.862  1.00  0.00    -0.396 N 
HETATM    5  C18 UNL     1      45.889  52.269  33.959  1.00  0.00     0.137 C 
HETATM    6  C19 UNL     1      46.134  51.624  35.327  1.00  0.00     0.146 C 
ENDROOT
BRANCH   4   7
HETATM    7  C9  UNL     1      45.440  50.948  32.000  1.00  0.00     0.090 C 
HETATM    8  C11 UNL     1      45.142  51.929  30.898  1.00  0.00     0.067 C 
HETATM    9  C12 UNL     1      45.895  51.505  29.648  1.00  0.00     0.275 C 
HETATM   10  N4  UNL     1      45.314  50.311  29.127  1.00  0.00     0.092 N 
HETATM   11  C16 UNL     1      45.313  49.275  30.124  1.00  0.00     0.275 C 
HETATM   12  C17 UNL     1      46.052  49.687  31.375  1.00  0.00     0.067 C 
BRANCH   7  13
HETATM   13  C10 UNL     1      44.165  50.492  32.617  1.00  0.00     0.380 C 
HETATM   14  F1  UNL     1      43.094  50.372  31.785  1.00  0.00    -0.212 F 
HETATM   15  F2  UNL     1      44.333  49.394  33.468  1.00  0.00    -0.212 F 
ENDBRANCH   7  13
BRANCH  10  16
HETATM   16  C13 UNL     1      44.038  50.504  28.522  1.00  0.00     0.215 C 
HETATM   17  C14 UNL     1      44.170  51.378  27.290  1.00  0.00     0.042 C 
HETATM   18  C15 UNL     1      43.501  49.154  28.051  1.00  0.00     0.042 C 
ENDBRANCH  10  16
ENDBRANCH   4   7
BRANCH   1  19
HETATM   19  C6  UNL     1      48.161  51.639  36.741  1.00  0.00     0.215 C 
BRANCH  19  20
HETATM   20  N1  UNL     1      48.563  50.514  37.477  1.00  0.00    -0.356 N 
ATOM     21  H1  UNL     1      49.125  49.790  37.031  1.00  0.00     0.163 HD
BRANCH  20  22
HETATM   22  C5  UNL     1      48.183  50.378  38.860  1.00  0.00     0.127 C 
BRANCH  22  23
HETATM   23  C3  UNL     1      47.166  49.283  38.981  1.00  0.00    -0.001 C 
HETATM   24  C4  UNL     1      47.552  48.163  38.030  1.00  0.00     0.011 C 
BRANCH  23  25
HETATM   25  C2  UNL     1      47.063  48.767  40.403  1.00  0.00     0.001 C 
HETATM   26  C1  UNL     1      48.332  49.233  41.123  1.00  0.00     0.005 C 
ENDBRANCH  23  25
ENDBRANCH  22  23
ENDBRANCH  20  22
ENDBRANCH  19  20
BRANCH  19  27
HETATM   27  O1  UNL     1      48.359  52.801  37.293  1.00  0.00    -0.333 OA
ATOM     28  H1  UNL     1      47.837  53.005  38.061  1.00  0.00     0.220 HD
ENDBRANCH  19  27
ENDBRANCH   1  19
TORSDOF 9
ENDMDL
MODEL 2
REMARK VINA RESULT: -6.886127246      1.081      1.675
REMARK  9 active torsions:
REMARK  status: ('A' for Active; 'I' for Inactive)
REMARK    1  A    between atoms: C2_2  and  C3_3 
REMARK    2  A    between atoms: C3_3  and  C5_5 
REMARK    3  A    between atoms: C5_5  and  N1_6 
REMARK    4  A    between atoms: N1_6  and  C6_8 
REMARK    5  A    between atoms: C6_8  and  O1_9 
REMARK    6  A    between atoms: C6_8  and  N2_11 
REMARK    7  A    between atoms: N3_14  and  C9_15 
REMARK    8  A    between atoms: C9_15  and  C10_16 
REMARK    9  A    between atoms: N4_21  and  C13_22 
ROOT
HETATM    1  N2  UNL     1      47.376  51.356  35.935  1.00  0.00    -0.345 N 
HETATM    2  C7  UNL     1      46.046  51.885  35.971  1.00  0.00     0.146 C 
HETATM    3  C8  UNL     1      45.607  52.220  34.515  1.00  0.00     0.137 C 
HETATM    4  N3  UNL     1      45.431  50.950  33.876  1.00  0.00    -0.396 N 
HETATM    5  C18 UNL     1      46.415  49.975  34.264  1.00  0.00     0.137 C 
HETATM    6  C19 UNL     1      47.727  50.595  34.755  1.00  0.00     0.146 C 
ENDROOT
BRANCH   4   7
HETATM    7  C9  UNL     1      45.138  50.962  32.483  1.00  0.00     0.090 C 
HETATM    8  C11 UNL     1      45.872  52.108  31.839  1.00  0.00     0.067 C 
HETATM    9  C12 UNL     1      47.120  51.571  31.160  1.00  0.00     0.275 C 
HETATM   10  N4  UNL     1      46.746  50.800  30.020  1.00  0.00     0.092 N 
HETATM   11  C16 UNL     1      45.850  49.741  30.399  1.00  0.00     0.275 C 
HETATM   12  C17 UNL     1      45.677  49.650  31.897  1.00  0.00     0.067 C 
BRANCH   7  13
HETATM   13  C10 UNL     1      43.706  51.003  32.081  1.00  0.00     0.380 C 
HETATM   14  F1  UNL     1      42.899  50.038  32.601  1.00  0.00    -0.212 F 
HETATM   15  F2  UNL     1      43.154  52.287  32.156  1.00  0.00    -0.212 F 
ENDBRANCH   7  13
BRANCH  10  16
HETATM   16  C13 UNL     1      46.259  51.579  28.929  1.00  0.00     0.215 C 
HETATM   17  C14 UNL     1      47.208  51.477  27.750  1.00  0.00     0.042 C 
HETATM   18  C15 UNL     1      44.919  51.007  28.469  1.00  0.00     0.042 C 
ENDBRANCH  10  16
ENDBRANCH   4   7
BRANCH   1  19
HETATM   19  C6  UNL     1      48.293  51.558  36.960  1.00  0.00     0.215 C 
BRANCH  19  20
HETATM   20  N1  UNL     1      48.791  50.543  37.792  1.00  0.00    -0.356 N 
ATOM     21  H1  UNL     1      49.547  49.943  37.463  1.00  0.00     0.163 HD
BRANCH  20  22
HETATM   22  C5  UNL     1      48.240  50.348  39.107  1.00  0.00     0.127 C 
BRANCH  22  23
HETATM   23  C3  UNL     1      47.158  49.313  39.034  1.00  0.00    -0.001 C 
HETATM   24  C4  UNL     1      47.601  48.224  38.071  1.00  0.00     0.011 C 
BRANCH  23  25
HETATM   25  C2  UNL     1      46.847  48.727  40.398  1.00  0.00     0.001 C 
HETATM   26  C1  UNL     1      48.151  48.788  41.199  1.00  0.00     0.005 C 
ENDBRANCH  23  25
ENDBRANCH  22  23
ENDBRANCH  20  22
ENDBRANCH  19  20
BRANCH  19  27
HETATM   27  O1  UNL     1      48.730  52.764  37.181  1.00  0.00    -0.333 OA
ATOM     28  H1  UNL     1      48.882  53.310  36.418  1.00  0.00     0.220 HD
ENDBRANCH  19  27
ENDBRANCH   1  19
TORSDOF 9
ENDMDL
MODEL 3
REMARK VINA RESULT: -6.839289743      1.683      2.194
REMARK  9 active torsions:
REMARK  status: ('A' for Active; 'I' for Inactive)
REMARK    1  A    between atoms: C2_2  and  C3_3 
REMARK    2  A    between atoms: C3_3  and  C5_5 
REMARK    3  A    between atoms: C5_5  and  N1_6 
REMARK    4  A    between atoms: N1_6  and  C6_8 
REMARK    5  A    between atoms: C6_8  and  O1_9 
REMARK    6  A    between atoms: C6_8  and  N2_11 
REMARK    7  A    between atoms: N3_14  and  C9_15 
REMARK    8  A    between atoms: C9_15  and  C10_16 
REMARK    9  A    between atoms: N4_21  and  C13_22 
ROOT
HETATM    1  N2  UNL     1      46.380  51.138  35.034  1.00  0.00    -0.345 N 
HETATM    2  C7  UNL     1      46.408  49.803  34.516  1.00  0.00     0.146 C 
HETATM    3  C8  UNL     1      45.583  49.767  33.195  1.00  0.00     0.137 C 
HETATM    4  N3  UNL     1      46.367  50.498  32.244  1.00  0.00    -0.396 N 
HETATM    5  C18 UNL     1      47.019  51.650  32.809  1.00  0.00     0.137 C 
HETATM    6  C19 UNL     1      46.315  52.201  34.053  1.00  0.00     0.146 C 
ENDROOT
BRANCH   4   7
HETATM    7  C9  UNL     1      45.786  50.723  30.964  1.00  0.00     0.090 C 
HETATM    8  C11 UNL     1      46.619  50.028  29.921  1.00  0.00     0.067 C 
HETATM    9  C12 UNL     1      45.945  48.718  29.549  1.00  0.00     0.275 C 
HETATM   10  N4  UNL     1      44.750  48.990  28.819  1.00  0.00     0.092 N 
HETATM   11  C16 UNL     1      43.876  49.839  29.583  1.00  0.00     0.275 C 
HETATM   12  C17 UNL     1      44.393  50.078  30.982  1.00  0.00     0.067 C 
BRANCH   7  13
HETATM   13  C10 UNL     1      45.551  52.134  30.553  1.00  0.00     0.380 C 
HETATM   14  F1  UNL     1      45.856  52.453  29.266  1.00  0.00    -0.212 F 
HETATM   15  F2  UNL     1      44.306  52.622  30.966  1.00  0.00    -0.212 F 
ENDBRANCH   7  13
BRANCH  10  16
HETATM   16  C13 UNL     1      44.975  49.469  27.496  1.00  0.00     0.215 C 
HETATM   17  C14 UNL     1      44.609  48.399  26.484  1.00  0.00     0.042 C 
HETATM   18  C15 UNL     1      44.054  50.659  27.234  1.00  0.00     0.042 C 
ENDBRANCH  10  16
ENDBRANCH   4   7
BRANCH   1  19
HETATM   19  C6  UNL     1      46.402  51.416  36.395  1.00  0.00     0.215 C 
BRANCH  19  20
HETATM   20  N1  UNL     1      47.572  51.583  37.153  1.00  0.00    -0.356 N 
ATOM     21  H1  UNL     1      47.894  52.521  37.390  1.00  0.00     0.163 HD
BRANCH  20  22
HETATM   22  C5  UNL     1      48.319  50.434  37.595  1.00  0.00     0.127 C 
BRANCH  22  23
HETATM   23  C3  UNL     1      47.495  49.668  38.585  1.00  0.00    -0.001 C 
HETATM   24  C4  UNL     1      47.560  48.194  38.224  1.00  0.00     0.011 C 
BRANCH  23  25
HETATM   25  C2  UNL     1      47.972  49.893  40.007  1.00  0.00     0.001 C 
HETATM   26  C1  UNL     1      47.264  48.844  40.870  1.00  0.00     0.005 C 
ENDBRANCH  23  25
ENDBRANCH  22  23
ENDBRANCH  20  22
ENDBRANCH  19  20
BRANCH  19  27
HETATM   27  O1  UNL     1      45.272  51.532  37.031  1.00  0.00    -0.333 OA
ATOM     28  H1  UNL     1      45.025  50.811  37.599  1.00  0.00     0.220 HD
ENDBRANCH  19  27
ENDBRANCH   1  19
TORSDOF 9
ENDMDL
MODEL 4
REMARK VINA RESULT: -6.776471214      1.649      2.299
REMARK  9 active torsions:
REMARK  status: ('A' for Active; 'I' for Inactive)
REMARK    1  A    between atoms: C2_2  and  C3_3 
REMARK    2  A    between atoms: C3_3  and  C5_5 
REMARK    3  A    between atoms: C5_5  and  N1_6 
REMARK    4  A    between atoms: N1_6  and  C6_8 
REMARK    5  A    between atoms: C6_8  and  O1_9 
REMARK    6  A    between atoms: C6_8  and  N2_11 
REMARK    7  A    between atoms: N3_14  and  C9_15 
REMARK    8  A    between atoms: C9_15  and  C10_16 
REMARK    9  A    between atoms: N4_21  and  C13_22 
ROOT
HETATM    1  N2  UNL     1      47.705  51.364  35.918  1.00  0.00    -0.345 N 
HETATM    2  C7  UNL     1      46.298  51.509  35.697  1.00  0.00     0.146 C 
HETATM    3  C8  UNL     1      46.070  51.914  34.210  1.00  0.00     0.137 C 
HETATM    4  N3  UNL     1      46.397  50.745  33.450  1.00  0.00    -0.396 N 
HETATM    5  C18 UNL     1      47.527  50.023  33.970  1.00  0.00     0.137 C 
HETATM    6  C19 UNL     1      48.483  50.897  34.790  1.00  0.00     0.146 C 
ENDROOT
BRANCH   4   7
HETATM    7  C9  UNL     1      46.386  50.873  32.032  1.00  0.00     0.090 C 
HETATM    8  C11 UNL     1      45.672  49.688  31.440  1.00  0.00     0.067 C 
HETATM    9  C12 UNL     1      44.254  50.098  31.082  1.00  0.00     0.275 C 
HETATM   10  N4  UNL     1      44.284  50.993  29.972  1.00  0.00     0.092 N 
HETATM   11  C16 UNL     1      45.110  52.133  30.265  1.00  0.00     0.275 C 
HETATM   12  C17 UNL     1      45.585  52.138  31.699  1.00  0.00     0.067 C 
BRANCH   7  13
HETATM   13  C10 UNL     1      47.695  51.056  31.348  1.00  0.00     0.380 C 
HETATM   14  F1  UNL     1      47.820  50.501  30.111  1.00  0.00    -0.212 F 
HETATM   15  F2  UNL     1      48.166  52.373  31.415  1.00  0.00    -0.212 F 
ENDBRANCH   7  13
BRANCH  10  16
HETATM   16  C13 UNL     1      44.617  50.368  28.734  1.00  0.00     0.215 C 
HETATM   17  C14 UNL     1      43.361  49.862  28.051  1.00  0.00     0.042 C 
HETATM   18  C15 UNL     1      45.238  51.408  27.803  1.00  0.00     0.042 C 
ENDBRANCH  10  16
ENDBRANCH   4   7
BRANCH   1  19
HETATM   19  C6  UNL     1      48.309  51.659  37.135  1.00  0.00     0.215 C 
BRANCH  19  20
HETATM   20  N1  UNL     1      48.866  50.702  37.998  1.00  0.00    -0.356 N 
ATOM     21  H1  UNL     1      49.723  50.217  37.733  1.00  0.00     0.163 HD
BRANCH  20  22
HETATM   22  C5  UNL     1      48.232  50.404  39.256  1.00  0.00     0.127 C 
BRANCH  22  23
HETATM   23  C3  UNL     1      47.170  49.370  39.033  1.00  0.00    -0.001 C 
HETATM   24  C4  UNL     1      47.749  48.269  38.161  1.00  0.00     0.011 C 
BRANCH  23  25
HETATM   25  C2  UNL     1      46.656  48.802  40.343  1.00  0.00     0.001 C 
HETATM   26  C1  UNL     1      47.893  48.413  41.158  1.00  0.00     0.005 C 
ENDBRANCH  23  25
ENDBRANCH  22  23
ENDBRANCH  20  22
ENDBRANCH  19  20
BRANCH  19  27
HETATM   27  O1  UNL     1      48.370  52.901  37.520  1.00  0.00    -0.333 OA
ATOM     28  H1  UNL     1      47.543  53.340  37.680  1.00  0.00     0.220 HD
ENDBRANCH  19  27
ENDBRANCH   1  19
TORSDOF 9
ENDMDL
MODEL 5
REMARK VINA RESULT: -6.703148239      2.001      2.535
REMARK  9 active torsions:
REMARK  status: ('A' for Active; 'I' for Inactive)
REMARK    1  A    between atoms: C2_2  and  C3_3 
REMARK    2  A    between atoms: C3_3  and  C5_5 
REMARK    3  A    between atoms: C5_5  and  N1_6 
REMARK    4  A    between atoms: N1_6  and  C6_8 
REMARK    5  A    between atoms: C6_8  and  O1_9 
REMARK    6  A    between atoms: C6_8  and  N2_11 
REMARK    7  A    between atoms: N3_14  and  C9_15 
REMARK    8  A    between atoms: C9_15  and  C10_16 
REMARK    9  A    between atoms: N4_21  and  C13_22 
ROOT
HETATM    1  N2  UNL     1      46.246  51.257  34.834  1.00  0.00    -0.345 N 
HETATM    2  C7  UNL     1      47.010  52.240  34.127  1.00  0.00     0.146 C 
HETATM    3  C8  UNL     1      47.206  51.753  32.660  1.00  0.00     0.137 C 
HETATM    4  N3  UNL     1      45.911  51.856  32.056  1.00  0.00    -0.396 N 
HETATM    5  C18 UNL     1      44.838  51.483  32.940  1.00  0.00     0.137 C 
HETATM    6  C19 UNL     1      45.272  50.524  34.054  1.00  0.00     0.146 C 
ENDROOT
BRANCH   4   7
HETATM    7  C9  UNL     1      45.775  51.358  30.729  1.00  0.00     0.090 C 
HETATM    8  C11 UNL     1      46.813  50.293  30.498  1.00  0.00     0.067 C 
HETATM    9  C12 UNL     1      46.158  48.930  30.644  1.00  0.00     0.275 C 
HETATM   10  N4  UNL     1      45.277  48.707  29.545  1.00  0.00     0.092 N 
HETATM   11  C16 UNL     1      44.301  49.759  29.460  1.00  0.00     0.275 C 
HETATM   12  C17 UNL     1      44.387  50.712  30.629  1.00  0.00     0.067 C 
BRANCH   7  13
HETATM   13  C10 UNL     1      45.820  52.344  29.616  1.00  0.00     0.380 C 
HETATM   14  F1  UNL     1      45.989  53.650  29.964  1.00  0.00    -0.212 F 
HETATM   15  F2  UNL     1      46.648  51.940  28.562  1.00  0.00    -0.212 F 
ENDBRANCH   7  13
BRANCH  10  16
HETATM   16  C13 UNL     1      45.943  48.464  28.308  1.00  0.00     0.215 C 
HETATM   17  C14 UNL     1      46.842  47.248  28.429  1.00  0.00     0.042 C 
HETATM   18  C15 UNL     1      44.903  48.141  27.238  1.00  0.00     0.042 C 
ENDBRANCH  10  16
ENDBRANCH   4   7
BRANCH   1  19
HETATM   19  C6  UNL     1      46.423  51.000  36.189  1.00  0.00     0.215 C 
BRANCH  19  20
HETATM   20  N1  UNL     1      47.443  50.195  36.718  1.00  0.00    -0.356 N 
ATOM     21  H1  UNL     1      47.796  49.404  36.179  1.00  0.00     0.163 HD
BRANCH  20  22
HETATM   22  C5  UNL     1      47.993  50.481  38.018  1.00  0.00     0.127 C 
BRANCH  22  23
HETATM   23  C3  UNL     1      47.399  49.535  39.017  1.00  0.00    -0.001 C 
HETATM   24  C4  UNL     1      47.606  48.116  38.516  1.00  0.00     0.011 C 
BRANCH  23  25
HETATM   25  C2  UNL     1      48.014  49.713  40.393  1.00  0.00     0.001 C 
HETATM   26  C1  UNL     1      47.689  48.439  41.177  1.00  0.00     0.005 C 
ENDBRANCH  23  25
ENDBRANCH  22  23
ENDBRANCH  20  22
ENDBRANCH  19  20
BRANCH  19  27
HETATM   27  O1  UNL     1      45.595  51.532  37.041  1.00  0.00    -0.333 OA
ATOM     28  H1  UNL     1      45.891  52.314  37.493  1.00  0.00     0.220 HD
ENDBRANCH  19  27
ENDBRANCH   1  19
TORSDOF 9
ENDMDL
