MODEL 1
REMARK VINA RESULT: -7.001098956      0.000      0.000
REMARK  5 active torsions:
REMARK  status: ('A' for Active; 'I' for Inactive)
REMARK    1  A    between atoms: C2_2  and  C3_3 
REMARK    2  A    between atoms: C14_14  and  O1_16 
REMARK    3  A    between atoms: C17_19  and  O2_20 
REMARK    4  A    between atoms: O2_20  and  C18_21 
REMARK    5  A    between atoms: C18_21  and  C19_23 
ROOT
HETATM    1  C3  UNL     1     -22.700  16.131 -14.057  1.00  0.00    -0.020 C 
HETATM    2  C4  UNL     1     -21.799  14.913 -13.962  1.00  0.00     0.020 C 
HETATM    3  C5  UNL     1     -21.869  17.339 -13.854  1.00  0.00     0.041 C 
HETATM    4  C6  UNL     1     -20.822  17.674 -14.811  1.00  0.00    -0.017 C 
HETATM    5  C7  UNL     1     -20.990  17.561 -16.267  1.00  0.00    -0.043 C 
HETATM    6  C8  UNL     1     -21.484  16.211 -16.716  1.00  0.00    -0.060 C 
HETATM    7  C9  UNL     1     -20.686  15.443 -17.429  1.00  0.00     0.019 C 
HETATM    8  C10 UNL     1     -22.802  15.552 -16.480  1.00  0.00     0.044 C 
HETATM    9  C11 UNL     1     -23.539  16.095 -15.290  1.00  0.00     0.006 C 
HETATM   10  C12 UNL     1     -24.235  17.344 -15.652  1.00  0.00     0.047 C 
HETATM   11  C13 UNL     1     -24.002  17.636 -17.197  1.00  0.00    -0.019 C 
HETATM   12  C14 UNL     1     -25.197  17.604 -17.853  1.00  0.00     0.046 C 
HETATM   13  C15 UNL     1     -25.885  18.093 -19.004  1.00  0.00     0.076 C 
HETATM   14  C16 UNL     1     -22.930  18.131 -17.713  1.00  0.00    -0.006 C 
HETATM   15  C17 UNL     1     -23.018  18.231 -19.130  1.00  0.00     0.065 C 
HETATM   16  C20 UNL     1     -22.711  19.664 -19.657  1.00  0.00     0.066 C 
HETATM   17  C21 UNL     1     -21.404  20.131 -19.081  1.00  0.00     0.012 C 
HETATM   18  C22 UNL     1     -20.761  19.229 -18.093  1.00  0.00    -0.001 C 
HETATM   19  C23 UNL     1     -19.636  20.069 -17.465  1.00  0.00     0.011 C 
HETATM   20  C24 UNL     1     -21.650  18.668 -17.017  1.00  0.00     0.017 C 
HETATM   21  C25 UNL     1     -22.047  19.866 -16.190  1.00  0.00     0.026 C 
ENDROOT
BRANCH  15  22
HETATM   22  O2  UNL     1     -23.528  17.364 -20.008  1.00  0.00    -0.282 OA
BRANCH  22  23
HETATM   23  C18 UNL     1     -23.108  16.151 -20.399  1.00  0.00     0.277 C 
HETATM   24  O3  UNL     1     -23.838  15.172 -20.196  1.00  0.00    -0.264 OA
BRANCH  23  25
HETATM   25  C19 UNL     1     -21.805  15.917 -21.067  1.00  0.00     0.226 C 
HETATM   26 CL1  UNL     1     -21.302  14.221 -20.966  1.00  0.00    -0.120 Cl
ENDBRANCH  23  25
ENDBRANCH  22  23
ENDBRANCH  15  22
BRANCH  12  27
HETATM   27  O1  UNL     1     -26.107  16.856 -17.194  1.00  0.00    -0.365 OA
ATOM     28  H1  UNL     1     -25.692  16.208 -16.639  1.00  0.00     0.217 HD
ENDBRANCH  12  27
BRANCH   1  29
HETATM   29  C2  UNL     1     -23.641  16.030 -12.889  1.00  0.00    -0.027 C 
HETATM   30  C1  UNL     1     -23.736  16.922 -11.932  1.00  0.00     0.007 C 
ENDBRANCH   1  29
TORSDOF 5
ENDMDL
MODEL 2
REMARK VINA RESULT: -6.921950001      3.195      6.133
REMARK  5 active torsions:
REMARK  status: ('A' for Active; 'I' for Inactive)
REMARK    1  A    between atoms: C2_2  and  C3_3 
REMARK    2  A    between atoms: C14_14  and  O1_16 
REMARK    3  A    between atoms: C17_19  and  O2_20 
REMARK    4  A    between atoms: O2_20  and  C18_21 
REMARK    5  A    between atoms: C18_21  and  C19_23 
ROOT
HETATM    1  C3  UNL     1     -23.498  17.849 -19.807  1.00  0.00    -0.020 C 
HETATM    2  C4  UNL     1     -22.841  16.859 -20.753  1.00  0.00     0.020 C 
HETATM    3  C5  UNL     1     -24.610  17.159 -19.116  1.00  0.00     0.041 C 
HETATM    4  C6  UNL     1     -24.334  16.040 -18.224  1.00  0.00    -0.017 C 
HETATM    5  C7  UNL     1     -23.216  16.023 -17.269  1.00  0.00    -0.043 C 
HETATM    6  C8  UNL     1     -21.882  16.337 -17.894  1.00  0.00    -0.060 C 
HETATM    7  C9  UNL     1     -20.964  15.395 -17.948  1.00  0.00     0.019 C 
HETATM    8  C10 UNL     1     -21.389  17.610 -18.498  1.00  0.00     0.044 C 
HETATM    9  C11 UNL     1     -22.491  18.529 -18.942  1.00  0.00     0.006 C 
HETATM   10  C12 UNL     1     -23.013  19.286 -17.790  1.00  0.00     0.047 C 
HETATM   11  C13 UNL     1     -22.178  18.898 -16.495  1.00  0.00    -0.019 C 
HETATM   12  C14 UNL     1     -21.523  19.999 -16.028  1.00  0.00     0.046 C 
HETATM   13  C15 UNL     1     -20.964  20.587 -14.852  1.00  0.00     0.076 C 
HETATM   14  C16 UNL     1     -22.324  17.821 -15.802  1.00  0.00    -0.006 C 
HETATM   15  C17 UNL     1     -21.396  17.749 -14.727  1.00  0.00     0.065 C 
HETATM   16  C20 UNL     1     -22.081  17.511 -13.348  1.00  0.00     0.066 C 
HETATM   17  C21 UNL     1     -23.003  16.329 -13.454  1.00  0.00     0.012 C 
HETATM   18  C22 UNL     1     -23.151  15.730 -14.804  1.00  0.00    -0.001 C 
HETATM   19  C23 UNL     1     -24.345  14.768 -14.679  1.00  0.00     0.011 C 
HETATM   20  C24 UNL     1     -23.375  16.686 -15.943  1.00  0.00     0.017 C 
HETATM   21  C25 UNL     1     -24.734  17.284 -15.674  1.00  0.00     0.026 C 
ENDROOT
BRANCH  15  22
HETATM   22  O2  UNL     1     -20.100  18.072 -14.706  1.00  0.00    -0.282 OA
BRANCH  22  23
HETATM   23  C18 UNL     1     -19.178  17.967 -13.737  1.00  0.00     0.277 C 
HETATM   24  O3  UNL     1     -19.141  16.933 -13.057  1.00  0.00    -0.264 OA
BRANCH  23  25
HETATM   25  C19 UNL     1     -18.192  19.032 -13.433  1.00  0.00     0.226 C 
HETATM   26 CL1  UNL     1     -16.924  18.468 -12.330  1.00  0.00    -0.120 Cl
ENDBRANCH  23  25
ENDBRANCH  22  23
ENDBRANCH  15  22
BRANCH  12  27
HETATM   27  O1  UNL     1     -21.322  20.910 -17.002  1.00  0.00    -0.365 OA
ATOM     28  H1  UNL     1     -20.554  20.705 -17.522  1.00  0.00     0.217 HD
ENDBRANCH  12  27
BRANCH   1  29
HETATM   29  C2  UNL     1     -24.101  18.909 -20.685  1.00  0.00    -0.027 C 
HETATM   30  C1  UNL     1     -23.790  19.096 -21.946  1.00  0.00     0.007 C 
ENDBRANCH   1  29
TORSDOF 5
ENDMDL
MODEL 3
REMARK VINA RESULT: -6.724911993      2.839      5.987
REMARK  5 active torsions:
REMARK  status: ('A' for Active; 'I' for Inactive)
REMARK    1  A    between atoms: C2_2  and  C3_3 
REMARK    2  A    between atoms: C14_14  and  O1_16 
REMARK    3  A    between atoms: C17_19  and  O2_20 
REMARK    4  A    between atoms: O2_20  and  C18_21 
REMARK    5  A    between atoms: C18_21  and  C19_23 
ROOT
HETATM    1  C3  UNL     1     -23.036  16.806 -19.976  1.00  0.00    -0.020 C 
HETATM    2  C4  UNL     1     -22.509  15.491 -20.523  1.00  0.00     0.020 C 
HETATM    3  C5  UNL     1     -24.448  16.610 -19.580  1.00  0.00     0.041 C 
HETATM    4  C6  UNL     1     -24.783  15.690 -18.500  1.00  0.00    -0.017 C 
HETATM    5  C7  UNL     1     -24.014  15.594 -17.251  1.00  0.00    -0.043 C 
HETATM    6  C8  UNL     1     -22.536  15.395 -17.464  1.00  0.00    -0.060 C 
HETATM    7  C9  UNL     1     -21.985  14.257 -17.096  1.00  0.00     0.019 C 
HETATM    8  C10 UNL     1     -21.525  16.321 -18.053  1.00  0.00     0.044 C 
HETATM    9  C11 UNL     1     -22.123  17.374 -18.942  1.00  0.00     0.006 C 
HETATM   10  C12 UNL     1     -22.654  18.482 -18.128  1.00  0.00     0.047 C 
HETATM   11  C13 UNL     1     -22.348  18.191 -16.596  1.00  0.00    -0.019 C 
HETATM   12  C14 UNL     1     -21.519  19.155 -16.104  1.00  0.00     0.046 C 
HETATM   13  C15 UNL     1     -21.124  19.824 -14.906  1.00  0.00     0.076 C 
HETATM   14  C16 UNL     1     -23.004  17.376 -15.842  1.00  0.00    -0.006 C 
HETATM   15  C17 UNL     1     -22.456  17.306 -14.530  1.00  0.00     0.065 C 
HETATM   16  C20 UNL     1     -23.511  17.575 -13.417  1.00  0.00     0.066 C 
HETATM   17  C21 UNL     1     -24.702  16.687 -13.642  1.00  0.00     0.012 C 
HETATM   18  C22 UNL     1     -24.682  15.859 -14.873  1.00  0.00    -0.001 C 
HETATM   19  C23 UNL     1     -26.110  15.301 -14.997  1.00  0.00     0.011 C 
HETATM   20  C24 UNL     1     -24.288  16.557 -16.146  1.00  0.00     0.017 C 
HETATM   21  C25 UNL     1     -25.406  17.538 -16.402  1.00  0.00     0.026 C 
ENDROOT
BRANCH  15  22
HETATM   22  O2  UNL     1     -21.176  17.270 -14.150  1.00  0.00    -0.282 OA
BRANCH  22  23
HETATM   23  C18 UNL     1     -20.560  16.572 -13.184  1.00  0.00     0.277 C 
HETATM   24  O3  UNL     1     -19.371  16.812 -12.939  1.00  0.00    -0.264 OA
BRANCH  23  25
HETATM   25  C19 UNL     1     -21.232  15.516 -12.388  1.00  0.00     0.226 C 
HETATM   26 CL1  UNL     1     -21.849  14.206 -13.409  1.00  0.00    -0.120 Cl
ENDBRANCH  23  25
ENDBRANCH  22  23
ENDBRANCH  15  22
BRANCH  12  27
HETATM   27  O1  UNL     1     -20.795  19.736 -17.082  1.00  0.00    -0.365 OA
ATOM     28  H1  UNL     1     -20.010  19.239 -17.280  1.00  0.00     0.217 HD
ENDBRANCH  12  27
BRANCH   1  29
HETATM   29  C2  UNL     1     -23.022  17.761 -21.137  1.00  0.00    -0.027 C 
HETATM   30  C1  UNL     1     -24.088  18.345 -21.633  1.00  0.00     0.007 C 
ENDBRANCH   1  29
TORSDOF 5
ENDMDL
MODEL 4
REMARK VINA RESULT: -6.716974320      1.440      1.576
REMARK  5 active torsions:
REMARK  status: ('A' for Active; 'I' for Inactive)
REMARK    1  A    between atoms: C2_2  and  C3_3 
REMARK    2  A    between atoms: C14_14  and  O1_16 
REMARK    3  A    between atoms: C17_19  and  O2_20 
REMARK    4  A    between atoms: O2_20  and  C18_21 
REMARK    5  A    between atoms: C18_21  and  C19_23 
ROOT
HETATM    1  C3  UNL     1     -22.962  15.730 -14.038  1.00  0.00    -0.020 C 
HETATM    2  C4  UNL     1     -22.213  14.410 -14.068  1.00  0.00     0.020 C 
HETATM    3  C5  UNL     1     -21.969  16.827 -14.057  1.00  0.00     0.041 C 
HETATM    4  C6  UNL     1     -21.103  17.009 -15.215  1.00  0.00    -0.017 C 
HETATM    5  C7  UNL     1     -21.573  16.889 -16.603  1.00  0.00    -0.043 C 
HETATM    6  C8  UNL     1     -22.305  15.603 -16.885  1.00  0.00    -0.060 C 
HETATM    7  C9  UNL     1     -21.765  14.727 -17.707  1.00  0.00     0.019 C 
HETATM    8  C10 UNL     1     -23.618  15.120 -16.365  1.00  0.00     0.044 C 
HETATM    9  C11 UNL     1     -24.031  15.776 -15.078  1.00  0.00     0.006 C 
HETATM   10  C12 UNL     1     -24.630  17.095 -15.352  1.00  0.00     0.047 C 
HETATM   11  C13 UNL     1     -24.680  17.325 -16.923  1.00  0.00    -0.019 C 
HETATM   12  C14 UNL     1     -25.977  17.431 -17.329  1.00  0.00     0.046 C 
HETATM   13  C15 UNL     1     -26.819  17.980 -18.343  1.00  0.00     0.076 C 
HETATM   14  C16 UNL     1     -23.682  17.670 -17.663  1.00  0.00    -0.006 C 
HETATM   15  C17 UNL     1     -24.040  17.753 -19.037  1.00  0.00     0.065 C 
HETATM   16  C20 UNL     1     -23.676  19.124 -19.678  1.00  0.00     0.066 C 
HETATM   17  C21 UNL     1     -22.234  19.434 -19.391  1.00  0.00     0.012 C 
HETATM   18  C22 UNL     1     -21.518  18.478 -18.511  1.00  0.00    -0.001 C 
HETATM   19  C23 UNL     1     -20.198  19.182 -18.154  1.00  0.00     0.011 C 
HETATM   20  C24 UNL     1     -22.233  18.055 -17.257  1.00  0.00     0.017 C 
HETATM   21  C25 UNL     1     -22.309  19.310 -16.422  1.00  0.00     0.026 C 
ENDROOT
BRANCH  15  22
HETATM   22  O2  UNL     1     -24.817  16.939 -19.758  1.00  0.00    -0.282 OA
BRANCH  22  23
HETATM   23  C18 UNL     1     -24.626  15.681 -20.182  1.00  0.00     0.277 C 
HETATM   24  O3  UNL     1     -23.493  15.338 -20.542  1.00  0.00    -0.264 OA
BRANCH  23  25
HETATM   25  C19 UNL     1     -25.709  14.670 -20.244  1.00  0.00     0.226 C 
HETATM   26 CL1  UNL     1     -26.279  14.208 -18.632  1.00  0.00    -0.120 Cl
ENDBRANCH  23  25
ENDBRANCH  22  23
ENDBRANCH  15  22
BRANCH  12  27
HETATM   27  O1  UNL     1     -26.819  16.817 -16.472  1.00  0.00    -0.365 OA
ATOM     28  H1  UNL     1     -27.315  17.443 -15.959  1.00  0.00     0.217 HD
ENDBRANCH  12  27
BRANCH   1  29
HETATM   29  C2  UNL     1     -23.654  15.772 -12.704  1.00  0.00    -0.027 C 
HETATM   30  C1  UNL     1     -23.618  16.792 -11.879  1.00  0.00     0.007 C 
ENDBRANCH   1  29
TORSDOF 5
ENDMDL
MODEL 5
REMARK VINA RESULT: -6.504354300      3.046      6.194
REMARK  5 active torsions:
REMARK  status: ('A' for Active; 'I' for Inactive)
REMARK    1  A    between atoms: C2_2  and  C3_3 
REMARK    2  A    between atoms: C14_14  and  O1_16 
REMARK    3  A    between atoms: C17_19  and  O2_20 
REMARK    4  A    between atoms: O2_20  and  C18_21 
REMARK    5  A    between atoms: C18_21  and  C19_23 
ROOT
HETATM    1  C3  UNL     1     -22.844  17.396 -20.119  1.00  0.00    -0.020 C 
HETATM    2  C4  UNL     1     -22.163  16.302 -20.923  1.00  0.00     0.020 C 
HETATM    3  C5  UNL     1     -24.273  17.040 -19.970  1.00  0.00     0.041 C 
HETATM    4  C6  UNL     1     -24.655  15.848 -19.224  1.00  0.00    -0.017 C 
HETATM    5  C7  UNL     1     -24.023  15.450 -17.957  1.00  0.00    -0.043 C 
HETATM    6  C8  UNL     1     -22.520  15.378 -18.027  1.00  0.00    -0.060 C 
HETATM    7  C9  UNL     1     -21.929  14.207 -17.907  1.00  0.00     0.019 C 
HETATM    8  C10 UNL     1     -21.522  16.472 -18.218  1.00  0.00     0.044 C 
HETATM    9  C11 UNL     1     -22.095  17.700 -18.865  1.00  0.00     0.006 C 
HETATM   10  C12 UNL     1     -22.794  18.522 -17.861  1.00  0.00     0.047 C 
HETATM   11  C13 UNL     1     -22.639  17.839 -16.434  1.00  0.00    -0.019 C 
HETATM   12  C14 UNL     1     -21.943  18.668 -15.604  1.00  0.00     0.046 C 
HETATM   13  C15 UNL     1     -21.734  19.003 -14.232  1.00  0.00     0.076 C 
HETATM   14  C16 UNL     1     -23.310  16.823 -16.011  1.00  0.00    -0.006 C 
HETATM   15  C17 UNL     1     -22.907  16.423 -14.707  1.00  0.00     0.065 C 
HETATM   16  C20 UNL     1     -24.095  16.335 -13.705  1.00  0.00     0.066 C 
HETATM   17  C21 UNL     1     -25.185  15.492 -14.305  1.00  0.00     0.012 C 
HETATM   18  C22 UNL     1     -24.967  15.031 -15.698  1.00  0.00    -0.001 C 
HETATM   19  C23 UNL     1     -26.327  14.467 -16.145  1.00  0.00     0.011 C 
HETATM   20  C24 UNL     1     -24.488  16.064 -16.681  1.00  0.00     0.017 C 
HETATM   21  C25 UNL     1     -25.642  17.030 -16.808  1.00  0.00     0.026 C 
ENDROOT
BRANCH  15  22
HETATM   22  O2  UNL     1     -21.678  16.340 -14.191  1.00  0.00    -0.282 OA
BRANCH  22  23
HETATM   23  C18 UNL     1     -21.184  15.582 -13.200  1.00  0.00     0.277 C 
HETATM   24  O3  UNL     1     -21.587  14.418 -13.082  1.00  0.00    -0.264 OA
BRANCH  23  25
HETATM   25  C19 UNL     1     -20.173  16.067 -12.230  1.00  0.00     0.226 C 
HETATM   26 CL1  UNL     1     -19.862  14.884 -10.948  1.00  0.00    -0.120 Cl
ENDBRANCH  23  25
ENDBRANCH  22  23
ENDBRANCH  15  22
BRANCH  12  27
HETATM   27  O1  UNL     1     -21.161  19.522 -16.295  1.00  0.00    -0.365 OA
ATOM     28  H1  UNL     1     -21.631  20.311 -16.537  1.00  0.00     0.217 HD
ENDBRANCH  12  27
BRANCH   1  29
HETATM   29  C2  UNL     1     -22.774  18.630 -20.975  1.00  0.00    -0.027 C 
HETATM   30  C1  UNL     1     -23.792  19.143 -21.624  1.00  0.00     0.007 C 
ENDBRANCH   1  29
TORSDOF 5
ENDMDL
