MODEL 1
REMARK VINA RESULT: -8.126738071      0.000      0.000
REMARK  3 active torsions:
REMARK  status: ('A' for Active; 'I' for Inactive)
REMARK    1  A    between atoms: N3_4  and  N4_6 
REMARK    2  A    between atoms: N4_6  and  N5_8 
REMARK    3  A    between atoms: C2_10  and  C3_11 
ROOT
HETATM    1  C3  UNL     1     -15.256 -26.882 -25.850  1.00  0.00     0.051 A 
HETATM    2  C4  UNL     1     -15.574 -27.731 -26.905  1.00  0.00     0.052 A 
HETATM    3  C5  UNL     1     -16.931 -27.944 -26.935  1.00  0.00     0.078 A 
HETATM    4  C6  UNL     1     -17.792 -28.669 -27.728  1.00  0.00     0.260 A 
HETATM    5  O1  UNL     1     -17.333 -29.337 -28.689  1.00  0.00    -0.267 OA
HETATM    6  N6  UNL     1     -19.133 -28.668 -27.478  1.00  0.00    -0.319 N 
ATOM      7  H6  UNL     1     -19.761 -29.210 -28.072  1.00  0.00     0.169 HD
HETATM    8  C7  UNL     1     -19.631 -27.957 -26.453  1.00  0.00     0.184 A 
HETATM    9  N7  UNL     1     -18.781 -27.257 -25.691  1.00  0.00    -0.338 N 
ATOM     10  H7  UNL     1     -19.168 -26.720 -24.915  1.00  0.00     0.168 HD
HETATM   11  C8  UNL     1     -17.442 -27.217 -25.886  1.00  0.00     0.122 A 
HETATM   12  N8  UNL     1     -16.424 -26.594 -25.256  1.00  0.00    -0.340 N 
ATOM     13  H8  UNL     1     -16.529 -25.989 -24.441  1.00  0.00     0.167 HD
ENDROOT
BRANCH   1  14
HETATM   14  C2  UNL     1     -13.916 -26.418 -25.488  1.00  0.00     0.138 C 
HETATM   15  N5  UNL     1     -12.898 -27.097 -25.879  1.00  0.00    -0.295 N 
ATOM     16  H5  UNL     1     -13.030 -27.944 -26.432  1.00  0.00     0.187 HD
BRANCH  15  17
HETATM   17  N4  UNL     1     -11.608 -26.672 -25.544  1.00  0.00    -0.241 N 
ATOM     18  H4  UNL     1     -11.361 -25.685 -25.604  1.00  0.00     0.208 HD
BRANCH  17  19
HETATM   19  N3  UNL     1     -10.662 -27.610 -25.126  1.00  0.00    -0.261 N 
HETATM   20  C1  UNL     1     -10.212 -28.499 -25.939  1.00  0.00     0.216 C 
HETATM   21  N1  UNL     1     -10.696 -28.509 -27.270  1.00  0.00    -0.065 NA
HETATM   22  N2  UNL     1      -9.253 -29.442 -25.502  1.00  0.00    -0.065 NA
ATOM     23  H3  UNL     1     -10.323 -27.590 -24.164  1.00  0.00     0.190 HD
ENDBRANCH  17  19
ENDBRANCH  15  17
ENDBRANCH   1  14
TORSDOF 3
ENDMDL
MODEL 2
REMARK VINA RESULT: -7.718283670      1.600      1.926
REMARK  3 active torsions:
REMARK  status: ('A' for Active; 'I' for Inactive)
REMARK    1  A    between atoms: N3_4  and  N4_6 
REMARK    2  A    between atoms: N4_6  and  N5_8 
REMARK    3  A    between atoms: C2_10  and  C3_11 
ROOT
HETATM    1  C3  UNL     1     -14.967 -27.484 -26.724  1.00  0.00     0.051 A 
HETATM    2  C4  UNL     1     -15.855 -27.004 -25.767  1.00  0.00     0.052 A 
HETATM    3  C5  UNL     1     -17.130 -27.415 -26.073  1.00  0.00     0.078 A 
HETATM    4  C6  UNL     1     -18.374 -27.251 -25.507  1.00  0.00     0.260 A 
HETATM    5  O1  UNL     1     -18.490 -26.578 -24.451  1.00  0.00    -0.267 OA
HETATM    6  N6  UNL     1     -19.478 -27.809 -26.082  1.00  0.00    -0.319 N 
ATOM      7  H6  UNL     1     -20.395 -27.680 -25.654  1.00  0.00     0.169 HD
HETATM    8  C7  UNL     1     -19.363 -28.529 -27.210  1.00  0.00     0.184 A 
HETATM    9  N7  UNL     1     -18.146 -28.680 -27.748  1.00  0.00    -0.338 N 
ATOM     10  H7  UNL     1     -18.068 -29.229 -28.605  1.00  0.00     0.168 HD
HETATM   11  C8  UNL     1     -17.014 -28.152 -27.227  1.00  0.00     0.122 A 
HETATM   12  N8  UNL     1     -15.716 -28.177 -27.594  1.00  0.00    -0.340 N 
ATOM     13  H8  UNL     1     -15.354 -28.658 -28.419  1.00  0.00     0.167 HD
ENDROOT
BRANCH   1  14
HETATM   14  C2  UNL     1     -13.520 -27.261 -26.749  1.00  0.00     0.138 C 
HETATM   15  N5  UNL     1     -12.928 -26.910 -25.664  1.00  0.00    -0.295 N 
ATOM     16  H5  UNL     1     -13.464 -26.791 -24.804  1.00  0.00     0.187 HD
BRANCH  15  17
HETATM   17  N4  UNL     1     -11.547 -26.692 -25.665  1.00  0.00    -0.241 N 
ATOM     18  H4  UNL     1     -11.159 -25.860 -26.111  1.00  0.00     0.208 HD
BRANCH  17  19
HETATM   19  N3  UNL     1     -10.703 -27.619 -25.050  1.00  0.00    -0.261 N 
HETATM   20  C1  UNL     1     -10.150 -28.559 -25.732  1.00  0.00     0.216 C 
HETATM   21  N1  UNL     1     -10.413 -28.635 -27.122  1.00  0.00    -0.065 NA
HETATM   22  N2  UNL     1      -9.297 -29.490 -25.096  1.00  0.00    -0.065 NA
ATOM     23  H3  UNL     1     -10.523 -27.551 -24.049  1.00  0.00     0.190 HD
ENDBRANCH  17  19
ENDBRANCH  15  17
ENDBRANCH   1  14
TORSDOF 3
ENDMDL
MODEL 3
REMARK VINA RESULT: -7.542732203      3.645      5.472
REMARK  3 active torsions:
REMARK  status: ('A' for Active; 'I' for Inactive)
REMARK    1  A    between atoms: N3_4  and  N4_6 
REMARK    2  A    between atoms: N4_6  and  N5_8 
REMARK    3  A    between atoms: C2_10  and  C3_11 
ROOT
HETATM    1  C3  UNL     1     -14.360 -26.686 -25.722  1.00  0.00     0.051 A 
HETATM    2  C4  UNL     1     -13.088 -26.746 -26.282  1.00  0.00     0.052 A 
HETATM    3  C5  UNL     1     -13.118 -27.525 -27.413  1.00  0.00     0.078 A 
HETATM    4  C6  UNL     1     -12.192 -27.929 -28.349  1.00  0.00     0.260 A 
HETATM    5  O1  UNL     1     -10.997 -27.551 -28.240  1.00  0.00    -0.267 OA
HETATM    6  N6  UNL     1     -12.560 -28.732 -29.388  1.00  0.00    -0.319 N 
ATOM      7  H6  UNL     1     -11.865 -29.025 -30.075  1.00  0.00     0.169 HD
HETATM    8  C7  UNL     1     -13.833 -29.139 -29.511  1.00  0.00     0.184 A 
HETATM    9  N7  UNL     1     -14.722 -28.738 -28.594  1.00  0.00    -0.338 N 
ATOM     10  H7  UNL     1     -15.688 -29.052 -28.696  1.00  0.00     0.168 HD
HETATM   11  C8  UNL     1     -14.421 -27.943 -27.541  1.00  0.00     0.122 A 
HETATM   12  N8  UNL     1     -15.140 -27.430 -26.521  1.00  0.00    -0.340 N 
ATOM     13  H8  UNL     1     -16.139 -27.585 -26.378  1.00  0.00     0.167 HD
ENDROOT
BRANCH   1  14
HETATM   14  C2  UNL     1     -14.738 -25.956 -24.511  1.00  0.00     0.138 C 
HETATM   15  N5  UNL     1     -15.226 -26.610 -23.518  1.00  0.00    -0.295 N 
ATOM     16  H5  UNL     1     -15.345 -27.621 -23.581  1.00  0.00     0.187 HD
BRANCH  15  17
HETATM   17  N4  UNL     1     -15.594 -25.932 -22.352  1.00  0.00    -0.241 N 
ATOM     18  H4  UNL     1     -16.507 -25.481 -22.287  1.00  0.00     0.208 HD
BRANCH  17  19
HETATM   19  N3  UNL     1     -14.704 -25.878 -21.278  1.00  0.00    -0.261 N 
HETATM   20  C1  UNL     1     -14.245 -24.752 -20.859  1.00  0.00     0.216 C 
HETATM   21  N1  UNL     1     -14.661 -23.564 -21.510  1.00  0.00    -0.065 NA
HETATM   22  N2  UNL     1     -13.345 -24.712 -19.770  1.00  0.00    -0.065 NA
ATOM     23  H3  UNL     1     -14.414 -26.741 -20.819  1.00  0.00     0.190 HD
ENDBRANCH  17  19
ENDBRANCH  15  17
ENDBRANCH   1  14
TORSDOF 3
ENDMDL
MODEL 4
REMARK VINA RESULT: -7.501425310      2.823      6.197
REMARK  3 active torsions:
REMARK  status: ('A' for Active; 'I' for Inactive)
REMARK    1  A    between atoms: N3_4  and  N4_6 
REMARK    2  A    between atoms: N4_6  and  N5_8 
REMARK    3  A    between atoms: C2_10  and  C3_11 
ROOT
HETATM    1  C3  UNL     1     -14.627 -26.495 -25.321  1.00  0.00     0.051 A 
HETATM    2  C4  UNL     1     -14.947 -27.373 -26.351  1.00  0.00     0.052 A 
HETATM    3  C5  UNL     1     -13.818 -27.665 -27.077  1.00  0.00     0.078 A 
HETATM    4  C6  UNL     1     -13.533 -28.448 -28.173  1.00  0.00     0.260 A 
HETATM    5  O1  UNL     1     -14.457 -29.101 -28.724  1.00  0.00    -0.267 OA
HETATM    6  N6  UNL     1     -12.262 -28.521 -28.664  1.00  0.00    -0.319 N 
ATOM      7  H6  UNL     1     -12.064 -29.104 -29.477  1.00  0.00     0.169 HD
HETATM    8  C7  UNL     1     -11.271 -27.827 -28.081  1.00  0.00     0.184 A 
HETATM    9  N7  UNL     1     -11.563 -27.070 -27.016  1.00  0.00    -0.338 N 
ATOM     10  H7  UNL     1     -10.804 -26.547 -26.580  1.00  0.00     0.168 HD
HETATM   11  C8  UNL     1     -12.802 -26.955 -26.483  1.00  0.00     0.122 A 
HETATM   12  N8  UNL     1     -13.310 -26.267 -25.439  1.00  0.00    -0.340 N 
ATOM     13  H8  UNL     1     -12.768 -25.658 -24.825  1.00  0.00     0.167 HD
ENDROOT
BRANCH   1  14
HETATM   14  C2  UNL     1     -15.556 -25.950 -24.330  1.00  0.00     0.138 C 
HETATM   15  N5  UNL     1     -15.317 -26.145 -23.082  1.00  0.00    -0.295 N 
ATOM     16  H5  UNL     1     -14.491 -26.671 -22.796  1.00  0.00     0.187 HD
BRANCH  15  17
HETATM   17  N4  UNL     1     -16.192 -25.634 -22.119  1.00  0.00    -0.241 N 
ATOM     18  H4  UNL     1     -15.831 -25.292 -21.227  1.00  0.00     0.208 HD
BRANCH  17  19
HETATM   19  N3  UNL     1     -17.562 -25.594 -22.385  1.00  0.00    -0.261 N 
HETATM   20  C1  UNL     1     -18.322 -26.585 -22.078  1.00  0.00     0.216 C 
HETATM   21  N1  UNL     1     -17.741 -27.721 -21.462  1.00  0.00    -0.065 NA
HETATM   22  N2  UNL     1     -19.707 -26.531 -22.353  1.00  0.00    -0.065 NA
ATOM     23  H3  UNL     1     -17.966 -24.769 -22.828  1.00  0.00     0.190 HD
ENDBRANCH  17  19
ENDBRANCH  15  17
ENDBRANCH   1  14
TORSDOF 3
ENDMDL
MODEL 5
REMARK VINA RESULT: -7.496497072      2.446      6.830
REMARK  3 active torsions:
REMARK  status: ('A' for Active; 'I' for Inactive)
REMARK    1  A    between atoms: N3_4  and  N4_6 
REMARK    2  A    between atoms: N4_6  and  N5_8 
REMARK    3  A    between atoms: C2_10  and  C3_11 
ROOT
HETATM    1  C3  UNL     1     -14.827 -28.216 -26.608  1.00  0.00     0.051 A 
HETATM    2  C4  UNL     1     -13.942 -27.740 -27.571  1.00  0.00     0.052 A 
HETATM    3  C5  UNL     1     -12.650 -27.958 -27.158  1.00  0.00     0.078 A 
HETATM    4  C6  UNL     1     -11.400 -27.707 -27.679  1.00  0.00     0.260 A 
HETATM    5  O1  UNL     1     -11.298 -27.147 -28.801  1.00  0.00    -0.267 OA
HETATM    6  N6  UNL     1     -10.277 -28.060 -26.990  1.00  0.00    -0.319 N 
ATOM      7  H6  UNL     1      -9.357 -27.869 -27.386  1.00  0.00     0.169 HD
HETATM    8  C7  UNL     1     -10.378 -28.659 -25.792  1.00  0.00     0.184 A 
HETATM    9  N7  UNL     1     -11.600 -28.896 -25.299  1.00  0.00    -0.338 N 
ATOM     10  H7  UNL     1     -11.667 -29.351 -24.389  1.00  0.00     0.168 HD
HETATM   11  C8  UNL     1     -12.751 -28.570 -25.932  1.00  0.00     0.122 A 
HETATM   12  N8  UNL     1     -14.058 -28.712 -25.627  1.00  0.00    -0.340 N 
ATOM     13  H8  UNL     1     -14.412 -29.138 -24.770  1.00  0.00     0.167 HD
ENDROOT
BRANCH   1  14
HETATM   14  C2  UNL     1     -16.288 -28.169 -26.679  1.00  0.00     0.138 C 
HETATM   15  N5  UNL     1     -16.867 -28.513 -27.773  1.00  0.00    -0.295 N 
ATOM     16  H5  UNL     1     -16.311 -28.812 -28.574  1.00  0.00     0.187 HD
BRANCH  15  17
HETATM   17  N4  UNL     1     -18.262 -28.475 -27.863  1.00  0.00    -0.241 N 
ATOM     18  H4  UNL     1     -18.727 -27.676 -28.295  1.00  0.00     0.208 HD
BRANCH  17  19
HETATM   19  N3  UNL     1     -19.013 -29.539 -27.359  1.00  0.00    -0.261 N 
HETATM   20  C1  UNL     1     -18.979 -30.695 -27.922  1.00  0.00     0.216 C 
HETATM   21  N1  UNL     1     -18.162 -30.869 -29.066  1.00  0.00    -0.065 NA
HETATM   22  N2  UNL     1     -19.745 -31.762 -27.400  1.00  0.00    -0.065 NA
ATOM     23  H3  UNL     1     -19.597 -29.398 -26.535  1.00  0.00     0.190 HD
ENDBRANCH  17  19
ENDBRANCH  15  17
ENDBRANCH   1  14
TORSDOF 3
ENDMDL
