MODEL 1
REMARK VINA RESULT: -6.450929594      0.000      0.000
REMARK  4 active torsions:
REMARK  status: ('A' for Active; 'I' for Inactive)
REMARK    1  A    between atoms: O1_2  and  C2_3 
REMARK    2  A    between atoms: C2_3  and  C3_5 
REMARK    3  A    between atoms: C4_6  and  N1_7 
REMARK    4  A    between atoms: C8_16  and  N4_17 
ROOT
HETATM    1  C3  UNL     1     -15.820 -27.098 -25.314  1.00  0.00     0.125 A 
HETATM    2  C4  UNL     1     -14.543 -26.661 -25.235  1.00  0.00     0.144 A 
HETATM    3  N3  UNL     1     -14.248 -25.494 -24.549  1.00  0.00    -0.175 N 
ATOM      4  H3  UNL     1     -13.282 -25.171 -24.492  1.00  0.00     0.186 HD
HETATM    5  C8  UNL     1     -15.217 -24.788 -23.960  1.00  0.00     0.678 A 
HETATM    6  N5  UNL     1     -16.489 -25.215 -24.037  1.00  0.00    -0.178 N 
ATOM      7  H5  UNL     1     -17.223 -24.669 -23.586  1.00  0.00     0.185 HD
HETATM    8  C9  UNL     1     -16.820 -26.336 -24.688  1.00  0.00     0.151 A 
HETATM    9  N6  UNL     1     -18.197 -26.769 -24.753  1.00  0.00    -0.081 NA
ENDROOT
BRANCH   2  10
HETATM   10  N1  UNL     1     -13.476 -27.327 -25.883  1.00  0.00    -0.321 N 
HETATM   11  C5  UNL     1     -12.579 -27.016 -26.955  1.00  0.00     0.139 A 
HETATM   12  C6  UNL     1     -11.919 -28.352 -26.849  1.00  0.00     0.096 A 
HETATM   13  C7  UNL     1     -12.855 -28.582 -25.736  1.00  0.00     0.080 A 
HETATM   14  N2  UNL     1     -12.988 -29.619 -24.944  1.00  0.00    -0.389 N 
ATOM     15  H22 UNL     1     -13.637 -29.777 -24.173  1.00  0.00     0.157 HD
ATOM     16  H21 UNL     1     -12.539 -30.527 -24.838  1.00  0.00     0.157 HD
ENDBRANCH   2  10
BRANCH   1  17
HETATM   17  C2  UNL     1     -16.190 -28.315 -25.980  1.00  0.00     0.300 C 
HETATM   18  O2  UNL     1     -16.300 -29.439 -25.462  1.00  0.00    -0.259 OA
BRANCH  17  19
HETATM   19  O1  UNL     1     -16.460 -28.258 -27.350  1.00  0.00    -0.322 OA
HETATM   20  C1  UNL     1     -17.722 -28.639 -27.825  1.00  0.00     0.213 C 
ENDBRANCH  17  19
ENDBRANCH   1  17
BRANCH   5  21
HETATM   21  N4  UNL     1     -14.940 -23.697 -23.318  1.00  0.00    -0.234 N 
ATOM     22  H42 UNL     1     -14.745 -22.839 -23.834  1.00  0.00     0.174 HD
ATOM     23  H41 UNL     1     -14.914 -23.688 -22.299  1.00  0.00     0.174 HD
ENDBRANCH   5  21
TORSDOF 4
ENDMDL
MODEL 2
REMARK VINA RESULT: -6.276636722      2.133      3.537
REMARK  4 active torsions:
REMARK  status: ('A' for Active; 'I' for Inactive)
REMARK    1  A    between atoms: O1_2  and  C2_3 
REMARK    2  A    between atoms: C2_3  and  C3_5 
REMARK    3  A    between atoms: C4_6  and  N1_7 
REMARK    4  A    between atoms: C8_16  and  N4_17 
ROOT
HETATM    1  C3  UNL     1     -16.040 -26.993 -25.216  1.00  0.00     0.125 A 
HETATM    2  C4  UNL     1     -15.274 -27.573 -26.167  1.00  0.00     0.144 A 
HETATM    3  N3  UNL     1     -15.866 -28.212 -27.244  1.00  0.00    -0.175 N 
ATOM      4  H3  UNL     1     -15.281 -28.646 -27.959  1.00  0.00     0.186 HD
HETATM    5  C8  UNL     1     -17.196 -28.265 -27.356  1.00  0.00     0.678 A 
HETATM    6  N5  UNL     1     -17.964 -27.693 -26.413  1.00  0.00    -0.178 N 
ATOM      7  H5  UNL     1     -18.979 -27.739 -26.504  1.00  0.00     0.185 HD
HETATM    8  C9  UNL     1     -17.435 -27.065 -25.356  1.00  0.00     0.151 A 
HETATM    9  N6  UNL     1     -18.287 -26.459 -24.358  1.00  0.00    -0.081 NA
ENDROOT
BRANCH   2  10
HETATM   10  N1  UNL     1     -13.861 -27.605 -26.082  1.00  0.00    -0.321 N 
HETATM   11  C5  UNL     1     -12.795 -26.732 -26.473  1.00  0.00     0.139 A 
HETATM   12  C6  UNL     1     -11.766 -27.694 -25.973  1.00  0.00     0.096 A 
HETATM   13  C7  UNL     1     -12.919 -28.518 -25.572  1.00  0.00     0.080 A 
HETATM   14  N2  UNL     1     -12.957 -29.677 -24.960  1.00  0.00    -0.389 N 
ATOM     15  H22 UNL     1     -13.755 -30.248 -24.683  1.00  0.00     0.157 HD
ATOM     16  H21 UNL     1     -12.274 -30.338 -24.591  1.00  0.00     0.157 HD
ENDBRANCH   2  10
BRANCH   1  17
HETATM   17  C2  UNL     1     -15.490 -26.287 -24.093  1.00  0.00     0.300 C 
HETATM   18  O2  UNL     1     -15.427 -26.693 -22.921  1.00  0.00    -0.259 OA
BRANCH  17  19
HETATM   19  O1  UNL     1     -14.964 -25.011 -24.313  1.00  0.00    -0.322 OA
HETATM   20  C1  UNL     1     -15.628 -23.888 -23.802  1.00  0.00     0.213 C 
ENDBRANCH  17  19
ENDBRANCH   1  17
BRANCH   5  21
HETATM   21  N4  UNL     1     -17.750 -28.862 -28.364  1.00  0.00    -0.234 N 
ATOM     22  H42 UNL     1     -18.751 -29.054 -28.353  1.00  0.00     0.174 HD
ATOM     23  H41 UNL     1     -17.191 -29.144 -29.169  1.00  0.00     0.174 HD
ENDBRANCH   5  21
TORSDOF 4
ENDMDL
MODEL 3
REMARK VINA RESULT: -6.270771907      2.011      4.273
REMARK  4 active torsions:
REMARK  status: ('A' for Active; 'I' for Inactive)
REMARK    1  A    between atoms: O1_2  and  C2_3 
REMARK    2  A    between atoms: C2_3  and  C3_5 
REMARK    3  A    between atoms: C4_6  and  N1_7 
REMARK    4  A    between atoms: C8_16  and  N4_17 
ROOT
HETATM    1  C3  UNL     1     -15.756 -26.875 -25.000  1.00  0.00     0.125 A 
HETATM    2  C4  UNL     1     -14.883 -25.968 -24.506  1.00  0.00     0.144 A 
HETATM    3  N3  UNL     1     -13.583 -25.921 -24.984  1.00  0.00    -0.175 N 
ATOM      4  H3  UNL     1     -12.931 -25.233 -24.607  1.00  0.00     0.186 HD
HETATM    5  C8  UNL     1     -13.177 -26.768 -25.933  1.00  0.00     0.678 A 
HETATM    6  N5  UNL     1     -14.038 -27.673 -26.427  1.00  0.00    -0.178 N 
ATOM      7  H5  UNL     1     -13.719 -28.318 -27.151  1.00  0.00     0.185 HD
HETATM    8  C9  UNL     1     -15.303 -27.755 -25.996  1.00  0.00     0.151 A 
HETATM    9  N6  UNL     1     -16.205 -28.739 -26.547  1.00  0.00    -0.081 NA
ENDROOT
BRANCH   2  10
HETATM   10  N1  UNL     1     -15.229 -25.080 -23.460  1.00  0.00    -0.321 N 
HETATM   11  C5  UNL     1     -15.816 -23.776 -23.381  1.00  0.00     0.139 A 
HETATM   12  C6  UNL     1     -15.703 -23.768 -21.891  1.00  0.00     0.096 A 
HETATM   13  C7  UNL     1     -15.137 -25.117 -22.056  1.00  0.00     0.080 A 
HETATM   14  N2  UNL     1     -14.724 -25.976 -21.156  1.00  0.00    -0.389 N 
ATOM     15  H22 UNL     1     -14.332 -26.911 -21.271  1.00  0.00     0.157 HD
ATOM     16  H21 UNL     1     -14.657 -26.003 -20.139  1.00  0.00     0.157 HD
ENDBRANCH   2  10
BRANCH   1  17
HETATM   17  C2  UNL     1     -17.124 -26.954 -24.574  1.00  0.00     0.300 C 
HETATM   18  O2  UNL     1     -18.084 -26.320 -25.042  1.00  0.00    -0.259 OA
BRANCH  17  19
HETATM   19  O1  UNL     1     -17.437 -27.828 -23.529  1.00  0.00    -0.322 OA
HETATM   20  C1  UNL     1     -18.076 -27.338 -22.381  1.00  0.00     0.213 C 
ENDBRANCH  17  19
ENDBRANCH   1  17
BRANCH   5  21
HETATM   21  N4  UNL     1     -11.961 -26.723 -26.379  1.00  0.00    -0.234 N 
ATOM     22  H42 UNL     1     -11.534 -25.824 -26.601  1.00  0.00     0.174 HD
ATOM     23  H41 UNL     1     -11.426 -27.582 -26.512  1.00  0.00     0.174 HD
ENDBRANCH   5  21
TORSDOF 4
ENDMDL
MODEL 4
REMARK VINA RESULT: -6.226764700      1.926      4.359
REMARK  4 active torsions:
REMARK  status: ('A' for Active; 'I' for Inactive)
REMARK    1  A    between atoms: O1_2  and  C2_3 
REMARK    2  A    between atoms: C2_3  and  C3_5 
REMARK    3  A    between atoms: C4_6  and  N1_7 
REMARK    4  A    between atoms: C8_16  and  N4_17 
ROOT
HETATM    1  C3  UNL     1     -15.744 -27.055 -25.286  1.00  0.00     0.125 A 
HETATM    2  C4  UNL     1     -14.869 -26.253 -24.638  1.00  0.00     0.144 A 
HETATM    3  N3  UNL     1     -13.558 -26.159 -25.073  1.00  0.00    -0.175 N 
ATOM      4  H3  UNL     1     -12.904 -25.551 -24.580  1.00  0.00     0.186 HD
HETATM    5  C8  UNL     1     -13.141 -26.858 -26.133  1.00  0.00     0.678 A 
HETATM    6  N5  UNL     1     -14.004 -27.658 -26.780  1.00  0.00    -0.178 N 
ATOM      7  H5  UNL     1     -13.678 -28.190 -27.587  1.00  0.00     0.185 HD
HETATM    8  C9  UNL     1     -15.281 -27.780 -26.396  1.00  0.00     0.151 A 
HETATM    9  N6  UNL     1     -16.185 -28.649 -27.113  1.00  0.00    -0.081 NA
ENDROOT
BRANCH   2  10
HETATM   10  N1  UNL     1     -15.227 -25.530 -23.475  1.00  0.00    -0.321 N 
HETATM   11  C5  UNL     1     -15.168 -25.772 -22.064  1.00  0.00     0.139 A 
HETATM   12  C6  UNL     1     -15.798 -24.450 -21.767  1.00  0.00     0.096 A 
HETATM   13  C7  UNL     1     -15.793 -24.265 -23.228  1.00  0.00     0.080 A 
HETATM   14  N2  UNL     1     -16.193 -23.248 -23.952  1.00  0.00    -0.389 N 
ATOM     15  H22 UNL     1     -16.189 -23.120 -24.964  1.00  0.00     0.157 HD
ATOM     16  H21 UNL     1     -16.602 -22.332 -23.773  1.00  0.00     0.157 HD
ENDBRANCH   2  10
BRANCH   1  17
HETATM   17  C2  UNL     1     -17.124 -27.172 -24.908  1.00  0.00     0.300 C 
HETATM   18  O2  UNL     1     -18.052 -26.419 -25.248  1.00  0.00    -0.259 OA
BRANCH  17  19
HETATM   19  O1  UNL     1     -17.490 -28.233 -24.075  1.00  0.00    -0.322 OA
HETATM   20  C1  UNL     1     -18.056 -27.968 -22.820  1.00  0.00     0.213 C 
ENDBRANCH  17  19
ENDBRANCH   1  17
BRANCH   5  21
HETATM   21  N4  UNL     1     -11.914 -26.769 -26.539  1.00  0.00    -0.234 N 
ATOM     22  H42 UNL     1     -11.160 -26.667 -25.860  1.00  0.00     0.174 HD
ATOM     23  H41 UNL     1     -11.694 -26.799 -27.535  1.00  0.00     0.174 HD
ENDBRANCH   5  21
TORSDOF 4
ENDMDL
MODEL 5
REMARK VINA RESULT: -6.160186334      0.651      1.242
REMARK  4 active torsions:
REMARK  status: ('A' for Active; 'I' for Inactive)
REMARK    1  A    between atoms: O1_2  and  C2_3 
REMARK    2  A    between atoms: C2_3  and  C3_5 
REMARK    3  A    between atoms: C4_6  and  N1_7 
REMARK    4  A    between atoms: C8_16  and  N4_17 
ROOT
HETATM    1  C3  UNL     1     -15.986 -27.234 -25.313  1.00  0.00     0.125 A 
HETATM    2  C4  UNL     1     -14.683 -26.963 -25.076  1.00  0.00     0.144 A 
HETATM    3  N3  UNL     1     -14.325 -25.831 -24.361  1.00  0.00    -0.175 N 
ATOM      4  H3  UNL     1     -13.340 -25.634 -24.185  1.00  0.00     0.186 HD
HETATM    5  C8  UNL     1     -15.260 -24.996 -23.899  1.00  0.00     0.678 A 
HETATM    6  N5  UNL     1     -16.557 -25.257 -24.133  1.00  0.00    -0.178 N 
ATOM      7  H5  UNL     1     -17.264 -24.614 -23.778  1.00  0.00     0.185 HD
HETATM    8  C9  UNL     1     -16.948 -26.339 -24.818  1.00  0.00     0.151 A 
HETATM    9  N6  UNL     1     -18.351 -26.593 -25.052  1.00  0.00    -0.081 NA
ENDROOT
BRANCH   2  10
HETATM   10  N1  UNL     1     -13.639 -27.773 -25.585  1.00  0.00    -0.321 N 
HETATM   11  C5  UNL     1     -13.075 -29.044 -25.243  1.00  0.00     0.139 A 
HETATM   12  C6  UNL     1     -12.065 -28.939 -26.340  1.00  0.00     0.096 A 
HETATM   13  C7  UNL     1     -12.722 -27.658 -26.647  1.00  0.00     0.080 A 
HETATM   14  N2  UNL     1     -12.474 -26.786 -27.594  1.00  0.00    -0.389 N 
ATOM     15  H22 UNL     1     -12.929 -25.898 -27.807  1.00  0.00     0.157 HD
ATOM     16  H21 UNL     1     -11.809 -26.703 -28.363  1.00  0.00     0.157 HD
ENDBRANCH   2  10
BRANCH   1  17
HETATM   17  C2  UNL     1     -16.425 -28.405 -26.017  1.00  0.00     0.300 C 
HETATM   18  O2  UNL     1     -16.752 -29.493 -25.513  1.00  0.00    -0.259 OA
BRANCH  17  19
HETATM   19  O1  UNL     1     -16.504 -28.343 -27.410  1.00  0.00    -0.322 OA
HETATM   20  C1  UNL     1     -17.687 -28.725 -28.057  1.00  0.00     0.213 C 
ENDBRANCH  17  19
ENDBRANCH   1  17
BRANCH   5  21
HETATM   21  N4  UNL     1     -14.925 -23.938 -23.230  1.00  0.00    -0.234 N 
ATOM     22  H42 UNL     1     -14.869 -23.976 -22.213  1.00  0.00     0.174 HD
ATOM     23  H41 UNL     1     -14.717 -23.064 -23.714  1.00  0.00     0.174 HD
ENDBRANCH   5  21
TORSDOF 4
ENDMDL
