MODEL 1
REMARK VINA RESULT: -7.357258438      0.000      0.000
REMARK  7 active torsions:
REMARK  status: ('A' for Active; 'I' for Inactive)
REMARK    1  A    between atoms: C2_3  and  C3_4 
REMARK    2  A    between atoms: C3_4  and  C4_5 
REMARK    3  A    between atoms: C4_5  and  O1_6 
REMARK    4  A    between atoms: C4_5  and  N2_8 
REMARK    5  A    between atoms: N2_8  and  N3_10 
REMARK    6  A    between atoms: C5_12  and  C6_13 
REMARK    7  A    between atoms: C10_22  and  N7_23 
ROOT
HETATM    1  N1  UNL     1     -13.526 -28.314 -28.780  1.00  0.00    -0.192 NA
HETATM    2  C1  UNL     1     -12.450 -28.294 -28.356  1.00  0.00     0.088 C 
HETATM    3  C2  UNL     1     -11.116 -28.247 -27.878  1.00  0.00     0.098 C 
ENDROOT
BRANCH   3   4
HETATM    4  C3  UNL     1     -10.599 -28.615 -26.751  1.00  0.00     0.068 C 
BRANCH   4   5
HETATM    5  C4  UNL     1     -10.565 -27.932 -25.488  1.00  0.00     0.155 C 
BRANCH   5   6
HETATM    6  O1  UNL     1      -9.535 -28.196 -24.731  1.00  0.00    -0.345 OA
ATOM      7  H1  UNL     1      -9.737 -28.509 -23.857  1.00  0.00     0.219 HD
ENDBRANCH   5   6
BRANCH   5   8
HETATM    8  N2  UNL     1     -11.503 -27.026 -24.986  1.00  0.00    -0.281 N 
ATOM      9  H2  UNL     1     -11.195 -26.147 -24.570  1.00  0.00     0.189 HD
BRANCH   8  10
HETATM   10  N3  UNL     1     -12.892 -27.335 -25.061  1.00  0.00    -0.308 N 
HETATM   11  C5  UNL     1     -13.684 -26.413 -25.491  1.00  0.00     0.140 C 
ATOM     12  H3  UNL     1     -13.245 -28.251 -24.783  1.00  0.00     0.186 HD
BRANCH  11  13
HETATM   13  C6  UNL     1     -15.110 -26.757 -25.558  1.00  0.00     0.094 A 
HETATM   14  N4  UNL     1     -15.583 -27.534 -26.563  1.00  0.00    -0.342 N 
HETATM   15  C7  UNL     1     -16.879 -27.870 -26.660  1.00  0.00     0.130 A 
ATOM     16  H4  UNL     1     -14.931 -27.875 -27.270  1.00  0.00     0.167 HD
HETATM   17  C8  UNL     1     -17.384 -28.692 -27.723  1.00  0.00     0.119 C 
HETATM   18  C9  UNL     1     -17.700 -27.373 -25.671  1.00  0.00     0.130 A 
HETATM   19  N5  UNL     1     -17.774 -29.355 -28.586  1.00  0.00    -0.190 NA
HETATM   20  N6  UNL     1     -17.255 -26.606 -24.670  1.00  0.00    -0.348 N 
HETATM   21  C10 UNL     1     -15.933 -26.266 -24.577  1.00  0.00     0.127 A 
ATOM     22  H6  UNL     1     -17.912 -26.268 -23.966  1.00  0.00     0.167 HD
BRANCH  21  23
HETATM   23  N7  UNL     1     -15.545 -25.521 -23.592  1.00  0.00    -0.384 N 
ATOM     24  H72 UNL     1     -15.454 -25.936 -22.665  1.00  0.00     0.157 HD
ATOM     25  H71 UNL     1     -15.318 -24.529 -23.666  1.00  0.00     0.157 HD
ENDBRANCH  21  23
ENDBRANCH  11  13
ENDBRANCH   8  10
ENDBRANCH   5   8
ENDBRANCH   4   5
ENDBRANCH   3   4
TORSDOF 7
ENDMDL
MODEL 2
REMARK VINA RESULT: -6.909061324      1.489      3.338
REMARK  7 active torsions:
REMARK  status: ('A' for Active; 'I' for Inactive)
REMARK    1  A    between atoms: C2_3  and  C3_4 
REMARK    2  A    between atoms: C3_4  and  C4_5 
REMARK    3  A    between atoms: C4_5  and  O1_6 
REMARK    4  A    between atoms: C4_5  and  N2_8 
REMARK    5  A    between atoms: N2_8  and  N3_10 
REMARK    6  A    between atoms: C5_12  and  C6_13 
REMARK    7  A    between atoms: C10_22  and  N7_23 
ROOT
HETATM    1  N1  UNL     1     -12.716 -28.874 -29.545  1.00  0.00    -0.192 NA
HETATM    2  C1  UNL     1     -12.057 -28.397 -28.722  1.00  0.00     0.088 C 
HETATM    3  C2  UNL     1     -11.264 -27.769 -27.729  1.00  0.00     0.098 C 
ENDROOT
BRANCH   3   4
HETATM    4  C3  UNL     1     -10.512 -28.261 -26.799  1.00  0.00     0.068 C 
BRANCH   4   5
HETATM    5  C4  UNL     1     -10.854 -29.113 -25.694  1.00  0.00     0.155 C 
BRANCH   5   6
HETATM    6  O1  UNL     1      -9.863 -29.455 -24.917  1.00  0.00    -0.345 OA
ATOM      7  H1  UNL     1      -9.967 -30.279 -24.456  1.00  0.00     0.219 HD
ENDBRANCH   5   6
BRANCH   5   8
HETATM    8  N2  UNL     1     -12.117 -29.610 -25.364  1.00  0.00    -0.281 N 
ATOM      9  H2  UNL     1     -12.331 -30.598 -25.500  1.00  0.00     0.189 HD
BRANCH   8  10
HETATM   10  N3  UNL     1     -13.105 -28.730 -24.835  1.00  0.00    -0.308 N 
HETATM   11  C5  UNL     1     -14.074 -28.386 -25.613  1.00  0.00     0.140 C 
ATOM     12  H3  UNL     1     -13.047 -28.384 -23.877  1.00  0.00     0.186 HD
BRANCH  11  13
HETATM   13  C6  UNL     1     -15.078 -27.479 -25.044  1.00  0.00     0.094 A 
HETATM   14  N4  UNL     1     -14.792 -26.741 -23.944  1.00  0.00    -0.342 N 
HETATM   15  C7  UNL     1     -15.683 -25.901 -23.394  1.00  0.00     0.130 A 
ATOM     16  H4  UNL     1     -13.868 -26.827 -23.520  1.00  0.00     0.167 HD
HETATM   17  C8  UNL     1     -15.386 -25.117 -22.229  1.00  0.00     0.119 C 
HETATM   18  C9  UNL     1     -16.909 -25.836 -24.020  1.00  0.00     0.130 A 
HETATM   19  N5  UNL     1     -15.128 -24.494 -21.290  1.00  0.00    -0.190 NA
HETATM   20  N6  UNL     1     -17.213 -26.554 -25.106  1.00  0.00    -0.348 N 
HETATM   21  C10 UNL     1     -16.301 -27.410 -25.663  1.00  0.00     0.127 A 
ATOM     22  H6  UNL     1     -18.138 -26.464 -25.526  1.00  0.00     0.167 HD
BRANCH  21  23
HETATM   23  N7  UNL     1     -16.636 -28.086 -26.714  1.00  0.00    -0.384 N 
ATOM     24  H72 UNL     1     -17.126 -28.973 -26.595  1.00  0.00     0.157 HD
ATOM     25  H71 UNL     1     -16.448 -27.800 -27.675  1.00  0.00     0.157 HD
ENDBRANCH  21  23
ENDBRANCH  11  13
ENDBRANCH   8  10
ENDBRANCH   5   8
ENDBRANCH   4   5
ENDBRANCH   3   4
TORSDOF 7
ENDMDL
MODEL 3
REMARK VINA RESULT: -6.840360779      2.019      3.893
REMARK  7 active torsions:
REMARK  status: ('A' for Active; 'I' for Inactive)
REMARK    1  A    between atoms: C2_3  and  C3_4 
REMARK    2  A    between atoms: C3_4  and  C4_5 
REMARK    3  A    between atoms: C4_5  and  O1_6 
REMARK    4  A    between atoms: C4_5  and  N2_8 
REMARK    5  A    between atoms: N2_8  and  N3_10 
REMARK    6  A    between atoms: C5_12  and  C6_13 
REMARK    7  A    between atoms: C10_22  and  N7_23 
ROOT
HETATM    1  N1  UNL     1      -9.393 -29.747 -25.400  1.00  0.00    -0.192 NA
HETATM    2  C1  UNL     1     -10.063 -28.935 -25.880  1.00  0.00     0.088 C 
HETATM    3  C2  UNL     1     -10.887 -27.919 -26.424  1.00  0.00     0.098 C 
ENDROOT
BRANCH   3   4
HETATM    4  C3  UNL     1     -11.296 -27.706 -27.633  1.00  0.00     0.068 C 
BRANCH   4   5
HETATM    5  C4  UNL     1     -12.113 -28.524 -28.485  1.00  0.00     0.155 C 
BRANCH   5   6
HETATM    6  O1  UNL     1     -11.537 -28.955 -29.575  1.00  0.00    -0.345 OA
ATOM      7  H1  UNL     1     -11.216 -29.849 -29.543  1.00  0.00     0.219 HD
ENDBRANCH   5   6
BRANCH   5   8
HETATM    8  N2  UNL     1     -13.441 -28.905 -28.278  1.00  0.00    -0.281 N 
ATOM      9  H2  UNL     1     -13.861 -29.634 -28.855  1.00  0.00     0.189 HD
BRANCH   8  10
HETATM   10  N3  UNL     1     -14.205 -28.271 -27.257  1.00  0.00    -0.308 N 
HETATM   11  C5  UNL     1     -15.486 -28.242 -27.403  1.00  0.00     0.140 C 
ATOM     12  H3  UNL     1     -13.756 -27.856 -26.440  1.00  0.00     0.186 HD
BRANCH  11  13
HETATM   13  C6  UNL     1     -16.251 -27.584 -26.337  1.00  0.00     0.094 A 
HETATM   14  N4  UNL     1     -15.620 -26.830 -25.404  1.00  0.00    -0.342 N 
HETATM   15  C7  UNL     1     -16.283 -26.213 -24.413  1.00  0.00     0.130 A 
ATOM     16  H4  UNL     1     -14.606 -26.728 -25.456  1.00  0.00     0.167 HD
HETATM   17  C8  UNL     1     -15.619 -25.414 -23.422  1.00  0.00     0.119 C 
HETATM   18  C9  UNL     1     -17.649 -26.394 -24.405  1.00  0.00     0.130 A 
HETATM   19  N5  UNL     1     -15.067 -24.774 -22.633  1.00  0.00    -0.190 NA
HETATM   20  N6  UNL     1     -18.292 -27.133 -25.315  1.00  0.00    -0.348 N 
HETATM   21  C10 UNL     1     -17.611 -27.761 -26.323  1.00  0.00     0.127 A 
ATOM     22  H6  UNL     1     -19.306 -27.231 -25.258  1.00  0.00     0.167 HD
BRANCH  21  23
HETATM   23  N7  UNL     1     -18.273 -28.466 -27.183  1.00  0.00    -0.384 N 
ATOM     24  H72 UNL     1     -18.633 -29.378 -26.901  1.00  0.00     0.157 HD
ATOM     25  H71 UNL     1     -18.471 -28.179 -28.142  1.00  0.00     0.157 HD
ENDBRANCH  21  23
ENDBRANCH  11  13
ENDBRANCH   8  10
ENDBRANCH   5   8
ENDBRANCH   4   5
ENDBRANCH   3   4
TORSDOF 7
ENDMDL
MODEL 4
REMARK VINA RESULT: -6.786512292      2.058      3.160
REMARK  7 active torsions:
REMARK  status: ('A' for Active; 'I' for Inactive)
REMARK    1  A    between atoms: C2_3  and  C3_4 
REMARK    2  A    between atoms: C3_4  and  C4_5 
REMARK    3  A    between atoms: C4_5  and  O1_6 
REMARK    4  A    between atoms: C4_5  and  N2_8 
REMARK    5  A    between atoms: N2_8  and  N3_10 
REMARK    6  A    between atoms: C5_12  and  C6_13 
REMARK    7  A    between atoms: C10_22  and  N7_23 
ROOT
HETATM    1  N1  UNL     1      -9.373 -29.766 -25.440  1.00  0.00    -0.192 NA
HETATM    2  C1  UNL     1     -10.008 -28.942 -25.946  1.00  0.00     0.088 C 
HETATM    3  C2  UNL     1     -10.786 -27.908 -26.524  1.00  0.00     0.098 C 
ENDROOT
BRANCH   3   4
HETATM    4  C3  UNL     1     -11.234 -27.746 -27.727  1.00  0.00     0.068 C 
BRANCH   4   5
HETATM    5  C4  UNL     1     -12.108 -28.581 -28.503  1.00  0.00     0.155 C 
BRANCH   5   6
HETATM    6  O1  UNL     1     -11.626 -28.997 -29.642  1.00  0.00    -0.345 OA
ATOM      7  H1  UNL     1     -11.966 -28.562 -30.416  1.00  0.00     0.219 HD
ENDBRANCH   5   6
BRANCH   5   8
HETATM    8  N2  UNL     1     -13.401 -28.994 -28.175  1.00  0.00    -0.281 N 
ATOM      9  H2  UNL     1     -13.726 -29.923 -28.442  1.00  0.00     0.189 HD
BRANCH   8  10
HETATM   10  N3  UNL     1     -14.265 -28.110 -27.465  1.00  0.00    -0.308 N 
HETATM   11  C5  UNL     1     -14.469 -28.353 -26.215  1.00  0.00     0.140 C 
ATOM     12  H3  UNL     1     -14.704 -27.315 -27.929  1.00  0.00     0.186 HD
BRANCH  11  13
HETATM   13  C6  UNL     1     -15.361 -27.428 -25.507  1.00  0.00     0.094 A 
HETATM   14  N4  UNL     1     -16.703 -27.618 -25.527  1.00  0.00    -0.342 N 
HETATM   15  C7  UNL     1     -17.553 -26.794 -24.893  1.00  0.00     0.130 A 
ATOM     16  H4  UNL     1     -17.081 -28.414 -26.042  1.00  0.00     0.167 HD
HETATM   17  C8  UNL     1     -18.975 -26.990 -24.911  1.00  0.00     0.119 C 
HETATM   18  C9  UNL     1     -16.973 -25.741 -24.218  1.00  0.00     0.130 A 
HETATM   19  N5  UNL     1     -20.117 -27.164 -24.937  1.00  0.00    -0.190 NA
HETATM   20  N6  UNL     1     -15.652 -25.536 -24.185  1.00  0.00    -0.348 N 
HETATM   21  C10 UNL     1     -14.790 -26.378 -24.834  1.00  0.00     0.127 A 
ATOM     22  H6  UNL     1     -15.281 -24.738 -23.668  1.00  0.00     0.167 HD
BRANCH  21  23
HETATM   23  N7  UNL     1     -13.519 -26.142 -24.775  1.00  0.00    -0.384 N 
ATOM     24  H72 UNL     1     -13.174 -25.225 -25.059  1.00  0.00     0.157 HD
ATOM     25  H71 UNL     1     -12.816 -26.811 -24.461  1.00  0.00     0.157 HD
ENDBRANCH  21  23
ENDBRANCH  11  13
ENDBRANCH   8  10
ENDBRANCH   5   8
ENDBRANCH   4   5
ENDBRANCH   3   4
TORSDOF 7
ENDMDL
MODEL 5
REMARK VINA RESULT: -6.714252947      2.094      4.039
REMARK  7 active torsions:
REMARK  status: ('A' for Active; 'I' for Inactive)
REMARK    1  A    between atoms: C2_3  and  C3_4 
REMARK    2  A    between atoms: C3_4  and  C4_5 
REMARK    3  A    between atoms: C4_5  and  O1_6 
REMARK    4  A    between atoms: C4_5  and  N2_8 
REMARK    5  A    between atoms: N2_8  and  N3_10 
REMARK    6  A    between atoms: C5_12  and  C6_13 
REMARK    7  A    between atoms: C10_22  and  N7_23 
ROOT
HETATM    1  N1  UNL     1      -9.382 -28.431 -24.640  1.00  0.00    -0.192 NA
HETATM    2  C1  UNL     1      -9.905 -28.556 -25.664  1.00  0.00     0.088 C 
HETATM    3  C2  UNL     1     -10.525 -28.754 -26.923  1.00  0.00     0.098 C 
ENDROOT
BRANCH   3   4
HETATM    4  C3  UNL     1     -11.342 -28.013 -27.600  1.00  0.00     0.068 C 
BRANCH   4   5
HETATM    5  C4  UNL     1     -12.392 -28.391 -28.504  1.00  0.00     0.155 C 
BRANCH   5   6
HETATM    6  O1  UNL     1     -12.005 -28.951 -29.617  1.00  0.00    -0.345 OA
ATOM      7  H1  UNL     1     -11.233 -29.502 -29.553  1.00  0.00     0.219 HD
ENDBRANCH   5   6
BRANCH   5   8
HETATM    8  N2  UNL     1     -13.768 -28.227 -28.323  1.00  0.00    -0.281 N 
ATOM      9  H2  UNL     1     -14.412 -28.417 -29.091  1.00  0.00     0.189 HD
BRANCH   8  10
HETATM   10  N3  UNL     1     -14.267 -27.794 -27.061  1.00  0.00    -0.308 N 
HETATM   11  C5  UNL     1     -15.542 -27.849 -26.874  1.00  0.00     0.140 C 
ATOM     12  H3  UNL     1     -13.639 -27.454 -26.332  1.00  0.00     0.186 HD
BRANCH  11  13
HETATM   13  C6  UNL     1     -16.030 -27.397 -25.566  1.00  0.00     0.094 A 
HETATM   14  N4  UNL     1     -15.580 -26.238 -25.027  1.00  0.00    -0.342 N 
HETATM   15  C7  UNL     1     -16.002 -25.791 -23.833  1.00  0.00     0.130 A 
ATOM     16  H4  UNL     1     -14.898 -25.685 -25.547  1.00  0.00     0.167 HD
HETATM   17  C8  UNL     1     -15.528 -24.564 -23.258  1.00  0.00     0.119 C 
HETATM   18  C9  UNL     1     -16.924 -26.588 -23.189  1.00  0.00     0.130 A 
HETATM   19  N5  UNL     1     -15.135 -23.573 -22.811  1.00  0.00    -0.190 NA
HETATM   20  N6  UNL     1     -17.381 -27.735 -23.701  1.00  0.00    -0.348 N 
HETATM   21  C10 UNL     1     -16.948 -28.186 -24.919  1.00  0.00     0.127 A 
ATOM     22  H6  UNL     1     -18.064 -28.282 -23.177  1.00  0.00     0.167 HD
BRANCH  21  23
HETATM   23  N7  UNL     1     -17.417 -29.302 -25.377  1.00  0.00    -0.384 N 
ATOM     24  H72 UNL     1     -17.017 -30.179 -25.045  1.00  0.00     0.157 HD
ATOM     25  H71 UNL     1     -18.172 -29.379 -26.059  1.00  0.00     0.157 HD
ENDBRANCH  21  23
ENDBRANCH  11  13
ENDBRANCH   8  10
ENDBRANCH   5   8
ENDBRANCH   4   5
ENDBRANCH   3   4
TORSDOF 7
ENDMDL
