MODEL 1
REMARK VINA RESULT: -6.353237542      0.000      0.000
REMARK  5 active torsions:
REMARK  status: ('A' for Active; 'I' for Inactive)
REMARK    1  A    between atoms: C2_2  and  O1_3 
REMARK    2  A    between atoms: C2_2  and  N1_5 
REMARK    3  A    between atoms: N1_5  and  C3_7 
REMARK    4  A    between atoms: N4_12  and  O2_13 
REMARK    5  A    between atoms: C4_15  and  N5_16 
ROOT
HETATM    1  C3  UNL     1     -13.226 -27.492 -26.084  1.00  0.00     0.710 A 
HETATM    2  N2  UNL     1     -12.490 -26.883 -25.134  1.00  0.00    -0.115 N 
ATOM      3  H2  UNL     1     -12.942 -26.208 -24.516  1.00  0.00     0.207 HD
HETATM    4  N3  UNL     1     -11.197 -27.132 -24.977  1.00  0.00    -0.187 N 
ATOM      5  H3  UNL     1     -10.689 -26.641 -24.242  1.00  0.00     0.212 HD
HETATM    6  N4  UNL     1     -10.541 -27.994 -25.736  1.00  0.00     0.032 N 
HETATM    7  C4  UNL     1     -11.246 -28.621 -26.695  1.00  0.00     0.733 A 
HETATM    8  N6  UNL     1     -12.568 -28.371 -26.863  1.00  0.00    -0.018 N 
ATOM      9  H6  UNL     1     -13.077 -28.862 -27.598  1.00  0.00     0.203 HD
ENDROOT
BRANCH   1  10
HETATM   10  N1  UNL     1     -14.476 -27.216 -26.197  1.00  0.00    -0.198 N 
ATOM     11  H1  UNL     1     -14.710 -26.302 -26.587  1.00  0.00     0.180 HD
BRANCH  10  12
HETATM   12  C2  UNL     1     -15.561 -28.050 -25.835  1.00  0.00     0.231 C 
HETATM   13  C1  UNL     1     -16.738 -28.004 -26.758  1.00  0.00     0.063 C 
BRANCH  12  14
HETATM   14  O1  UNL     1     -15.066 -29.367 -25.693  1.00  0.00    -0.377 OA
ATOM     15  H1  UNL     1     -14.373 -29.546 -26.318  1.00  0.00     0.212 HD
ENDBRANCH  12  14
ENDBRANCH  10  12
ENDBRANCH   1  10
BRANCH   7  16
HETATM   16  N5  UNL     1     -10.610 -29.464 -27.440  1.00  0.00    -0.231 N 
ATOM     17  H52 UNL     1      -9.928 -30.119 -27.055  1.00  0.00     0.174 HD
ATOM     18  H51 UNL     1     -10.814 -29.451 -28.439  1.00  0.00     0.174 HD
ENDBRANCH   7  16
BRANCH   6  19
HETATM   19  O2  UNL     1      -9.195 -28.245 -25.561  1.00  0.00    -0.253 OA
ATOM     20  H2  UNL     1      -8.877 -29.076 -25.230  1.00  0.00     0.247 HD
ENDBRANCH   6  19
TORSDOF 5
ENDMDL
MODEL 2
REMARK VINA RESULT: -6.201024082      1.397      1.572
REMARK  5 active torsions:
REMARK  status: ('A' for Active; 'I' for Inactive)
REMARK    1  A    between atoms: C2_2  and  O1_3 
REMARK    2  A    between atoms: C2_2  and  N1_5 
REMARK    3  A    between atoms: N1_5  and  C3_7 
REMARK    4  A    between atoms: N4_12  and  O2_13 
REMARK    5  A    between atoms: C4_15  and  N5_16 
ROOT
HETATM    1  C3  UNL     1     -13.253 -29.114 -26.056  1.00  0.00     0.710 A 
HETATM    2  N2  UNL     1     -12.479 -29.684 -25.111  1.00  0.00    -0.115 N 
ATOM      3  H2  UNL     1     -12.907 -30.327 -24.444  1.00  0.00     0.207 HD
HETATM    4  N3  UNL     1     -11.180 -29.437 -25.021  1.00  0.00    -0.187 N 
ATOM      5  H3  UNL     1     -10.643 -29.896 -24.285  1.00  0.00     0.212 HD
HETATM    6  N4  UNL     1     -10.552 -28.618 -25.849  1.00  0.00     0.032 N 
HETATM    7  C4  UNL     1     -11.294 -28.031 -26.805  1.00  0.00     0.733 A 
HETATM    8  N6  UNL     1     -12.624 -28.278 -26.903  1.00  0.00    -0.018 N 
ATOM      9  H6  UNL     1     -13.162 -27.819 -27.638  1.00  0.00     0.203 HD
ENDROOT
BRANCH   1  10
HETATM   10  N1  UNL     1     -14.508 -29.385 -26.100  1.00  0.00    -0.198 N 
ATOM     11  H1  UNL     1     -14.768 -30.285 -26.505  1.00  0.00     0.180 HD
BRANCH  10  12
HETATM   12  C2  UNL     1     -15.566 -28.562 -25.645  1.00  0.00     0.231 C 
HETATM   13  C1  UNL     1     -16.190 -27.688 -26.689  1.00  0.00     0.063 C 
BRANCH  12  14
HETATM   14  O1  UNL     1     -16.526 -29.394 -25.026  1.00  0.00    -0.377 OA
ATOM     15  H1  UNL     1     -16.492 -29.318 -24.079  1.00  0.00     0.212 HD
ENDBRANCH  12  14
ENDBRANCH  10  12
ENDBRANCH   1  10
BRANCH   7  16
HETATM   16  N5  UNL     1     -10.687 -27.229 -27.616  1.00  0.00    -0.231 N 
ATOM     17  H52 UNL     1     -11.123 -26.900 -28.478  1.00  0.00     0.174 HD
ATOM     18  H51 UNL     1      -9.744 -26.934 -27.362  1.00  0.00     0.174 HD
ENDBRANCH   7  16
BRANCH   6  19
HETATM   19  O2  UNL     1      -9.198 -28.369 -25.744  1.00  0.00    -0.253 OA
ATOM     20  H2  UNL     1      -8.759 -27.738 -26.302  1.00  0.00     0.247 HD
ENDBRANCH   6  19
TORSDOF 5
ENDMDL
MODEL 3
REMARK VINA RESULT: -6.163939685      1.479      1.658
REMARK  5 active torsions:
REMARK  status: ('A' for Active; 'I' for Inactive)
REMARK    1  A    between atoms: C2_2  and  O1_3 
REMARK    2  A    between atoms: C2_2  and  N1_5 
REMARK    3  A    between atoms: N1_5  and  C3_7 
REMARK    4  A    between atoms: N4_12  and  O2_13 
REMARK    5  A    between atoms: C4_15  and  N5_16 
ROOT
HETATM    1  C3  UNL     1     -13.539 -28.814 -26.121  1.00  0.00     0.710 A 
HETATM    2  N2  UNL     1     -12.948 -29.611 -25.210  1.00  0.00    -0.115 N 
ATOM      3  H2  UNL     1     -13.531 -30.214 -24.629  1.00  0.00     0.207 HD
HETATM    4  N3  UNL     1     -11.633 -29.637 -25.044  1.00  0.00    -0.187 N 
ATOM      5  H3  UNL     1     -11.239 -30.259 -24.338  1.00  0.00     0.212 HD
HETATM    6  N4  UNL     1     -10.810 -28.886 -25.759  1.00  0.00     0.032 N 
HETATM    7  C4  UNL     1     -11.367 -28.077 -26.679  1.00  0.00     0.733 A 
HETATM    8  N6  UNL     1     -12.711 -28.045 -26.854  1.00  0.00    -0.018 N 
ATOM      9  H6  UNL     1     -13.106 -27.423 -27.559  1.00  0.00     0.203 HD
ENDROOT
BRANCH   1  10
HETATM   10  N1  UNL     1     -14.818 -28.825 -26.243  1.00  0.00    -0.198 N 
ATOM     11  H1  UNL     1     -15.286 -29.718 -26.083  1.00  0.00     0.180 HD
BRANCH  10  12
HETATM   12  C2  UNL     1     -15.643 -27.724 -26.577  1.00  0.00     0.231 C 
HETATM   13  C1  UNL     1     -17.098 -28.041 -26.735  1.00  0.00     0.063 C 
BRANCH  12  14
HETATM   14  O1  UNL     1     -15.435 -26.717 -25.607  1.00  0.00    -0.377 OA
ATOM     15  H1  UNL     1     -15.969 -25.950 -25.783  1.00  0.00     0.212 HD
ENDBRANCH  12  14
ENDBRANCH  10  12
ENDBRANCH   1  10
BRANCH   7  16
HETATM   16  N5  UNL     1     -10.569 -27.341 -27.379  1.00  0.00    -0.231 N 
ATOM     17  H52 UNL     1      -9.635 -27.657 -27.643  1.00  0.00     0.174 HD
ATOM     18  H51 UNL     1     -10.909 -26.422 -27.662  1.00  0.00     0.174 HD
ENDBRANCH   7  16
BRANCH   6  19
HETATM   19  O2  UNL     1      -9.443 -28.922 -25.576  1.00  0.00    -0.253 OA
ATOM     20  H2  UNL     1      -9.048 -28.857 -24.715  1.00  0.00     0.247 HD
ENDBRANCH   6  19
TORSDOF 5
ENDMDL
MODEL 4
REMARK VINA RESULT: -6.140339408      0.822      1.818
REMARK  5 active torsions:
REMARK  status: ('A' for Active; 'I' for Inactive)
REMARK    1  A    between atoms: C2_2  and  O1_3 
REMARK    2  A    between atoms: C2_2  and  N1_5 
REMARK    3  A    between atoms: N1_5  and  C3_7 
REMARK    4  A    between atoms: N4_12  and  O2_13 
REMARK    5  A    between atoms: C4_15  and  N5_16 
ROOT
HETATM    1  C3  UNL     1     -13.109 -27.982 -26.505  1.00  0.00     0.710 A 
HETATM    2  N2  UNL     1     -12.534 -28.950 -27.246  1.00  0.00    -0.115 N 
ATOM      3  H2  UNL     1     -13.078 -29.395 -27.985  1.00  0.00     0.207 HD
HETATM    4  N3  UNL     1     -11.283 -29.341 -27.045  1.00  0.00    -0.187 N 
ATOM      5  H3  UNL     1     -10.899 -30.079 -27.635  1.00  0.00     0.212 HD
HETATM    6  N4  UNL     1     -10.513 -28.812 -26.108  1.00  0.00     0.032 N 
HETATM    7  C4  UNL     1     -11.056 -27.843 -25.349  1.00  0.00     0.733 A 
HETATM    8  N6  UNL     1     -12.335 -27.437 -25.548  1.00  0.00    -0.018 N 
ATOM      9  H6  UNL     1     -12.720 -26.700 -24.958  1.00  0.00     0.203 HD
ENDROOT
BRANCH   1  10
HETATM   10  N1  UNL     1     -14.325 -27.639 -26.739  1.00  0.00    -0.198 N 
ATOM     11  H1  UNL     1     -14.477 -26.982 -27.505  1.00  0.00     0.180 HD
BRANCH  10  12
HETATM   12  C2  UNL     1     -15.475 -28.080 -26.041  1.00  0.00     0.231 C 
HETATM   13  C1  UNL     1     -16.765 -27.950 -26.789  1.00  0.00     0.063 C 
BRANCH  12  14
HETATM   14  O1  UNL     1     -15.248 -29.413 -25.630  1.00  0.00    -0.377 OA
ATOM     15  H1  UNL     1     -15.120 -29.989 -26.376  1.00  0.00     0.212 HD
ENDBRANCH  12  14
ENDBRANCH  10  12
ENDBRANCH   1  10
BRANCH   7  16
HETATM   16  N5  UNL     1     -10.309 -27.322 -24.431  1.00  0.00    -0.231 N 
ATOM     17  H52 UNL     1     -10.538 -27.400 -23.440  1.00  0.00     0.174 HD
ATOM     18  H51 UNL     1      -9.473 -26.824 -24.737  1.00  0.00     0.174 HD
ENDBRANCH   7  16
BRANCH   6  19
HETATM   19  O2  UNL     1      -9.213 -29.228 -25.908  1.00  0.00    -0.253 OA
ATOM     20  H2  UNL     1      -8.483 -28.842 -26.379  1.00  0.00     0.247 HD
ENDBRANCH   6  19
TORSDOF 5
ENDMDL
MODEL 5
REMARK VINA RESULT: -5.953657255      1.802      4.781
REMARK  5 active torsions:
REMARK  status: ('A' for Active; 'I' for Inactive)
REMARK    1  A    between atoms: C2_2  and  O1_3 
REMARK    2  A    between atoms: C2_2  and  N1_5 
REMARK    3  A    between atoms: N1_5  and  C3_7 
REMARK    4  A    between atoms: N4_12  and  O2_13 
REMARK    5  A    between atoms: C4_15  and  N5_16 
ROOT
HETATM    1  C3  UNL     1     -12.412 -29.008 -25.426  1.00  0.00     0.710 A 
HETATM    2  N2  UNL     1     -13.299 -29.704 -26.163  1.00  0.00    -0.115 N 
ATOM      3  H2  UNL     1     -13.045 -30.635 -26.493  1.00  0.00     0.207 HD
HETATM    4  N3  UNL     1     -14.493 -29.217 -26.471  1.00  0.00    -0.187 N 
ATOM      5  H3  UNL     1     -15.125 -29.788 -27.033  1.00  0.00     0.212 HD
HETATM    6  N4  UNL     1     -14.897 -28.020 -26.079  1.00  0.00     0.032 N 
HETATM    7  C4  UNL     1     -14.035 -27.297 -25.342  1.00  0.00     0.733 A 
HETATM    8  N6  UNL     1     -12.812 -27.788 -25.022  1.00  0.00    -0.018 N 
ATOM      9  H6  UNL     1     -12.179 -27.218 -24.461  1.00  0.00     0.203 HD
ENDROOT
BRANCH   1  10
HETATM   10  N1  UNL     1     -11.266 -29.524 -25.154  1.00  0.00    -0.198 N 
ATOM     11  H1  UNL     1     -11.270 -30.401 -24.633  1.00  0.00     0.180 HD
BRANCH  10  12
HETATM   12  C2  UNL     1     -10.000 -28.998 -25.505  1.00  0.00     0.231 C 
HETATM   13  C1  UNL     1      -9.966 -28.210 -26.778  1.00  0.00     0.063 C 
BRANCH  12  14
HETATM   14  O1  UNL     1      -9.530 -28.234 -24.412  1.00  0.00    -0.377 OA
ATOM     15  H1  UNL     1      -8.663 -27.882 -24.582  1.00  0.00     0.212 HD
ENDBRANCH  12  14
ENDBRANCH  10  12
ENDBRANCH   1  10
BRANCH   7  16
HETATM   16  N5  UNL     1     -14.424 -26.127 -24.956  1.00  0.00    -0.231 N 
ATOM     17  H52 UNL     1     -13.952 -25.621 -24.206  1.00  0.00     0.174 HD
ATOM     18  H51 UNL     1     -15.228 -25.721 -25.434  1.00  0.00     0.174 HD
ENDBRANCH   7  16
BRANCH   6  19
HETATM   19  O2  UNL     1     -16.143 -27.525 -26.408  1.00  0.00    -0.253 OA
ATOM     20  H2  UNL     1     -16.430 -26.662 -26.132  1.00  0.00     0.247 HD
ENDBRANCH   6  19
TORSDOF 5
ENDMDL
