MODEL 1
REMARK VINA RESULT: -7.827754877      0.000      0.000
REMARK  14 active torsions:
REMARK  status: ('A' for Active; 'I' for Inactive)
REMARK    1  A    between atoms: C2_2  and  C3_3 
REMARK    2  A    between atoms: C3_3  and  C4_4 
REMARK    3  A    between atoms: C6_9  and  C7_10 
REMARK    4  A    between atoms: C7_10  and  C8_11 
REMARK    5  A    between atoms: C8_11  and  C9_12 
REMARK    6  A    between atoms: C9_12  and  C10_13 
REMARK    7  A    between atoms: C10_13  and  C11_14 
REMARK    8  A    between atoms: C11_14  and  C12_15 
REMARK    9  A    between atoms: C12_15  and  C13_17 
REMARK   10  A    between atoms: C13_17  and  C14_18 
REMARK   11  A    between atoms: C14_18  and  C15_19 
REMARK   12  A    between atoms: C15_19  and  O4_21 
REMARK   13  A    between atoms: C20_32  and  C21_33 
REMARK   14  A    between atoms: C21_33  and  O8_35 
ROOT
HETATM    1  C4  UNL     1      -0.372  -1.123 -22.081  1.00  0.00     0.092 C 
HETATM    2  C5  UNL     1      -1.702  -0.636 -21.807  1.00  0.00     0.223 C 
HETATM    3  O1  UNL     1      -1.748   0.407 -21.074  1.00  0.00    -0.273 OA
HETATM    4  N1  UNL     1      -2.980  -1.096 -22.200  1.00  0.00    -0.347 N 
ATOM      5  H1  UNL     1      -3.769  -0.554 -21.847  1.00  0.00     0.163 HD
HETATM    6  C6  UNL     1      -3.322  -2.214 -23.021  1.00  0.00     0.176 C 
HETATM    7  C17 UNL     1      -3.283  -1.979 -24.482  1.00  0.00     0.240 C 
HETATM    8  O5  UNL     1      -2.276  -2.477 -25.108  1.00  0.00    -0.271 OA
HETATM    9  N2  UNL     1      -4.211  -1.288 -25.249  1.00  0.00    -0.351 N 
ATOM     10  H2  UNL     1      -4.532  -1.768 -26.089  1.00  0.00     0.163 HD
HETATM   11  C18 UNL     1      -4.784   0.021 -25.020  1.00  0.00     0.225 C 
HETATM   12  C19 UNL     1      -4.414   0.901 -26.180  1.00  0.00     0.236 C 
HETATM   13  O6  UNL     1      -5.354   1.127 -26.995  1.00  0.00    -0.272 OA
HETATM   14  N3  UNL     1      -3.115   1.434 -26.346  1.00  0.00    -0.346 N 
ATOM     15  H3  UNL     1      -2.717   1.503 -27.283  1.00  0.00     0.163 HD
HETATM   16  C20 UNL     1      -2.359   1.873 -25.235  1.00  0.00     0.185 C 
HETATM   17  C23 UNL     1      -0.881   1.939 -25.414  1.00  0.00     0.051 C 
HETATM   18  C24 UNL     1      -0.230   0.558 -25.401  1.00  0.00     0.051 C 
HETATM   19  C25 UNL     1      -0.150  -0.037 -26.750  1.00  0.00     0.022 C 
HETATM   20  C26 UNL     1       0.187   0.029 -24.251  1.00  0.00    -0.173 C 
HETATM   21  C27 UNL     1       0.499  -0.232 -22.955  1.00  0.00     0.061 C 
HETATM   22  C28 UNL     1       2.004  -0.549 -22.714  1.00  0.00     0.023 C 
ENDROOT
BRANCH   6  23
HETATM   23  C7  UNL     1      -4.671  -2.790 -22.582  1.00  0.00     0.035 C 
BRANCH  23  24
HETATM   24  C8  UNL     1      -4.643  -4.172 -22.097  1.00  0.00     0.002 C 
BRANCH  24  25
HETATM   25  C9  UNL     1      -3.309  -4.844 -22.022  1.00  0.00     0.000 C 
BRANCH  25  26
HETATM   26  C10 UNL     1      -3.129  -5.497 -20.662  1.00  0.00     0.007 C 
BRANCH  26  27
HETATM   27  C11 UNL     1      -2.710  -6.943 -20.881  1.00  0.00     0.078 C 
BRANCH  27  28
HETATM   28  C12 UNL     1      -3.475  -7.882 -19.996  1.00  0.00     0.127 C 
HETATM   29  O2  UNL     1      -4.294  -8.607 -20.521  1.00  0.00    -0.298 OA
BRANCH  28  30
HETATM   30  C13 UNL     1      -3.180  -7.859 -18.558  1.00  0.00     0.088 C 
BRANCH  30  31
HETATM   31  C14 UNL     1      -1.792  -8.288 -18.189  1.00  0.00     0.118 C 
BRANCH  31  32
HETATM   32  C15 UNL     1      -1.060  -7.279 -17.395  1.00  0.00     0.258 C 
HETATM   33  O3  UNL     1      -0.792  -7.511 -16.200  1.00  0.00    -0.265 OA
BRANCH  32  34
HETATM   34  O4  UNL     1      -0.685  -6.077 -18.017  1.00  0.00    -0.326 OA
HETATM   35  C16 UNL     1       0.275  -5.263 -17.331  1.00  0.00     0.213 C 
ENDBRANCH  32  34
ENDBRANCH  31  32
ENDBRANCH  30  31
ENDBRANCH  28  30
ENDBRANCH  27  28
ENDBRANCH  26  27
ENDBRANCH  25  26
ENDBRANCH  24  25
ENDBRANCH  23  24
ENDBRANCH   6  23
BRANCH   1  36
HETATM   36  C3  UNL     1       0.439  -1.513 -20.876  1.00  0.00     0.015 C 
BRANCH  36  37
HETATM   37  C2  UNL     1      -0.084  -2.726 -20.133  1.00  0.00    -0.004 C 
HETATM   38  C1  UNL     1       0.208  -4.001 -20.895  1.00  0.00     0.005 C 
ENDBRANCH  36  37
ENDBRANCH   1  36
BRANCH  16  39
HETATM   39  C21 UNL     1      -2.933   3.137 -24.717  1.00  0.00     0.281 C 
HETATM   40  O7  UNL     1      -4.007   3.065 -24.051  1.00  0.00    -0.263 OA
BRANCH  39  41
HETATM   41  O8  UNL     1      -2.321   4.335 -24.954  1.00  0.00    -0.325 OA
HETATM   42  C22 UNL     1      -1.895   5.068 -23.808  1.00  0.00     0.213 C 
ENDBRANCH  39  41
ENDBRANCH  16  39
TORSDOF 14
ENDMDL
MODEL 2
REMARK VINA RESULT: -7.775542943      0.896      1.064
REMARK  14 active torsions:
REMARK  status: ('A' for Active; 'I' for Inactive)
REMARK    1  A    between atoms: C2_2  and  C3_3 
REMARK    2  A    between atoms: C3_3  and  C4_4 
REMARK    3  A    between atoms: C6_9  and  C7_10 
REMARK    4  A    between atoms: C7_10  and  C8_11 
REMARK    5  A    between atoms: C8_11  and  C9_12 
REMARK    6  A    between atoms: C9_12  and  C10_13 
REMARK    7  A    between atoms: C10_13  and  C11_14 
REMARK    8  A    between atoms: C11_14  and  C12_15 
REMARK    9  A    between atoms: C12_15  and  C13_17 
REMARK   10  A    between atoms: C13_17  and  C14_18 
REMARK   11  A    between atoms: C14_18  and  C15_19 
REMARK   12  A    between atoms: C15_19  and  O4_21 
REMARK   13  A    between atoms: C20_32  and  C21_33 
REMARK   14  A    between atoms: C21_33  and  O8_35 
ROOT
HETATM    1  C4  UNL     1      -0.427  -1.106 -22.019  1.00  0.00     0.092 C 
HETATM    2  C5  UNL     1      -1.759  -0.618 -21.758  1.00  0.00     0.223 C 
HETATM    3  O1  UNL     1      -1.809   0.447 -21.058  1.00  0.00    -0.273 OA
HETATM    4  N1  UNL     1      -3.035  -1.098 -22.132  1.00  0.00    -0.347 N 
ATOM      5  H1  UNL     1      -3.826  -0.550 -21.794  1.00  0.00     0.163 HD
HETATM    6  C6  UNL     1      -3.371  -2.244 -22.917  1.00  0.00     0.176 C 
HETATM    7  C17 UNL     1      -3.337  -2.056 -24.385  1.00  0.00     0.240 C 
HETATM    8  O5  UNL     1      -2.329  -2.567 -24.996  1.00  0.00    -0.271 OA
HETATM    9  N2  UNL     1      -4.271  -1.394 -25.171  1.00  0.00    -0.351 N 
ATOM     10  H2  UNL     1      -4.592  -1.903 -25.994  1.00  0.00     0.163 HD
HETATM   11  C18 UNL     1      -4.852  -0.083 -24.981  1.00  0.00     0.225 C 
HETATM   12  C19 UNL     1      -4.490   0.762 -26.169  1.00  0.00     0.236 C 
HETATM   13  O6  UNL     1      -5.434   0.956 -26.990  1.00  0.00    -0.272 OA
HETATM   14  N3  UNL     1      -3.195   1.298 -26.356  1.00  0.00    -0.346 N 
ATOM     15  H3  UNL     1      -2.800   1.339 -27.296  1.00  0.00     0.163 HD
HETATM   16  C20 UNL     1      -2.439   1.777 -25.261  1.00  0.00     0.185 C 
HETATM   17  C23 UNL     1      -0.963   1.846 -25.447  1.00  0.00     0.051 C 
HETATM   18  C24 UNL     1      -0.303   0.470 -25.391  1.00  0.00     0.051 C 
HETATM   19  C25 UNL     1      -0.222  -0.167 -26.721  1.00  0.00     0.022 C 
HETATM   20  C26 UNL     1       0.121  -0.020 -24.226  1.00  0.00    -0.173 C 
HETATM   21  C27 UNL     1       0.437  -0.237 -22.923  1.00  0.00     0.061 C 
HETATM   22  C28 UNL     1       1.945  -0.537 -22.676  1.00  0.00     0.023 C 
ENDROOT
BRANCH   6  23
HETATM   23  C7  UNL     1      -4.716  -2.814 -22.456  1.00  0.00     0.035 C 
BRANCH  23  24
HETATM   24  C8  UNL     1      -4.763  -4.269 -22.284  1.00  0.00     0.002 C 
BRANCH  24  25
HETATM   25  C9  UNL     1      -3.601  -4.914 -21.599  1.00  0.00     0.000 C 
BRANCH  25  26
HETATM   26  C10 UNL     1      -4.015  -6.260 -21.026  1.00  0.00     0.007 C 
BRANCH  26  27
HETATM   27  C11 UNL     1      -2.775  -6.940 -20.467  1.00  0.00     0.078 C 
BRANCH  27  28
HETATM   28  C12 UNL     1      -2.572  -6.616 -19.017  1.00  0.00     0.127 C 
HETATM   29  O2  UNL     1      -3.485  -6.856 -18.254  1.00  0.00    -0.298 OA
BRANCH  28  30
HETATM   30  C13 UNL     1      -1.285  -6.032 -18.620  1.00  0.00     0.088 C 
BRANCH  30  31
HETATM   31  C14 UNL     1      -0.583  -6.746 -17.505  1.00  0.00     0.118 C 
BRANCH  31  32
HETATM   32  C15 UNL     1       0.307  -5.866 -16.718  1.00  0.00     0.258 C 
HETATM   33  O3  UNL     1       0.392  -6.020 -15.483  1.00  0.00    -0.265 OA
BRANCH  32  34
HETATM   34  O4  UNL     1       1.038  -4.874 -17.392  1.00  0.00    -0.326 OA
HETATM   35  C16 UNL     1       2.313  -5.258 -17.926  1.00  0.00     0.213 C 
ENDBRANCH  32  34
ENDBRANCH  31  32
ENDBRANCH  30  31
ENDBRANCH  28  30
ENDBRANCH  27  28
ENDBRANCH  26  27
ENDBRANCH  25  26
ENDBRANCH  24  25
ENDBRANCH  23  24
ENDBRANCH   6  23
BRANCH   1  36
HETATM   36  C3  UNL     1       0.390  -1.452 -20.805  1.00  0.00     0.015 C 
BRANCH  36  37
HETATM   37  C2  UNL     1       0.142  -2.843 -20.257  1.00  0.00    -0.004 C 
HETATM   38  C1  UNL     1      -0.117  -3.832 -21.374  1.00  0.00     0.005 C 
ENDBRANCH  36  37
ENDBRANCH   1  36
BRANCH  16  39
HETATM   39  C21 UNL     1      -3.020   3.052 -24.782  1.00  0.00     0.281 C 
HETATM   40  O7  UNL     1      -4.148   3.006 -24.210  1.00  0.00    -0.263 OA
BRANCH  39  41
HETATM   41  O8  UNL     1      -2.357   4.234 -24.955  1.00  0.00    -0.325 OA
HETATM   42  C22 UNL     1      -1.952   4.915 -23.769  1.00  0.00     0.213 C 
ENDBRANCH  39  41
ENDBRANCH  16  39
TORSDOF 14
ENDMDL
MODEL 3
REMARK VINA RESULT: -7.735032997      1.083      1.308
REMARK  14 active torsions:
REMARK  status: ('A' for Active; 'I' for Inactive)
REMARK    1  A    between atoms: C2_2  and  C3_3 
REMARK    2  A    between atoms: C3_3  and  C4_4 
REMARK    3  A    between atoms: C6_9  and  C7_10 
REMARK    4  A    between atoms: C7_10  and  C8_11 
REMARK    5  A    between atoms: C8_11  and  C9_12 
REMARK    6  A    between atoms: C9_12  and  C10_13 
REMARK    7  A    between atoms: C10_13  and  C11_14 
REMARK    8  A    between atoms: C11_14  and  C12_15 
REMARK    9  A    between atoms: C12_15  and  C13_17 
REMARK   10  A    between atoms: C13_17  and  C14_18 
REMARK   11  A    between atoms: C14_18  and  C15_19 
REMARK   12  A    between atoms: C15_19  and  O4_21 
REMARK   13  A    between atoms: C20_32  and  C21_33 
REMARK   14  A    between atoms: C21_33  and  O8_35 
ROOT
HETATM    1  C4  UNL     1      -0.454  -1.229 -21.924  1.00  0.00     0.092 C 
HETATM    2  C5  UNL     1      -1.800  -0.781 -21.664  1.00  0.00     0.223 C 
HETATM    3  O1  UNL     1      -1.883   0.265 -20.939  1.00  0.00    -0.273 OA
HETATM    4  N1  UNL     1      -3.060  -1.282 -22.062  1.00  0.00    -0.347 N 
ATOM      5  H1  UNL     1      -3.868  -0.762 -21.720  1.00  0.00     0.163 HD
HETATM    6  C6  UNL     1      -3.361  -2.416 -22.878  1.00  0.00     0.176 C 
HETATM    7  C17 UNL     1      -3.318  -2.191 -24.341  1.00  0.00     0.240 C 
HETATM    8  O5  UNL     1      -2.291  -2.663 -24.955  1.00  0.00    -0.271 OA
HETATM    9  N2  UNL     1      -4.261  -1.534 -25.120  1.00  0.00    -0.351 N 
ATOM     10  H2  UNL     1      -4.561  -2.030 -25.959  1.00  0.00     0.163 HD
HETATM   11  C18 UNL     1      -4.875  -0.241 -24.905  1.00  0.00     0.225 C 
HETATM   12  C19 UNL     1      -4.523   0.641 -26.068  1.00  0.00     0.236 C 
HETATM   13  O6  UNL     1      -5.463   0.832 -26.893  1.00  0.00    -0.272 OA
HETATM   14  N3  UNL     1      -3.239   1.212 -26.229  1.00  0.00    -0.346 N 
ATOM     15  H3  UNL     1      -2.836   1.286 -27.163  1.00  0.00     0.163 HD
HETATM   16  C20 UNL     1      -2.506   1.682 -25.115  1.00  0.00     0.185 C 
HETATM   17  C23 UNL     1      -1.030   1.792 -25.284  1.00  0.00     0.051 C 
HETATM   18  C24 UNL     1      -0.337   0.431 -25.255  1.00  0.00     0.051 C 
HETATM   19  C25 UNL     1      -0.228  -0.170 -26.599  1.00  0.00     0.022 C 
HETATM   20  C26 UNL     1       0.087  -0.076 -24.098  1.00  0.00    -0.173 C 
HETATM   21  C27 UNL     1       0.397  -0.318 -22.797  1.00  0.00     0.061 C 
HETATM   22  C28 UNL     1       1.909  -0.588 -22.543  1.00  0.00     0.023 C 
ENDROOT
BRANCH   6  23
HETATM   23  C7  UNL     1      -4.695  -3.030 -22.445  1.00  0.00     0.035 C 
BRANCH  23  24
HETATM   24  C8  UNL     1      -4.637  -4.424 -21.997  1.00  0.00     0.002 C 
BRANCH  24  25
HETATM   25  C9  UNL     1      -3.456  -4.829 -21.174  1.00  0.00     0.000 C 
BRANCH  25  26
HETATM   26  C10 UNL     1      -2.833  -6.093 -21.743  1.00  0.00     0.007 C 
BRANCH  26  27
HETATM   27  C11 UNL     1      -2.390  -6.969 -20.582  1.00  0.00     0.078 C 
BRANCH  27  28
HETATM   28  C12 UNL     1      -3.554  -7.643 -19.920  1.00  0.00     0.127 C 
HETATM   29  O2  UNL     1      -4.238  -8.381 -20.601  1.00  0.00    -0.298 OA
BRANCH  28  30
HETATM   30  C13 UNL     1      -3.788  -7.366 -18.498  1.00  0.00     0.088 C 
BRANCH  30  31
HETATM   31  C14 UNL     1      -2.599  -7.574 -17.609  1.00  0.00     0.118 C 
BRANCH  31  32
HETATM   32  C15 UNL     1      -2.536  -8.931 -17.025  1.00  0.00     0.258 C 
HETATM   33  O3  UNL     1      -1.920  -9.833 -17.626  1.00  0.00    -0.265 OA
BRANCH  32  34
HETATM   34  O4  UNL     1      -3.179  -9.164 -15.798  1.00  0.00    -0.326 OA
HETATM   35  C16 UNL     1      -2.830  -8.301 -14.708  1.00  0.00     0.213 C 
ENDBRANCH  32  34
ENDBRANCH  31  32
ENDBRANCH  30  31
ENDBRANCH  28  30
ENDBRANCH  27  28
ENDBRANCH  26  27
ENDBRANCH  25  26
ENDBRANCH  24  25
ENDBRANCH  23  24
ENDBRANCH   6  23
BRANCH   1  36
HETATM   36  C3  UNL     1       0.360  -1.585 -20.710  1.00  0.00     0.015 C 
BRANCH  36  37
HETATM   37  C2  UNL     1      -0.036  -2.891 -20.049  1.00  0.00    -0.004 C 
HETATM   38  C1  UNL     1       0.133  -4.057 -21.000  1.00  0.00     0.005 C 
ENDBRANCH  36  37
ENDBRANCH   1  36
BRANCH  16  39
HETATM   39  C21 UNL     1      -3.123   2.931 -24.611  1.00  0.00     0.281 C 
HETATM   40  O7  UNL     1      -4.163   2.827 -23.897  1.00  0.00    -0.263 OA
BRANCH  39  41
HETATM   41  O8  UNL     1      -2.583   4.150 -24.910  1.00  0.00    -0.325 OA
HETATM   42  C22 UNL     1      -2.008   4.874 -23.824  1.00  0.00     0.213 C 
ENDBRANCH  39  41
ENDBRANCH  16  39
TORSDOF 14
ENDMDL
MODEL 4
REMARK VINA RESULT: -7.669397814      0.954      1.157
REMARK  14 active torsions:
REMARK  status: ('A' for Active; 'I' for Inactive)
REMARK    1  A    between atoms: C2_2  and  C3_3 
REMARK    2  A    between atoms: C3_3  and  C4_4 
REMARK    3  A    between atoms: C6_9  and  C7_10 
REMARK    4  A    between atoms: C7_10  and  C8_11 
REMARK    5  A    between atoms: C8_11  and  C9_12 
REMARK    6  A    between atoms: C9_12  and  C10_13 
REMARK    7  A    between atoms: C10_13  and  C11_14 
REMARK    8  A    between atoms: C11_14  and  C12_15 
REMARK    9  A    between atoms: C12_15  and  C13_17 
REMARK   10  A    between atoms: C13_17  and  C14_18 
REMARK   11  A    between atoms: C14_18  and  C15_19 
REMARK   12  A    between atoms: C15_19  and  O4_21 
REMARK   13  A    between atoms: C20_32  and  C21_33 
REMARK   14  A    between atoms: C21_33  and  O8_35 
ROOT
HETATM    1  C4  UNL     1      -0.526  -1.221 -21.996  1.00  0.00     0.092 C 
HETATM    2  C5  UNL     1      -1.858  -0.728 -21.748  1.00  0.00     0.223 C 
HETATM    3  O1  UNL     1      -1.913   0.315 -21.016  1.00  0.00    -0.273 OA
HETATM    4  N1  UNL     1      -3.131  -1.181 -22.166  1.00  0.00    -0.347 N 
ATOM      5  H1  UNL     1      -3.923  -0.636 -21.829  1.00  0.00     0.163 HD
HETATM    6  C6  UNL     1      -3.461  -2.297 -22.995  1.00  0.00     0.176 C 
HETATM    7  C17 UNL     1      -3.391  -2.062 -24.455  1.00  0.00     0.240 C 
HETATM    8  O5  UNL     1      -2.375  -2.565 -25.061  1.00  0.00    -0.271 OA
HETATM    9  N2  UNL     1      -4.301  -1.366 -25.240  1.00  0.00    -0.351 N 
ATOM     10  H2  UNL     1      -4.608  -1.844 -26.087  1.00  0.00     0.163 HD
HETATM   11  C18 UNL     1      -4.872  -0.054 -25.021  1.00  0.00     0.225 C 
HETATM   12  C19 UNL     1      -4.475   0.824 -26.173  1.00  0.00     0.236 C 
HETATM   13  O6  UNL     1      -5.397   1.055 -27.007  1.00  0.00    -0.272 OA
HETATM   14  N3  UNL     1      -3.170   1.351 -26.313  1.00  0.00    -0.346 N 
ATOM     15  H3  UNL     1      -2.753   1.419 -27.242  1.00  0.00     0.163 HD
HETATM   16  C20 UNL     1      -2.434   1.786 -25.187  1.00  0.00     0.185 C 
HETATM   17  C23 UNL     1      -0.953   1.845 -25.337  1.00  0.00     0.051 C 
HETATM   18  C24 UNL     1      -0.309   0.461 -25.312  1.00  0.00     0.051 C 
HETATM   19  C25 UNL     1      -0.204  -0.133 -26.659  1.00  0.00     0.022 C 
HETATM   20  C26 UNL     1       0.083  -0.071 -24.153  1.00  0.00    -0.173 C 
HETATM   21  C27 UNL     1       0.367  -0.334 -22.851  1.00  0.00     0.061 C 
HETATM   22  C28 UNL     1       1.866  -0.658 -22.580  1.00  0.00     0.023 C 
ENDROOT
BRANCH   6  23
HETATM   23  C7  UNL     1      -4.821  -2.867 -22.583  1.00  0.00     0.035 C 
BRANCH  23  24
HETATM   24  C8  UNL     1      -4.838  -4.295 -22.256  1.00  0.00     0.002 C 
BRANCH  24  25
HETATM   25  C9  UNL     1      -3.612  -4.865 -21.617  1.00  0.00     0.000 C 
BRANCH  25  26
HETATM   26  C10 UNL     1      -3.935  -6.201 -20.968  1.00  0.00     0.007 C 
BRANCH  26  27
HETATM   27  C11 UNL     1      -2.696  -7.079 -21.047  1.00  0.00     0.078 C 
BRANCH  27  28
HETATM   28  C12 UNL     1      -2.071  -7.279 -19.699  1.00  0.00     0.127 C 
HETATM   29  O2  UNL     1      -1.081  -6.627 -19.435  1.00  0.00    -0.298 OA
BRANCH  28  30
HETATM   30  C13 UNL     1      -2.699  -8.247 -18.791  1.00  0.00     0.088 C 
BRANCH  30  31
HETATM   31  C14 UNL     1      -3.221  -7.669 -17.511  1.00  0.00     0.118 C 
BRANCH  31  32
HETATM   32  C15 UNL     1      -2.576  -8.238 -16.307  1.00  0.00     0.258 C 
HETATM   33  O3  UNL     1      -3.271  -8.519 -15.311  1.00  0.00    -0.265 OA
BRANCH  32  34
HETATM   34  O4  UNL     1      -1.188  -8.447 -16.325  1.00  0.00    -0.326 OA
HETATM   35  C16 UNL     1      -0.362  -7.363 -15.878  1.00  0.00     0.213 C 
ENDBRANCH  32  34
ENDBRANCH  31  32
ENDBRANCH  30  31
ENDBRANCH  28  30
ENDBRANCH  27  28
ENDBRANCH  26  27
ENDBRANCH  25  26
ENDBRANCH  24  25
ENDBRANCH  23  24
ENDBRANCH   6  23
BRANCH   1  36
HETATM   36  C3  UNL     1       0.260  -1.615 -20.775  1.00  0.00     0.015 C 
BRANCH  36  37
HETATM   37  C2  UNL     1       0.110  -3.070 -20.375  1.00  0.00    -0.004 C 
HETATM   38  C1  UNL     1      -0.158  -3.944 -21.582  1.00  0.00     0.005 C 
ENDBRANCH  36  37
ENDBRANCH   1  36
BRANCH  16  39
HETATM   39  C21 UNL     1      -3.013   3.052 -24.680  1.00  0.00     0.281 C 
HETATM   40  O7  UNL     1      -4.087   2.982 -24.014  1.00  0.00    -0.263 OA
BRANCH  39  41
HETATM   41  O8  UNL     1      -2.404   4.250 -24.925  1.00  0.00    -0.325 OA
HETATM   42  C22 UNL     1      -1.902   4.952 -23.790  1.00  0.00     0.213 C 
ENDBRANCH  39  41
ENDBRANCH  16  39
TORSDOF 14
ENDMDL
MODEL 5
REMARK VINA RESULT: -7.572947934      1.045      1.438
REMARK  14 active torsions:
REMARK  status: ('A' for Active; 'I' for Inactive)
REMARK    1  A    between atoms: C2_2  and  C3_3 
REMARK    2  A    between atoms: C3_3  and  C4_4 
REMARK    3  A    between atoms: C6_9  and  C7_10 
REMARK    4  A    between atoms: C7_10  and  C8_11 
REMARK    5  A    between atoms: C8_11  and  C9_12 
REMARK    6  A    between atoms: C9_12  and  C10_13 
REMARK    7  A    between atoms: C10_13  and  C11_14 
REMARK    8  A    between atoms: C11_14  and  C12_15 
REMARK    9  A    between atoms: C12_15  and  C13_17 
REMARK   10  A    between atoms: C13_17  and  C14_18 
REMARK   11  A    between atoms: C14_18  and  C15_19 
REMARK   12  A    between atoms: C15_19  and  O4_21 
REMARK   13  A    between atoms: C20_32  and  C21_33 
REMARK   14  A    between atoms: C21_33  and  O8_35 
ROOT
HETATM    1  C4  UNL     1      -0.400  -1.120 -22.078  1.00  0.00     0.092 C 
HETATM    2  C5  UNL     1      -1.737  -0.654 -21.803  1.00  0.00     0.223 C 
HETATM    3  O1  UNL     1      -1.797   0.405 -21.095  1.00  0.00    -0.273 OA
HETATM    4  N1  UNL     1      -3.009  -1.149 -22.172  1.00  0.00    -0.347 N 
ATOM      5  H1  UNL     1      -3.805  -0.615 -21.824  1.00  0.00     0.163 HD
HETATM    6  C6  UNL     1      -3.335  -2.293 -22.963  1.00  0.00     0.176 C 
HETATM    7  C17 UNL     1      -3.314  -2.093 -24.430  1.00  0.00     0.240 C 
HETATM    8  O5  UNL     1      -2.303  -2.585 -25.053  1.00  0.00    -0.271 OA
HETATM    9  N2  UNL     1      -4.263  -1.439 -25.204  1.00  0.00    -0.351 N 
ATOM     10  H2  UNL     1      -4.583  -1.946 -26.029  1.00  0.00     0.163 HD
HETATM   11  C18 UNL     1      -4.861  -0.137 -25.000  1.00  0.00     0.225 C 
HETATM   12  C19 UNL     1      -4.520   0.722 -26.184  1.00  0.00     0.236 C 
HETATM   13  O6  UNL     1      -5.472   0.910 -26.996  1.00  0.00    -0.272 OA
HETATM   14  N3  UNL     1      -3.233   1.278 -26.376  1.00  0.00    -0.346 N 
ATOM     15  H3  UNL     1      -2.845   1.332 -27.318  1.00  0.00     0.163 HD
HETATM   16  C20 UNL     1      -2.476   1.759 -25.283  1.00  0.00     0.185 C 
HETATM   17  C23 UNL     1      -1.002   1.850 -25.478  1.00  0.00     0.051 C 
HETATM   18  C24 UNL     1      -0.323   0.483 -25.439  1.00  0.00     0.051 C 
HETATM   19  C25 UNL     1      -0.242  -0.142 -26.774  1.00  0.00     0.022 C 
HETATM   20  C26 UNL     1       0.116  -0.010 -24.280  1.00  0.00    -0.173 C 
HETATM   21  C27 UNL     1       0.445  -0.233 -22.981  1.00  0.00     0.061 C 
HETATM   22  C28 UNL     1       1.959  -0.514 -22.747  1.00  0.00     0.023 C 
ENDROOT
BRANCH   6  23
HETATM   23  C7  UNL     1      -4.668  -2.886 -22.497  1.00  0.00     0.035 C 
BRANCH  23  24
HETATM   24  C8  UNL     1      -4.619  -4.277 -22.040  1.00  0.00     0.002 C 
BRANCH  24  25
HETATM   25  C9  UNL     1      -3.272  -4.923 -21.961  1.00  0.00     0.000 C 
BRANCH  25  26
HETATM   26  C10 UNL     1      -3.397  -6.317 -21.369  1.00  0.00     0.007 C 
BRANCH  26  27
HETATM   27  C11 UNL     1      -3.759  -6.178 -19.898  1.00  0.00     0.078 C 
BRANCH  27  28
HETATM   28  C12 UNL     1      -2.613  -5.644 -19.093  1.00  0.00     0.127 C 
HETATM   29  O2  UNL     1      -2.714  -4.519 -18.649  1.00  0.00    -0.298 OA
BRANCH  28  30
HETATM   30  C13 UNL     1      -1.449  -6.517 -18.897  1.00  0.00     0.088 C 
BRANCH  30  31
HETATM   31  C14 UNL     1      -1.756  -7.857 -18.299  1.00  0.00     0.118 C 
BRANCH  31  32
HETATM   32  C15 UNL     1      -1.809  -7.838 -16.821  1.00  0.00     0.258 C 
HETATM   33  O3  UNL     1      -0.789  -7.534 -16.172  1.00  0.00    -0.265 OA
BRANCH  32  34
HETATM   34  O4  UNL     1      -3.019  -8.166 -16.189  1.00  0.00    -0.326 OA
HETATM   35  C16 UNL     1      -2.951  -8.516 -14.800  1.00  0.00     0.213 C 
ENDBRANCH  32  34
ENDBRANCH  31  32
ENDBRANCH  30  31
ENDBRANCH  28  30
ENDBRANCH  27  28
ENDBRANCH  26  27
ENDBRANCH  25  26
ENDBRANCH  24  25
ENDBRANCH  23  24
ENDBRANCH   6  23
BRANCH   1  36
HETATM   36  C3  UNL     1       0.431  -1.464 -20.872  1.00  0.00     0.015 C 
BRANCH  36  37
HETATM   37  C2  UNL     1      -0.019  -2.711 -20.135  1.00  0.00    -0.004 C 
HETATM   38  C1  UNL     1       0.140  -3.944 -21.000  1.00  0.00     0.005 C 
ENDBRANCH  36  37
ENDBRANCH   1  36
BRANCH  16  39
HETATM   39  C21 UNL     1      -3.072   3.022 -24.790  1.00  0.00     0.281 C 
HETATM   40  O7  UNL     1      -4.202   2.958 -24.224  1.00  0.00    -0.263 OA
BRANCH  39  41
HETATM   41  O8  UNL     1      -2.419   4.212 -24.943  1.00  0.00    -0.325 OA
HETATM   42  C22 UNL     1      -1.995   4.863 -23.747  1.00  0.00     0.213 C 
ENDBRANCH  39  41
ENDBRANCH  16  39
TORSDOF 14
ENDMDL
