MODEL 1
REMARK VINA RESULT: -6.989060287      0.000      0.000
REMARK  6 active torsions:
REMARK  status: ('A' for Active; 'I' for Inactive)
REMARK    1  A    between atoms: C2_2  and  C3_3 
REMARK    2  A    between atoms: C3_3  and  N1_4 
REMARK    3  A    between atoms: C4_6  and  C5_7 
REMARK    4  A    between atoms: C4_6  and  C7_10 
REMARK    5  A    between atoms: C7_10  and  O2_12 
REMARK    6  A    between atoms: O2_12  and  C8_13 
ROOT
HETATM    1  C5  UNL     1      24.090  24.897  12.486  1.00  0.00     0.187 C 
HETATM    2  C6  UNL     1      25.290  24.833  11.629  1.00  0.00     0.065 C 
HETATM    3  N2  UNL     1      26.243  24.789  10.969  1.00  0.00    -0.197 NA
ENDROOT
BRANCH   1   4
HETATM    4  C4  UNL     1      24.317  25.717  13.676  1.00  0.00     0.094 C 
HETATM    5  N1  UNL     1      24.693  25.151  14.778  1.00  0.00    -0.384 N 
ATOM      6  H1  UNL     1      24.843  25.744  15.594  1.00  0.00     0.159 HD
BRANCH   5   7
HETATM    7  C3  UNL     1      24.910  23.744  14.923  1.00  0.00     0.146 C 
BRANCH   7   8
HETATM    8  C2  UNL     1      26.248  23.564  15.574  1.00  0.00    -0.018 C 
HETATM    9  C1  UNL     1      27.343  23.707  14.856  1.00  0.00     0.008 C 
ENDBRANCH   7   8
ENDBRANCH   5   7
BRANCH   4  10
HETATM   10  C7  UNL     1      24.131  27.161  13.655  1.00  0.00     0.307 C 
HETATM   11  O1  UNL     1      25.118  27.893  13.510  1.00  0.00    -0.258 OA
BRANCH  10  12
HETATM   12  O2  UNL     1      22.903  27.771  13.789  1.00  0.00    -0.306 OA
BRANCH  12  13
HETATM   13  C8  UNL     1      22.198  27.753  14.995  1.00  0.00     0.060 C 
HETATM   14  C9  UNL     1      21.109  28.822  14.882  1.00  0.00     0.046 C 
HETATM   15  C10 UNL     1      23.052  28.073  16.188  1.00  0.00     0.046 C 
HETATM   16  C11 UNL     1      21.484  26.452  15.262  1.00  0.00     0.046 C 
ENDBRANCH  12  13
ENDBRANCH  10  12
ENDBRANCH   4  10
ENDBRANCH   1   4
TORSDOF 6
ENDMDL
MODEL 2
REMARK VINA RESULT: -6.695199100      1.094      1.487
REMARK  6 active torsions:
REMARK  status: ('A' for Active; 'I' for Inactive)
REMARK    1  A    between atoms: C2_2  and  C3_3 
REMARK    2  A    between atoms: C3_3  and  N1_4 
REMARK    3  A    between atoms: C4_6  and  C5_7 
REMARK    4  A    between atoms: C4_6  and  C7_10 
REMARK    5  A    between atoms: C7_10  and  O2_12 
REMARK    6  A    between atoms: O2_12  and  C8_13 
ROOT
HETATM    1  C5  UNL     1      25.503  26.453  12.334  1.00  0.00     0.187 C 
HETATM    2  C6  UNL     1      25.979  25.380  11.438  1.00  0.00     0.065 C 
HETATM    3  N2  UNL     1      26.341  24.527  10.741  1.00  0.00    -0.197 NA
ENDROOT
BRANCH   1   4
HETATM    4  C4  UNL     1      24.736  25.919  13.458  1.00  0.00     0.094 C 
HETATM    5  N1  UNL     1      25.350  25.283  14.405  1.00  0.00    -0.384 N 
ATOM      6  H1  UNL     1      24.791  24.918  15.177  1.00  0.00     0.159 HD
BRANCH   5   7
HETATM    7  C3  UNL     1      26.762  25.059  14.434  1.00  0.00     0.146 C 
BRANCH   7   8
HETATM    8  C2  UNL     1      26.995  23.771  15.166  1.00  0.00    -0.018 C 
HETATM    9  C1  UNL     1      26.035  23.269  15.915  1.00  0.00     0.008 C 
ENDBRANCH   7   8
ENDBRANCH   5   7
BRANCH   4  10
HETATM   10  C7  UNL     1      23.291  26.082  13.544  1.00  0.00     0.307 C 
HETATM   11  O1  UNL     1      22.560  25.119  13.280  1.00  0.00    -0.258 OA
BRANCH  10  12
HETATM   12  O2  UNL     1      22.679  27.263  13.906  1.00  0.00    -0.306 OA
BRANCH  12  13
HETATM   13  C8  UNL     1      22.356  27.548  15.235  1.00  0.00     0.060 C 
HETATM   14  C9  UNL     1      21.202  28.552  15.199  1.00  0.00     0.046 C 
HETATM   15  C10 UNL     1      23.491  28.159  16.005  1.00  0.00     0.046 C 
HETATM   16  C11 UNL     1      21.851  26.355  16.007  1.00  0.00     0.046 C 
ENDBRANCH  12  13
ENDBRANCH  10  12
ENDBRANCH   4  10
ENDBRANCH   1   4
TORSDOF 6
ENDMDL
MODEL 3
REMARK VINA RESULT: -6.634526403      1.216      1.411
REMARK  6 active torsions:
REMARK  status: ('A' for Active; 'I' for Inactive)
REMARK    1  A    between atoms: C2_2  and  C3_3 
REMARK    2  A    between atoms: C3_3  and  N1_4 
REMARK    3  A    between atoms: C4_6  and  C5_7 
REMARK    4  A    between atoms: C4_6  and  C7_10 
REMARK    5  A    between atoms: C7_10  and  O2_12 
REMARK    6  A    between atoms: O2_12  and  C8_13 
ROOT
HETATM    1  C5  UNL     1      25.078  25.905  11.820  1.00  0.00     0.187 C 
HETATM    2  C6  UNL     1      23.862  25.095  11.608  1.00  0.00     0.065 C 
HETATM    3  N2  UNL     1      22.900  24.465  11.455  1.00  0.00    -0.197 NA
ENDROOT
BRANCH   1   4
HETATM    4  C4  UNL     1      25.197  26.349  13.209  1.00  0.00     0.094 C 
HETATM    5  N1  UNL     1      25.854  25.623  14.057  1.00  0.00    -0.384 N 
ATOM      6  H1  UNL     1      25.920  25.953  15.019  1.00  0.00     0.159 HD
BRANCH   5   7
HETATM    7  C3  UNL     1      26.492  24.386  13.727  1.00  0.00     0.146 C 
BRANCH   7   8
HETATM    8  C2  UNL     1      26.950  23.763  15.011  1.00  0.00    -0.018 C 
HETATM    9  C1  UNL     1      26.057  23.367  15.895  1.00  0.00     0.008 C 
ENDBRANCH   7   8
ENDBRANCH   5   7
BRANCH   4  10
HETATM   10  C7  UNL     1      24.592  27.592  13.668  1.00  0.00     0.307 C 
HETATM   11  O1  UNL     1      25.325  28.520  14.033  1.00  0.00    -0.258 OA
BRANCH  10  12
HETATM   12  O2  UNL     1      23.231  27.800  13.722  1.00  0.00    -0.306 OA
BRANCH  12  13
HETATM   13  C8  UNL     1      22.480  27.481  14.856  1.00  0.00     0.060 C 
HETATM   14  C9  UNL     1      21.276  28.426  14.864  1.00  0.00     0.046 C 
HETATM   15  C10 UNL     1      23.235  27.665  16.140  1.00  0.00     0.046 C 
HETATM   16  C11 UNL     1      21.916  26.082  14.837  1.00  0.00     0.046 C 
ENDBRANCH  12  13
ENDBRANCH  10  12
ENDBRANCH   4  10
ENDBRANCH   1   4
TORSDOF 6
ENDMDL
MODEL 4
REMARK VINA RESULT: -6.598146150      1.215      1.784
REMARK  6 active torsions:
REMARK  status: ('A' for Active; 'I' for Inactive)
REMARK    1  A    between atoms: C2_2  and  C3_3 
REMARK    2  A    between atoms: C3_3  and  N1_4 
REMARK    3  A    between atoms: C4_6  and  C5_7 
REMARK    4  A    between atoms: C4_6  and  C7_10 
REMARK    5  A    between atoms: C7_10  and  O2_12 
REMARK    6  A    between atoms: O2_12  and  C8_13 
ROOT
HETATM    1  C5  UNL     1      25.086  25.870  11.806  1.00  0.00     0.187 C 
HETATM    2  C6  UNL     1      23.861  25.070  11.603  1.00  0.00     0.065 C 
HETATM    3  N2  UNL     1      22.892  24.450  11.458  1.00  0.00    -0.197 NA
ENDROOT
BRANCH   1   4
HETATM    4  C4  UNL     1      25.209  26.328  13.189  1.00  0.00     0.094 C 
HETATM    5  N1  UNL     1      25.873  25.614  14.041  1.00  0.00    -0.384 N 
ATOM      6  H1  UNL     1      25.943  25.954  15.000  1.00  0.00     0.159 HD
BRANCH   5   7
HETATM    7  C3  UNL     1      26.514  24.375  13.721  1.00  0.00     0.146 C 
BRANCH   7   8
HETATM    8  C2  UNL     1      26.957  23.755  15.012  1.00  0.00    -0.018 C 
HETATM    9  C1  UNL     1      26.055  23.383  15.896  1.00  0.00     0.008 C 
ENDBRANCH   7   8
ENDBRANCH   5   7
BRANCH   4  10
HETATM   10  C7  UNL     1      24.602  27.573  13.639  1.00  0.00     0.307 C 
HETATM   11  O1  UNL     1      25.333  28.497  14.018  1.00  0.00    -0.258 OA
BRANCH  10  12
HETATM   12  O2  UNL     1      23.241  27.789  13.666  1.00  0.00    -0.306 OA
BRANCH  12  13
HETATM   13  C8  UNL     1      22.488  27.599  14.827  1.00  0.00     0.060 C 
HETATM   14  C9  UNL     1      22.021  26.142  14.812  1.00  0.00     0.046 C 
HETATM   15  C10 UNL     1      21.277  28.483  14.902  1.00  0.00     0.046 C 
HETATM   16  C11 UNL     1      23.279  27.774  16.100  1.00  0.00     0.046 C 
ENDBRANCH  12  13
ENDBRANCH  10  12
ENDBRANCH   4  10
ENDBRANCH   1   4
TORSDOF 6
ENDMDL
MODEL 5
REMARK VINA RESULT: -6.459573104      1.813      2.458
REMARK  6 active torsions:
REMARK  status: ('A' for Active; 'I' for Inactive)
REMARK    1  A    between atoms: C2_2  and  C3_3 
REMARK    2  A    between atoms: C3_3  and  N1_4 
REMARK    3  A    between atoms: C4_6  and  C5_7 
REMARK    4  A    between atoms: C4_6  and  C7_10 
REMARK    5  A    between atoms: C7_10  and  O2_12 
REMARK    6  A    between atoms: O2_12  and  C8_13 
ROOT
HETATM    1  C5  UNL     1      23.002  23.712  13.832  1.00  0.00     0.187 C 
HETATM    2  C6  UNL     1      23.157  24.346  12.508  1.00  0.00     0.065 C 
HETATM    3  N2  UNL     1      23.288  24.857  11.475  1.00  0.00    -0.197 NA
ENDROOT
BRANCH   1   4
HETATM    4  C4  UNL     1      23.273  24.654  14.918  1.00  0.00     0.094 C 
HETATM    5  N1  UNL     1      24.481  24.781  15.366  1.00  0.00    -0.384 N 
ATOM      6  H1  UNL     1      24.643  25.444  16.125  1.00  0.00     0.159 HD
BRANCH   5   7
HETATM    7  C3  UNL     1      25.603  24.050  14.863  1.00  0.00     0.146 C 
BRANCH   7   8
HETATM    8  C2  UNL     1      26.601  25.051  14.364  1.00  0.00    -0.018 C 
HETATM    9  C1  UNL     1      26.191  26.064  13.628  1.00  0.00     0.008 C 
ENDBRANCH   7   8
ENDBRANCH   5   7
BRANCH   4  10
HETATM   10  C7  UNL     1      22.214  25.458  15.514  1.00  0.00     0.307 C 
HETATM   11  O1  UNL     1      21.780  25.148  16.631  1.00  0.00    -0.258 OA
BRANCH  10  12
HETATM   12  O2  UNL     1      21.659  26.559  14.900  1.00  0.00    -0.306 OA
BRANCH  12  13
HETATM   13  C8  UNL     1      22.270  27.815  14.946  1.00  0.00     0.060 C 
HETATM   14  C9  UNL     1      21.143  28.850  14.960  1.00  0.00     0.046 C 
HETATM   15  C10 UNL     1      23.151  28.091  13.762  1.00  0.00     0.046 C 
HETATM   16  C11 UNL     1      23.075  28.053  16.199  1.00  0.00     0.046 C 
ENDBRANCH  12  13
ENDBRANCH  10  12
ENDBRANCH   4  10
ENDBRANCH   1   4
TORSDOF 6
ENDMDL
