MODEL 1
REMARK VINA RESULT: -6.109174921      0.000      0.000
REMARK  10 active torsions:
REMARK  status: ('A' for Active; 'I' for Inactive)
REMARK    1  A    between atoms: C2_2  and  C3_3 
REMARK    2  A    between atoms: C3_3  and  C4_4 
REMARK    3  A    between atoms: C4_4  and  C5_5 
REMARK    4  A    between atoms: C4_4  and  C17_23 
REMARK       I    between atoms: C5_5  and  N1_7 
REMARK    5  A    between atoms: N2_10  and  C8_11 
REMARK    6  A    between atoms: C8_11  and  N3_13 
REMARK    7  A    between atoms: N3_13  and  C9_15 
REMARK    8  A    between atoms: C17_23  and  C18_25 
REMARK    9  A    between atoms: C18_25  and  O2_26 
REMARK   10  A    between atoms: C18_25  and  C19_28 
ROOT
HETATM    1  C5  UNL     1      -8.742  32.034   0.367  1.00  0.00     0.252 C 
HETATM    2  O1  UNL     1      -9.261  32.967  -0.374  1.00  0.00    -0.268 OA
HETATM    3  N1  UNL     1      -9.284  30.784   0.104  1.00  0.00    -0.336 N 
HETATM    4  C6  UNL     1     -10.370  30.661  -0.921  1.00  0.00     0.147 C 
HETATM    5  C7  UNL     1      -9.912  29.709  -2.006  1.00  0.00     0.145 C 
HETATM    6  N2  UNL     1      -9.565  28.423  -1.408  1.00  0.00    -0.354 N 
HETATM    7  C13 UNL     1      -9.700  28.370   0.032  1.00  0.00     0.155 C 
HETATM    8  C14 UNL     1      -8.909  29.535   0.698  1.00  0.00     0.044 C 
HETATM    9  C15 UNL     1      -7.460  29.151   0.490  1.00  0.00     0.040 C 
HETATM   10  C16 UNL     1      -9.231  29.397   2.160  1.00  0.00     0.040 C 
ENDROOT
BRANCH   1  11
HETATM   11  C4  UNL     1      -7.717  32.358   1.335  1.00  0.00     0.036 C 
BRANCH  11  12
HETATM   12  C3  UNL     1      -8.336  33.200   2.420  1.00  0.00     0.072 C 
BRANCH  12  13
HETATM   13  C2  UNL     1      -7.548  34.286   2.972  1.00  0.00    -0.032 C 
HETATM   14  C1  UNL     1      -7.049  34.186   4.198  1.00  0.00     0.007 C 
ENDBRANCH  12  13
ENDBRANCH  11  12
BRANCH  11  15
HETATM   15  C17 UNL     1      -6.368  32.653   0.885  1.00  0.00     0.071 C 
HETATM   16  N4  UNL     1      -6.281  32.644  -0.588  1.00  0.00    -0.103 NA
BRANCH  15  17
HETATM   17  C18 UNL     1      -5.145  32.045   1.416  1.00  0.00     0.227 C 
BRANCH  17  18
HETATM   18  O2  UNL     1      -5.245  31.153   2.447  1.00  0.00    -0.383 OA
ATOM     19  H2  UNL     1      -4.510  30.580   2.632  1.00  0.00     0.211 HD
ENDBRANCH  17  18
BRANCH  17  20
HETATM   20  C19 UNL     1      -4.517  31.271   0.269  1.00  0.00     0.268 C 
HETATM   21  O3  UNL     1      -3.390  31.521  -0.092  1.00  0.00    -0.304 OA
ENDBRANCH  17  20
ENDBRANCH  15  17
ENDBRANCH  11  15
ENDBRANCH   1  11
BRANCH   6  22
HETATM   22  C8  UNL     1      -9.147  27.381  -2.241  1.00  0.00     0.170 C 
HETATM   23  S1  UNL     1      -9.008  27.677  -3.863  1.00  0.00    -0.041 SA
BRANCH  22  24
HETATM   24  N3  UNL     1      -8.841  26.085  -1.741  1.00  0.00    -0.359 N 
ATOM     25  H3  UNL     1      -9.582  25.421  -1.520  1.00  0.00     0.162 HD
BRANCH  24  26
HETATM   26  C9  UNL     1      -7.435  25.732  -1.551  1.00  0.00     0.021 C 
HETATM   27  C10 UNL     1      -7.147  24.430  -2.253  1.00  0.00     0.037 C 
HETATM   28  C11 UNL     1      -6.536  26.795  -2.144  1.00  0.00     0.037 C 
HETATM   29  C12 UNL     1      -7.201  25.650  -0.056  1.00  0.00     0.037 C 
ENDBRANCH  24  26
ENDBRANCH  22  24
ENDBRANCH   6  22
TORSDOF 10
ENDMDL
MODEL 2
REMARK VINA RESULT: -6.106063038      2.099      3.652
REMARK  10 active torsions:
REMARK  status: ('A' for Active; 'I' for Inactive)
REMARK    1  A    between atoms: C2_2  and  C3_3 
REMARK    2  A    between atoms: C3_3  and  C4_4 
REMARK    3  A    between atoms: C4_4  and  C5_5 
REMARK    4  A    between atoms: C4_4  and  C17_23 
REMARK       I    between atoms: C5_5  and  N1_7 
REMARK    5  A    between atoms: N2_10  and  C8_11 
REMARK    6  A    between atoms: C8_11  and  N3_13 
REMARK    7  A    between atoms: N3_13  and  C9_15 
REMARK    8  A    between atoms: C17_23  and  C18_25 
REMARK    9  A    between atoms: C18_25  and  O2_26 
REMARK   10  A    between atoms: C18_25  and  C19_28 
ROOT
HETATM    1  C5  UNL     1      -9.098  28.584  -0.029  1.00  0.00     0.252 C 
HETATM    2  O1  UNL     1     -10.265  28.973  -0.447  1.00  0.00    -0.268 OA
HETATM    3  N1  UNL     1      -8.678  27.411  -0.639  1.00  0.00    -0.336 N 
HETATM    4  C6  UNL     1      -9.581  26.741  -1.630  1.00  0.00     0.147 C 
HETATM    5  C7  UNL     1      -8.862  26.644  -2.959  1.00  0.00     0.145 C 
HETATM    6  N2  UNL     1      -7.604  25.924  -2.778  1.00  0.00    -0.354 N 
HETATM    7  C13 UNL     1      -7.332  25.517  -1.416  1.00  0.00     0.155 C 
HETATM    8  C14 UNL     1      -7.428  26.736  -0.451  1.00  0.00     0.044 C 
HETATM    9  C15 UNL     1      -6.210  27.565  -0.797  1.00  0.00     0.040 C 
HETATM   10  C16 UNL     1      -7.221  26.133   0.910  1.00  0.00     0.040 C 
ENDROOT
BRANCH   1  11
HETATM   11  C4  UNL     1      -8.388  29.355   0.969  1.00  0.00     0.036 C 
BRANCH  11  12
HETATM   12  C3  UNL     1      -8.842  28.903   2.332  1.00  0.00     0.072 C 
BRANCH  12  13
HETATM   13  C2  UNL     1     -10.078  29.453   2.855  1.00  0.00    -0.032 C 
HETATM   14  C1  UNL     1     -10.955  28.658   3.458  1.00  0.00     0.007 C 
ENDBRANCH  12  13
ENDBRANCH  11  12
BRANCH  11  15
HETATM   15  C17 UNL     1      -8.121  30.764   0.736  1.00  0.00     0.071 C 
HETATM   16  N4  UNL     1      -8.263  31.106  -0.692  1.00  0.00    -0.103 NA
BRANCH  15  17
HETATM   17  C18 UNL     1      -6.980  31.510   1.272  1.00  0.00     0.227 C 
BRANCH  17  18
HETATM   18  O2  UNL     1      -5.929  30.817   1.805  1.00  0.00    -0.383 OA
ATOM     19  H2  UNL     1      -5.898  30.682   2.745  1.00  0.00     0.211 HD
ENDBRANCH  17  18
BRANCH  17  20
HETATM   20  C19 UNL     1      -6.399  32.300   0.111  1.00  0.00     0.268 C 
HETATM   21  O3  UNL     1      -5.207  32.491   0.037  1.00  0.00    -0.304 OA
ENDBRANCH  17  20
ENDBRANCH  15  17
ENDBRANCH  11  15
ENDBRANCH   1  11
BRANCH   6  22
HETATM   22  C8  UNL     1      -6.793  25.690  -3.892  1.00  0.00     0.170 C 
HETATM   23  S1  UNL     1      -7.400  26.029  -5.393  1.00  0.00    -0.041 SA
BRANCH  22  24
HETATM   24  N3  UNL     1      -5.473  25.172  -3.775  1.00  0.00    -0.359 N 
ATOM     25  H3  UNL     1      -5.311  24.172  -3.659  1.00  0.00     0.162 HD
BRANCH  24  26
HETATM   26  C9  UNL     1      -4.355  26.113  -3.826  1.00  0.00     0.021 C 
HETATM   27  C10 UNL     1      -3.483  25.791  -5.012  1.00  0.00     0.037 C 
HETATM   28  C11 UNL     1      -4.860  27.530  -3.986  1.00  0.00     0.037 C 
HETATM   29  C12 UNL     1      -3.615  25.987  -2.509  1.00  0.00     0.037 C 
ENDBRANCH  24  26
ENDBRANCH  22  24
ENDBRANCH   6  22
TORSDOF 10
ENDMDL
MODEL 3
REMARK VINA RESULT: -6.099353527      2.046      3.485
REMARK  10 active torsions:
REMARK  status: ('A' for Active; 'I' for Inactive)
REMARK    1  A    between atoms: C2_2  and  C3_3 
REMARK    2  A    between atoms: C3_3  and  C4_4 
REMARK    3  A    between atoms: C4_4  and  C5_5 
REMARK    4  A    between atoms: C4_4  and  C17_23 
REMARK       I    between atoms: C5_5  and  N1_7 
REMARK    5  A    between atoms: N2_10  and  C8_11 
REMARK    6  A    between atoms: C8_11  and  N3_13 
REMARK    7  A    between atoms: N3_13  and  C9_15 
REMARK    8  A    between atoms: C17_23  and  C18_25 
REMARK    9  A    between atoms: C18_25  and  O2_26 
REMARK   10  A    between atoms: C18_25  and  C19_28 
ROOT
HETATM    1  C5  UNL     1      -9.362  28.972   0.262  1.00  0.00     0.252 C 
HETATM    2  O1  UNL     1     -10.526  29.238  -0.250  1.00  0.00    -0.268 OA
HETATM    3  N1  UNL     1      -8.821  27.794  -0.232  1.00  0.00    -0.336 N 
HETATM    4  C6  UNL     1      -9.609  26.986  -1.217  1.00  0.00     0.147 C 
HETATM    5  C7  UNL     1      -8.804  26.849  -2.493  1.00  0.00     0.145 C 
HETATM    6  N2  UNL     1      -7.510  26.243  -2.186  1.00  0.00    -0.354 N 
HETATM    7  C13 UNL     1      -7.294  25.959  -0.784  1.00  0.00     0.155 C 
HETATM    8  C14 UNL     1      -7.539  27.233   0.077  1.00  0.00     0.044 C 
HETATM    9  C15 UNL     1      -6.365  28.127  -0.262  1.00  0.00     0.040 C 
HETATM   10  C16 UNL     1      -7.373  26.748   1.490  1.00  0.00     0.040 C 
ENDROOT
BRANCH   1  11
HETATM   11  C4  UNL     1      -8.773  29.866   1.235  1.00  0.00     0.036 C 
BRANCH  11  12
HETATM   12  C3  UNL     1      -9.636  29.860   2.470  1.00  0.00     0.072 C 
BRANCH  12  13
HETATM   13  C2  UNL     1      -9.765  28.616   3.205  1.00  0.00    -0.032 C 
HETATM   14  C1  UNL     1     -10.486  28.575   4.319  1.00  0.00     0.007 C 
ENDBRANCH  12  13
ENDBRANCH  11  12
BRANCH  11  15
HETATM   15  C17 UNL     1      -8.163  31.110   0.797  1.00  0.00     0.071 C 
HETATM   16  N4  UNL     1      -8.171  31.219  -0.675  1.00  0.00    -0.103 NA
BRANCH  15  17
HETATM   17  C18 UNL     1      -6.892  31.649   1.286  1.00  0.00     0.227 C 
BRANCH  17  18
HETATM   18  O2  UNL     1      -5.986  30.796   1.852  1.00  0.00    -0.383 OA
ATOM     19  H2  UNL     1      -5.869  29.933   1.473  1.00  0.00     0.211 HD
ENDBRANCH  17  18
BRANCH  17  20
HETATM   20  C19 UNL     1      -6.187  32.250   0.082  1.00  0.00     0.268 C 
HETATM   21  O3  UNL     1      -4.980  32.300   0.043  1.00  0.00    -0.304 OA
ENDBRANCH  17  20
ENDBRANCH  15  17
ENDBRANCH  11  15
ENDBRANCH   1  11
BRANCH   6  22
HETATM   22  C8  UNL     1      -6.617  25.993  -3.232  1.00  0.00     0.170 C 
HETATM   23  S1  UNL     1      -6.983  26.574  -4.737  1.00  0.00    -0.041 SA
BRANCH  22  24
HETATM   24  N3  UNL     1      -5.414  25.258  -3.042  1.00  0.00    -0.359 N 
ATOM     25  H3  UNL     1      -5.428  24.242  -2.961  1.00  0.00     0.162 HD
BRANCH  24  26
HETATM   26  C9  UNL     1      -4.156  26.001  -2.968  1.00  0.00     0.021 C 
HETATM   27  C10 UNL     1      -4.446  27.446  -2.653  1.00  0.00     0.037 C 
HETATM   28  C11 UNL     1      -3.278  25.447  -1.867  1.00  0.00     0.037 C 
HETATM   29  C12 UNL     1      -3.463  25.825  -4.304  1.00  0.00     0.037 C 
ENDBRANCH  24  26
ENDBRANCH  22  24
ENDBRANCH   6  22
TORSDOF 10
ENDMDL
MODEL 4
REMARK VINA RESULT: -6.096582145      2.290      3.563
REMARK  10 active torsions:
REMARK  status: ('A' for Active; 'I' for Inactive)
REMARK    1  A    between atoms: C2_2  and  C3_3 
REMARK    2  A    between atoms: C3_3  and  C4_4 
REMARK    3  A    between atoms: C4_4  and  C5_5 
REMARK    4  A    between atoms: C4_4  and  C17_23 
REMARK       I    between atoms: C5_5  and  N1_7 
REMARK    5  A    between atoms: N2_10  and  C8_11 
REMARK    6  A    between atoms: C8_11  and  N3_13 
REMARK    7  A    between atoms: N3_13  and  C9_15 
REMARK    8  A    between atoms: C17_23  and  C18_25 
REMARK    9  A    between atoms: C18_25  and  O2_26 
REMARK   10  A    between atoms: C18_25  and  C19_28 
ROOT
HETATM    1  C5  UNL     1      -9.364  29.020   0.343  1.00  0.00     0.252 C 
HETATM    2  O1  UNL     1     -10.518  29.250  -0.207  1.00  0.00    -0.268 OA
HETATM    3  N1  UNL     1      -8.798  27.828  -0.087  1.00  0.00    -0.336 N 
HETATM    4  C6  UNL     1      -9.555  26.970  -1.054  1.00  0.00     0.147 C 
HETATM    5  C7  UNL     1      -8.718  26.787  -2.304  1.00  0.00     0.145 C 
HETATM    6  N2  UNL     1      -7.426  26.210  -1.941  1.00  0.00    -0.354 N 
HETATM    7  C13 UNL     1      -7.240  25.988  -0.523  1.00  0.00     0.155 C 
HETATM    8  C14 UNL     1      -7.518  27.296   0.276  1.00  0.00     0.044 C 
HETATM    9  C15 UNL     1      -6.347  28.187  -0.075  1.00  0.00     0.040 C 
HETATM   10  C16 UNL     1      -7.381  26.873   1.712  1.00  0.00     0.040 C 
ENDROOT
BRANCH   1  11
HETATM   11  C4  UNL     1      -8.807  29.961   1.290  1.00  0.00     0.036 C 
BRANCH  11  12
HETATM   12  C3  UNL     1      -9.688  29.984   2.512  1.00  0.00     0.072 C 
BRANCH  12  13
HETATM   13  C2  UNL     1      -9.810  28.763   3.287  1.00  0.00    -0.032 C 
HETATM   14  C1  UNL     1     -10.551  28.747   4.388  1.00  0.00     0.007 C 
ENDBRANCH  12  13
ENDBRANCH  11  12
BRANCH  11  15
HETATM   15  C17 UNL     1      -8.216  31.200   0.814  1.00  0.00     0.071 C 
HETATM   16  N4  UNL     1      -8.214  31.259  -0.661  1.00  0.00    -0.103 NA
BRANCH  15  17
HETATM   17  C18 UNL     1      -6.959  31.778   1.294  1.00  0.00     0.227 C 
BRANCH  17  18
HETATM   18  O2  UNL     1      -6.046  30.963   1.904  1.00  0.00    -0.383 OA
ATOM     19  H2  UNL     1      -5.835  30.128   1.502  1.00  0.00     0.211 HD
ENDBRANCH  17  18
BRANCH  17  20
HETATM   20  C19 UNL     1      -6.249  32.340   0.073  1.00  0.00     0.268 C 
HETATM   21  O3  UNL     1      -5.048  32.478   0.074  1.00  0.00    -0.304 OA
ENDBRANCH  17  20
ENDBRANCH  15  17
ENDBRANCH  11  15
ENDBRANCH   1  11
BRANCH   6  22
HETATM   22  C8  UNL     1      -6.506  25.925  -2.954  1.00  0.00     0.170 C 
HETATM   23  S1  UNL     1      -4.903  26.210  -2.666  1.00  0.00    -0.041 SA
BRANCH  22  24
HETATM   24  N3  UNL     1      -6.905  25.403  -4.217  1.00  0.00    -0.359 N 
ATOM     25  H3  UNL     1      -7.234  24.442  -4.306  1.00  0.00     0.162 HD
BRANCH  24  26
HETATM   26  C9  UNL     1      -6.831  26.283  -5.382  1.00  0.00     0.021 C 
HETATM   27  C10 UNL     1      -7.959  25.958  -6.327  1.00  0.00     0.037 C 
HETATM   28  C11 UNL     1      -6.970  27.730  -4.965  1.00  0.00     0.037 C 
HETATM   29  C12 UNL     1      -5.468  26.067  -6.009  1.00  0.00     0.037 C 
ENDBRANCH  24  26
ENDBRANCH  22  24
ENDBRANCH   6  22
TORSDOF 10
ENDMDL
MODEL 5
REMARK VINA RESULT: -6.010949580      2.220      3.182
REMARK  10 active torsions:
REMARK  status: ('A' for Active; 'I' for Inactive)
REMARK    1  A    between atoms: C2_2  and  C3_3 
REMARK    2  A    between atoms: C3_3  and  C4_4 
REMARK    3  A    between atoms: C4_4  and  C5_5 
REMARK    4  A    between atoms: C4_4  and  C17_23 
REMARK       I    between atoms: C5_5  and  N1_7 
REMARK    5  A    between atoms: N2_10  and  C8_11 
REMARK    6  A    between atoms: C8_11  and  N3_13 
REMARK    7  A    between atoms: N3_13  and  C9_15 
REMARK    8  A    between atoms: C17_23  and  C18_25 
REMARK    9  A    between atoms: C18_25  and  O2_26 
REMARK   10  A    between atoms: C18_25  and  C19_28 
ROOT
HETATM    1  C5  UNL     1      -8.431  30.457  -0.406  1.00  0.00     0.252 C 
HETATM    2  O1  UNL     1      -9.097  31.214  -1.224  1.00  0.00    -0.268 OA
HETATM    3  N1  UNL     1      -8.561  29.108  -0.704  1.00  0.00    -0.336 N 
HETATM    4  C6  UNL     1      -9.435  28.695  -1.849  1.00  0.00     0.147 C 
HETATM    5  C7  UNL     1      -8.598  27.926  -2.850  1.00  0.00     0.145 C 
HETATM    6  N2  UNL     1      -7.977  26.783  -2.185  1.00  0.00    -0.354 N 
HETATM    7  C13 UNL     1      -8.267  26.676  -0.771  1.00  0.00     0.155 C 
HETATM    8  C14 UNL     1      -7.924  28.009  -0.041  1.00  0.00     0.044 C 
HETATM    9  C15 UNL     1      -6.412  28.053  -0.065  1.00  0.00     0.040 C 
HETATM   10  C16 UNL     1      -8.370  27.766   1.375  1.00  0.00     0.040 C 
ENDROOT
BRANCH   1  11
HETATM   11  C4  UNL     1      -7.665  31.045   0.671  1.00  0.00     0.036 C 
BRANCH  11  12
HETATM   12  C3  UNL     1      -8.618  31.732   1.613  1.00  0.00     0.072 C 
BRANCH  12  13
HETATM   13  C2  UNL     1      -9.691  30.945   2.191  1.00  0.00    -0.032 C 
HETATM   14  C1  UNL     1     -10.301  31.363   3.294  1.00  0.00     0.007 C 
ENDBRANCH  12  13
ENDBRANCH  11  12
BRANCH  11  15
HETATM   15  C17 UNL     1      -6.376  31.654   0.391  1.00  0.00     0.071 C 
HETATM   16  N4  UNL     1      -5.508  31.644   1.584  1.00  0.00    -0.103 NA
BRANCH  15  17
HETATM   17  C18 UNL     1      -6.174  32.925  -0.309  1.00  0.00     0.227 C 
BRANCH  17  18
HETATM   18  O2  UNL     1      -6.936  33.203  -1.409  1.00  0.00    -0.383 OA
ATOM     19  H2  UNL     1      -6.586  33.010  -2.271  1.00  0.00     0.211 HD
ENDBRANCH  17  18
BRANCH  17  20
HETATM   20  C19 UNL     1      -6.492  34.023   0.693  1.00  0.00     0.268 C 
HETATM   21  O3  UNL     1      -7.267  34.906   0.407  1.00  0.00    -0.304 OA
ENDBRANCH  17  20
ENDBRANCH  15  17
ENDBRANCH  11  15
ENDBRANCH   1  11
BRANCH   6  22
HETATM   22  C8  UNL     1      -7.184  25.913  -2.938  1.00  0.00     0.170 C 
HETATM   23  S1  UNL     1      -6.514  24.603  -2.182  1.00  0.00    -0.041 SA
BRANCH  22  24
HETATM   24  N3  UNL     1      -6.937  26.119  -4.324  1.00  0.00    -0.359 N 
ATOM     25  H3  UNL     1      -7.639  25.877  -5.023  1.00  0.00     0.162 HD
BRANCH  24  26
HETATM   26  C9  UNL     1      -5.650  26.689  -4.719  1.00  0.00     0.021 C 
HETATM   27  C10 UNL     1      -4.870  27.066  -3.486  1.00  0.00     0.037 C 
HETATM   28  C11 UNL     1      -4.838  25.678  -5.498  1.00  0.00     0.037 C 
HETATM   29  C12 UNL     1      -5.951  27.884  -5.602  1.00  0.00     0.037 C 
ENDBRANCH  24  26
ENDBRANCH  22  24
ENDBRANCH   6  22
TORSDOF 10
ENDMDL
