MODEL 1
REMARK VINA RESULT: -7.834029705      0.000      0.000
REMARK  11 active torsions:
REMARK  status: ('A' for Active; 'I' for Inactive)
REMARK    1  A    between atoms: C2_5  and  C3_6 
REMARK    2  A    between atoms: C2_5  and  C14_29 
REMARK    3  A    between atoms: C3_6  and  C4_7 
REMARK    4  A    between atoms: C4_7  and  N3_8 
REMARK    5  A    between atoms: C6_10  and  C7_11 
REMARK    6  A    between atoms: N6_22  and  O1_23 
REMARK       I    between atoms: C14_29  and  N9_31 
REMARK    7  A    between atoms: C15_33  and  C16_34 
REMARK    8  A    between atoms: C16_34  and  O3_35 
REMARK    9  A    between atoms: O3_35  and  C17_36 
REMARK   10  A    between atoms: C17_36  and  C18_37 
REMARK   11  A    between atoms: C18_37  and  O4_38 
ROOT
HETATM    1  N1  UNL     1      14.578   8.040  10.550  1.00  0.00    -0.172 NA
HETATM    2  C1  UNL     1      14.834   7.079   9.944  1.00  0.00     0.182 C 
HETATM    3  N2  UNL     1      15.124   5.936   9.203  1.00  0.00    -0.292 N 
ATOM      4  H2  UNL     1      14.410   5.221   9.064  1.00  0.00     0.178 HD
HETATM    5  C2  UNL     1      16.299   5.785   8.693  1.00  0.00     0.088 C 
ENDROOT
BRANCH   5   6
HETATM    6  C3  UNL     1      17.349   6.782   8.870  1.00  0.00     0.085 C 
BRANCH   6   7
HETATM    7  C4  UNL     1      18.486   6.385   9.750  1.00  0.00     0.156 C 
BRANCH   7   8
HETATM    8  N3  UNL     1      17.981   6.000  11.078  1.00  0.00    -0.286 N 
HETATM    9  C5  UNL     1      17.895   4.787  11.608  1.00  0.00     0.146 A 
HETATM   10  C6  UNL     1      17.364   4.895  12.867  1.00  0.00     0.114 A 
HETATM   11  N7  UNL     1      17.142   6.217  13.052  1.00  0.00    -0.281 N 
HETATM   12  N8  UNL     1      17.517   6.841  11.977  1.00  0.00    -0.240 N 
ATOM     13  H7  UNL     1      16.750   6.649  13.889  1.00  0.00     0.188 HD
ATOM     14  H8  UNL     1      17.459   7.850  11.846  1.00  0.00     0.208 HD
BRANCH  10  15
HETATM   15  C7  UNL     1      17.055   3.897  13.880  1.00  0.00     0.177 A 
HETATM   16  N4  UNL     1      17.925   2.880  14.121  1.00  0.00    -0.281 N 
HETATM   17  N5  UNL     1      17.728   1.936  15.015  1.00  0.00    -0.297 N 
ATOM     18  H4  UNL     1      18.785   2.847  13.572  1.00  0.00     0.188 HD
HETATM   19  C8  UNL     1      16.625   1.908  15.777  1.00  0.00     0.077 A 
ATOM     20  H5  UNL     1      18.432   1.207  15.132  1.00  0.00     0.187 HD
HETATM   21  C9  UNL     1      16.419   0.913  16.719  1.00  0.00     0.033 A 
HETATM   22  C13 UNL     1      15.718   2.921  15.567  1.00  0.00     0.092 A 
HETATM   23  C10 UNL     1      15.273   0.911  17.488  1.00  0.00     0.002 A 
HETATM   24  C11 UNL     1      14.362   1.925  17.279  1.00  0.00     0.002 A 
HETATM   25  C12 UNL     1      14.572   2.918  16.335  1.00  0.00     0.034 A 
HETATM   26  N6  UNL     1      15.944   3.891  14.631  1.00  0.00    -0.202 N 
BRANCH  26  27
HETATM   27  O1  UNL     1      14.999   4.873  14.469  1.00  0.00    -0.281 OA
ATOM     28  H1  UNL     1      14.076   4.650  14.468  1.00  0.00     0.245 HD
ENDBRANCH  26  27
ENDBRANCH  10  15
ENDBRANCH   7   8
ENDBRANCH   6   7
ENDBRANCH   5   6
BRANCH   5  29
HETATM   29  C14 UNL     1      16.556   4.575   7.932  1.00  0.00     0.268 C 
HETATM   30  O2  UNL     1      17.437   4.500   7.038  1.00  0.00    -0.266 OA
HETATM   31  N9  UNL     1      15.813   3.379   8.156  1.00  0.00    -0.334 N 
HETATM   32  C15 UNL     1      16.342   2.388   8.776  1.00  0.00     0.090 C 
ATOM     33  H9  UNL     1      14.852   3.310   7.820  1.00  0.00     0.168 HD
BRANCH  32  34
HETATM   34  C16 UNL     1      15.572   1.150   9.007  1.00  0.00     0.212 C 
BRANCH  34  35
HETATM   35  O3  UNL     1      15.958   0.535  10.199  1.00  0.00    -0.384 OA
BRANCH  35  36
HETATM   36  C17 UNL     1      17.352   0.694  10.334  1.00  0.00     0.194 C 
BRANCH  36  37
HETATM   37  C18 UNL     1      17.718   0.128  11.691  1.00  0.00     0.190 C 
BRANCH  37  38
HETATM   38  O4  UNL     1      16.729   0.434  12.621  1.00  0.00    -0.399 OA
ATOM     39  H4  UNL     1      16.760  -0.179  13.346  1.00  0.00     0.209 HD
ENDBRANCH  37  38
ENDBRANCH  36  37
ENDBRANCH  35  36
ENDBRANCH  34  35
ENDBRANCH  32  34
ENDBRANCH   5  29
TORSDOF 11
ENDMDL
MODEL 2
REMARK VINA RESULT: -7.801277507      2.094      2.537
REMARK  11 active torsions:
REMARK  status: ('A' for Active; 'I' for Inactive)
REMARK    1  A    between atoms: C2_5  and  C3_6 
REMARK    2  A    between atoms: C2_5  and  C14_29 
REMARK    3  A    between atoms: C3_6  and  C4_7 
REMARK    4  A    between atoms: C4_7  and  N3_8 
REMARK    5  A    between atoms: C6_10  and  C7_11 
REMARK    6  A    between atoms: N6_22  and  O1_23 
REMARK       I    between atoms: C14_29  and  N9_31 
REMARK    7  A    between atoms: C15_33  and  C16_34 
REMARK    8  A    between atoms: C16_34  and  O3_35 
REMARK    9  A    between atoms: O3_35  and  C17_36 
REMARK   10  A    between atoms: C17_36  and  C18_37 
REMARK   11  A    between atoms: C18_37  and  O4_38 
ROOT
HETATM    1  N1  UNL     1      17.106   6.883   6.536  1.00  0.00    -0.172 NA
HETATM    2  C1  UNL     1      16.762   5.772   6.590  1.00  0.00     0.182 C 
HETATM    3  N2  UNL     1      16.368   4.437   6.640  1.00  0.00    -0.292 N 
ATOM      4  H2  UNL     1      16.094   3.951   5.786  1.00  0.00     0.178 HD
HETATM    5  C2  UNL     1      16.352   3.816   7.771  1.00  0.00     0.088 C 
ENDROOT
BRANCH   5   6
HETATM    6  C3  UNL     1      16.734   4.475   9.016  1.00  0.00     0.085 C 
BRANCH   6   7
HETATM    7  C4  UNL     1      18.156   4.309   9.433  1.00  0.00     0.156 C 
BRANCH   7   8
HETATM    8  N3  UNL     1      18.223   3.569  10.703  1.00  0.00    -0.286 N 
HETATM    9  C5  UNL     1      17.351   3.565  11.703  1.00  0.00     0.146 A 
HETATM   10  C6  UNL     1      17.817   2.734  12.688  1.00  0.00     0.114 A 
HETATM   11  N7  UNL     1      18.994   2.252  12.226  1.00  0.00    -0.281 N 
HETATM   12  N8  UNL     1      19.204   2.766  11.052  1.00  0.00    -0.240 N 
ATOM     13  H7  UNL     1      19.609   1.600  12.714  1.00  0.00     0.188 HD
ATOM     14  H8  UNL     1      20.023   2.572  10.476  1.00  0.00     0.208 HD
BRANCH  10  15
HETATM   15  C7  UNL     1      17.271   2.363  13.985  1.00  0.00     0.177 A 
HETATM   16  N4  UNL     1      17.835   1.351  14.697  1.00  0.00    -0.281 N 
HETATM   17  N5  UNL     1      17.408   0.949  15.874  1.00  0.00    -0.297 N 
ATOM     18  H4  UNL     1      18.640   0.873  14.292  1.00  0.00     0.188 HD
HETATM   19  C8  UNL     1      16.356   1.526  16.475  1.00  0.00     0.077 A 
ATOM     20  H5  UNL     1      17.888   0.179  16.341  1.00  0.00     0.187 HD
HETATM   21  C9  UNL     1      15.908   1.101  17.715  1.00  0.00     0.033 A 
HETATM   22  C13 UNL     1      15.756   2.555  15.789  1.00  0.00     0.092 A 
HETATM   23  C10 UNL     1      14.823   1.714  18.308  1.00  0.00     0.002 A 
HETATM   24  C11 UNL     1      14.219   2.747  17.622  1.00  0.00     0.002 A 
HETATM   25  C12 UNL     1      14.671   3.167  16.382  1.00  0.00     0.034 A 
HETATM   26  N6  UNL     1      16.217   2.955  14.566  1.00  0.00    -0.202 N 
BRANCH  26  27
HETATM   27  O1  UNL     1      15.573   3.989  13.933  1.00  0.00    -0.281 OA
ATOM     28  H1  UNL     1      16.024   4.812  13.787  1.00  0.00     0.245 HD
ENDBRANCH  26  27
ENDBRANCH  10  15
ENDBRANCH   7   8
ENDBRANCH   6   7
ENDBRANCH   5   6
BRANCH   5  29
HETATM   29  C14 UNL     1      15.931   2.427   7.775  1.00  0.00     0.268 C 
HETATM   30  O2  UNL     1      15.639   1.794   6.729  1.00  0.00    -0.266 OA
HETATM   31  N9  UNL     1      15.820   1.683   8.987  1.00  0.00    -0.334 N 
HETATM   32  C15 UNL     1      16.696   0.797   9.292  1.00  0.00     0.090 C 
ATOM     33  H9  UNL     1      15.036   1.855   9.617  1.00  0.00     0.168 HD
BRANCH  32  34
HETATM   34  C16 UNL     1      16.581   0.028  10.546  1.00  0.00     0.212 C 
BRANCH  34  35
HETATM   35  O3  UNL     1      17.840  -0.266  11.071  1.00  0.00    -0.384 OA
BRANCH  35  36
HETATM   36  C17 UNL     1      17.710  -1.403  11.893  1.00  0.00     0.194 C 
BRANCH  36  37
HETATM   37  C18 UNL     1      18.839  -2.340  11.509  1.00  0.00     0.190 C 
BRANCH  37  38
HETATM   38  O4  UNL     1      18.392  -3.657  11.518  1.00  0.00    -0.399 OA
ATOM     39  H4  UNL     1      17.491  -3.699  11.218  1.00  0.00     0.209 HD
ENDBRANCH  37  38
ENDBRANCH  36  37
ENDBRANCH  35  36
ENDBRANCH  34  35
ENDBRANCH  32  34
ENDBRANCH   5  29
TORSDOF 11
ENDMDL
MODEL 3
REMARK VINA RESULT: -7.528431913      1.890      2.556
REMARK  11 active torsions:
REMARK  status: ('A' for Active; 'I' for Inactive)
REMARK    1  A    between atoms: C2_5  and  C3_6 
REMARK    2  A    between atoms: C2_5  and  C14_29 
REMARK    3  A    between atoms: C3_6  and  C4_7 
REMARK    4  A    between atoms: C4_7  and  N3_8 
REMARK    5  A    between atoms: C6_10  and  C7_11 
REMARK    6  A    between atoms: N6_22  and  O1_23 
REMARK       I    between atoms: C14_29  and  N9_31 
REMARK    7  A    between atoms: C15_33  and  C16_34 
REMARK    8  A    between atoms: C16_34  and  O3_35 
REMARK    9  A    between atoms: O3_35  and  C17_36 
REMARK   10  A    between atoms: C17_36  and  C18_37 
REMARK   11  A    between atoms: C18_37  and  O4_38 
ROOT
HETATM    1  N1  UNL     1      19.108   7.484   6.350  1.00  0.00    -0.172 NA
HETATM    2  C1  UNL     1      18.415   6.548   6.366  1.00  0.00     0.182 C 
HETATM    3  N2  UNL     1      17.604   5.416   6.377  1.00  0.00    -0.292 N 
ATOM      4  H2  UNL     1      17.367   4.947   5.502  1.00  0.00     0.178 HD
HETATM    5  C2  UNL     1      17.153   4.961   7.497  1.00  0.00     0.088 C 
ENDROOT
BRANCH   5   6
HETATM    6  C3  UNL     1      17.466   5.603   8.770  1.00  0.00     0.085 C 
BRANCH   6   7
HETATM    7  C4  UNL     1      18.761   5.210   9.398  1.00  0.00     0.156 C 
BRANCH   7   8
HETATM    8  N3  UNL     1      18.510   4.480  10.650  1.00  0.00    -0.286 N 
HETATM    9  C5  UNL     1      17.489   4.605  11.487  1.00  0.00     0.146 A 
HETATM   10  C6  UNL     1      17.663   3.726  12.525  1.00  0.00     0.114 A 
HETATM   11  N7  UNL     1      18.825   3.085  12.262  1.00  0.00    -0.281 N 
HETATM   12  N8  UNL     1      19.299   3.554  11.149  1.00  0.00    -0.240 N 
ATOM     13  H7  UNL     1      19.254   2.359  12.838  1.00  0.00     0.188 HD
ATOM     14  H8  UNL     1      20.170   3.244  10.717  1.00  0.00     0.208 HD
BRANCH  10  15
HETATM   15  C7  UNL     1      16.860   3.445  13.705  1.00  0.00     0.177 A 
HETATM   16  N4  UNL     1      15.943   4.352  14.136  1.00  0.00    -0.281 N 
HETATM   17  N5  UNL     1      15.175   4.182  15.190  1.00  0.00    -0.297 N 
ATOM     18  H4  UNL     1      15.844   5.219  13.608  1.00  0.00     0.188 HD
HETATM   19  C8  UNL     1      15.242   3.070  15.938  1.00  0.00     0.077 A 
ATOM     20  H5  UNL     1      14.512   4.914  15.447  1.00  0.00     0.187 HD
HETATM   21  C9  UNL     1      14.433   2.893  17.048  1.00  0.00     0.033 A 
HETATM   22  C13 UNL     1      16.158   2.125  15.536  1.00  0.00     0.092 A 
HETATM   23  C10 UNL     1      14.526   1.738  17.797  1.00  0.00     0.002 A 
HETATM   24  C11 UNL     1      15.443   0.788  17.397  1.00  0.00     0.002 A 
HETATM   25  C12 UNL     1      16.250   0.971  16.286  1.00  0.00     0.034 A 
HETATM   26  N6  UNL     1      16.945   2.324  14.437  1.00  0.00    -0.202 N 
BRANCH  26  27
HETATM   27  O1  UNL     1      17.839   1.342  14.089  1.00  0.00    -0.281 OA
ATOM     28  H1  UNL     1      18.085   0.677  14.721  1.00  0.00     0.245 HD
ENDBRANCH  26  27
ENDBRANCH  10  15
ENDBRANCH   7   8
ENDBRANCH   6   7
ENDBRANCH   5   6
BRANCH   5  29
HETATM   29  C14 UNL     1      16.308   3.781   7.458  1.00  0.00     0.268 C 
HETATM   30  O2  UNL     1      15.937   3.237   6.387  1.00  0.00    -0.266 OA
HETATM   31  N9  UNL     1      15.840   3.157   8.652  1.00  0.00    -0.334 N 
HETATM   32  C15 UNL     1      16.348   2.049   9.052  1.00  0.00     0.090 C 
ATOM     33  H9  UNL     1      15.095   3.595   9.193  1.00  0.00     0.168 HD
BRANCH  32  34
HETATM   34  C16 UNL     1      15.864   1.404  10.288  1.00  0.00     0.212 C 
BRANCH  34  35
HETATM   35  O3  UNL     1      16.925   1.083  11.134  1.00  0.00    -0.384 OA
BRANCH  35  36
HETATM   36  C17 UNL     1      17.001  -0.322  11.218  1.00  0.00     0.194 C 
BRANCH  36  37
HETATM   37  C18 UNL     1      18.472  -0.677  11.142  1.00  0.00     0.190 C 
BRANCH  37  38
HETATM   38  O4  UNL     1      19.250   0.429  11.467  1.00  0.00    -0.399 OA
ATOM     39  H4  UNL     1      20.058   0.151  11.884  1.00  0.00     0.209 HD
ENDBRANCH  37  38
ENDBRANCH  36  37
ENDBRANCH  35  36
ENDBRANCH  34  35
ENDBRANCH  32  34
ENDBRANCH   5  29
TORSDOF 11
ENDMDL
MODEL 4
REMARK VINA RESULT: -7.457669003      3.070      7.806
REMARK  11 active torsions:
REMARK  status: ('A' for Active; 'I' for Inactive)
REMARK    1  A    between atoms: C2_5  and  C3_6 
REMARK    2  A    between atoms: C2_5  and  C14_29 
REMARK    3  A    between atoms: C3_6  and  C4_7 
REMARK    4  A    between atoms: C4_7  and  N3_8 
REMARK    5  A    between atoms: C6_10  and  C7_11 
REMARK    6  A    between atoms: N6_22  and  O1_23 
REMARK       I    between atoms: C14_29  and  N9_31 
REMARK    7  A    between atoms: C15_33  and  C16_34 
REMARK    8  A    between atoms: C16_34  and  O3_35 
REMARK    9  A    between atoms: O3_35  and  C17_36 
REMARK   10  A    between atoms: C17_36  and  C18_37 
REMARK   11  A    between atoms: C18_37  and  O4_38 
ROOT
HETATM    1  N1  UNL     1      15.498   1.870   6.575  1.00  0.00    -0.172 NA
HETATM    2  C1  UNL     1      15.957   1.327   7.497  1.00  0.00     0.182 C 
HETATM    3  N2  UNL     1      16.527   0.681   8.592  1.00  0.00    -0.292 N 
ATOM      4  H2  UNL     1      17.003  -0.213   8.467  1.00  0.00     0.178 HD
HETATM    5  C2  UNL     1      16.452   1.216   9.763  1.00  0.00     0.088 C 
ENDROOT
BRANCH   5   6
HETATM    6  C3  UNL     1      15.778   2.492   9.984  1.00  0.00     0.085 C 
BRANCH   6   7
HETATM    7  C4  UNL     1      16.666   3.678  10.154  1.00  0.00     0.156 C 
BRANCH   7   8
HETATM    8  N3  UNL     1      16.150   4.808   9.365  1.00  0.00    -0.286 N 
HETATM    9  C5  UNL     1      15.675   5.968   9.799  1.00  0.00     0.146 A 
HETATM   10  C6  UNL     1      15.305   6.723   8.716  1.00  0.00     0.114 A 
HETATM   11  N7  UNL     1      15.582   5.959   7.634  1.00  0.00    -0.281 N 
HETATM   12  N8  UNL     1      16.079   4.836   8.052  1.00  0.00    -0.240 N 
ATOM     13  H7  UNL     1      15.427   6.220   6.660  1.00  0.00     0.188 HD
ATOM     14  H8  UNL     1      16.375   4.074   7.442  1.00  0.00     0.208 HD
BRANCH  10  15
HETATM   15  C7  UNL     1      14.732   8.056   8.611  1.00  0.00     0.177 A 
HETATM   16  N4  UNL     1      15.477   9.145   8.944  1.00  0.00    -0.281 N 
HETATM   17  N5  UNL     1      15.041  10.384   8.881  1.00  0.00    -0.297 N 
ATOM     18  H4  UNL     1      16.433   8.990   9.263  1.00  0.00     0.188 HD
HETATM   19  C8  UNL     1      13.797  10.673   8.471  1.00  0.00     0.077 A 
ATOM     20  H5  UNL     1      15.666  11.145   9.151  1.00  0.00     0.187 HD
HETATM   21  C9  UNL     1      13.341  11.979   8.405  1.00  0.00     0.033 A 
HETATM   22  C13 UNL     1      13.010   9.600   8.124  1.00  0.00     0.092 A 
HETATM   23  C10 UNL     1      12.055  12.244   7.980  1.00  0.00     0.002 A 
HETATM   24  C11 UNL     1      11.262  11.170   7.631  1.00  0.00     0.002 A 
HETATM   25  C12 UNL     1      11.724   9.866   7.700  1.00  0.00     0.034 A 
HETATM   26  N6  UNL     1      13.483   8.320   8.198  1.00  0.00    -0.202 N 
BRANCH  26  27
HETATM   27  O1  UNL     1      12.647   7.293   7.838  1.00  0.00    -0.281 OA
ATOM     28  H1  UNL     1      12.253   6.744   8.504  1.00  0.00     0.245 HD
ENDBRANCH  26  27
ENDBRANCH  10  15
ENDBRANCH   7   8
ENDBRANCH   6   7
ENDBRANCH   5   6
BRANCH   5  29
HETATM   29  C14 UNL     1      17.057   0.504  10.873  1.00  0.00     0.268 C 
HETATM   30  O2  UNL     1      17.943  -0.376  10.724  1.00  0.00    -0.266 OA
HETATM   31  N9  UNL     1      16.678   0.762  12.224  1.00  0.00    -0.334 N 
HETATM   32  C15 UNL     1      17.452   1.425  13.004  1.00  0.00     0.090 C 
ATOM     33  H9  UNL     1      15.784   0.417  12.573  1.00  0.00     0.168 HD
BRANCH  32  34
HETATM   34  C16 UNL     1      17.058   1.692  14.401  1.00  0.00     0.212 C 
BRANCH  34  35
HETATM   35  O3  UNL     1      16.464   0.569  14.977  1.00  0.00    -0.384 OA
BRANCH  35  36
HETATM   36  C17 UNL     1      16.525   0.719  16.377  1.00  0.00     0.194 C 
BRANCH  36  37
HETATM   37  C18 UNL     1      15.244   1.415  16.790  1.00  0.00     0.190 C 
BRANCH  37  38
HETATM   38  O4  UNL     1      14.211   0.489  16.901  1.00  0.00    -0.399 OA
ATOM     39  H4  UNL     1      14.335  -0.049  17.675  1.00  0.00     0.209 HD
ENDBRANCH  37  38
ENDBRANCH  36  37
ENDBRANCH  35  36
ENDBRANCH  34  35
ENDBRANCH  32  34
ENDBRANCH   5  29
TORSDOF 11
ENDMDL
MODEL 5
REMARK VINA RESULT: -7.406966182      2.438      7.373
REMARK  11 active torsions:
REMARK  status: ('A' for Active; 'I' for Inactive)
REMARK    1  A    between atoms: C2_5  and  C3_6 
REMARK    2  A    between atoms: C2_5  and  C14_29 
REMARK    3  A    between atoms: C3_6  and  C4_7 
REMARK    4  A    between atoms: C4_7  and  N3_8 
REMARK    5  A    between atoms: C6_10  and  C7_11 
REMARK    6  A    between atoms: N6_22  and  O1_23 
REMARK       I    between atoms: C14_29  and  N9_31 
REMARK    7  A    between atoms: C15_33  and  C16_34 
REMARK    8  A    between atoms: C16_34  and  O3_35 
REMARK    9  A    between atoms: O3_35  and  C17_36 
REMARK   10  A    between atoms: C17_36  and  C18_37 
REMARK   11  A    between atoms: C18_37  and  O4_38 
ROOT
HETATM    1  N1  UNL     1      20.845   2.238  10.030  1.00  0.00    -0.172 NA
HETATM    2  C1  UNL     1      20.128   1.825  10.849  1.00  0.00     0.182 C 
HETATM    3  N2  UNL     1      19.268   1.352  11.838  1.00  0.00    -0.292 N 
ATOM      4  H2  UNL     1      19.554   1.371  12.817  1.00  0.00     0.178 HD
HETATM    5  C2  UNL     1      18.108   0.891  11.511  1.00  0.00     0.088 C 
ENDROOT
BRANCH   5   6
HETATM    6  C3  UNL     1      17.662   0.844  10.123  1.00  0.00     0.085 C 
BRANCH   6   7
HETATM    7  C4  UNL     1      16.226   1.173   9.887  1.00  0.00     0.156 C 
BRANCH   7   8
HETATM    8  N3  UNL     1      16.099   2.571   9.445  1.00  0.00    -0.286 N 
HETATM    9  C5  UNL     1      15.961   3.662  10.187  1.00  0.00     0.146 A 
HETATM   10  C6  UNL     1      15.879   4.749   9.356  1.00  0.00     0.114 A 
HETATM   11  N7  UNL     1      15.973   4.252   8.101  1.00  0.00    -0.281 N 
HETATM   12  N8  UNL     1      16.102   2.963   8.190  1.00  0.00    -0.240 N 
ATOM     13  H7  UNL     1      15.948   4.794   7.238  1.00  0.00     0.188 HD
ATOM     14  H8  UNL     1      16.192   2.337   7.390  1.00  0.00     0.208 HD
BRANCH  10  15
HETATM   15  C7  UNL     1      15.724   6.170   9.629  1.00  0.00     0.177 A 
HETATM   16  N4  UNL     1      16.095   6.676  10.836  1.00  0.00    -0.281 N 
HETATM   17  N5  UNL     1      15.990   7.944  11.168  1.00  0.00    -0.297 N 
ATOM     18  H4  UNL     1      16.478   6.031  11.526  1.00  0.00     0.188 HD
HETATM   19  C8  UNL     1      15.498   8.857  10.317  1.00  0.00     0.077 A 
ATOM     20  H5  UNL     1      16.291   8.242  12.097  1.00  0.00     0.187 HD
HETATM   21  C9  UNL     1      15.389  10.192  10.669  1.00  0.00     0.033 A 
HETATM   22  C13 UNL     1      15.111   8.387   9.083  1.00  0.00     0.092 A 
HETATM   23  C10 UNL     1      14.877  11.107   9.771  1.00  0.00     0.002 A 
HETATM   24  C11 UNL     1      14.488  10.639   8.533  1.00  0.00     0.002 A 
HETATM   25  C12 UNL     1      14.599   9.302   8.187  1.00  0.00     0.034 A 
HETATM   26  N6  UNL     1      15.228   7.064   8.760  1.00  0.00    -0.202 N 
BRANCH  26  27
HETATM   27  O1  UNL     1      14.824   6.660   7.512  1.00  0.00    -0.281 OA
ATOM     28  H1  UNL     1      13.948   6.314   7.384  1.00  0.00     0.245 HD
ENDBRANCH  26  27
ENDBRANCH  10  15
ENDBRANCH   7   8
ENDBRANCH   6   7
ENDBRANCH   5   6
BRANCH   5  29
HETATM   29  C14 UNL     1      17.249   0.405  12.576  1.00  0.00     0.268 C 
HETATM   30  O2  UNL     1      16.710  -0.731  12.560  1.00  0.00    -0.266 OA
HETATM   31  N9  UNL     1      16.957   1.201  13.723  1.00  0.00    -0.334 N 
HETATM   32  C15 UNL     1      17.502   0.940  14.855  1.00  0.00     0.090 C 
ATOM     33  H9  UNL     1      16.309   1.985  13.643  1.00  0.00     0.168 HD
BRANCH  32  34
HETATM   34  C16 UNL     1      17.200   1.764  16.041  1.00  0.00     0.212 C 
BRANCH  34  35
HETATM   35  O3  UNL     1      16.739   0.975  17.095  1.00  0.00    -0.384 OA
BRANCH  35  36
HETATM   36  C17 UNL     1      15.812   1.738  17.833  1.00  0.00     0.194 C 
BRANCH  36  37
HETATM   37  C18 UNL     1      14.509   1.694  17.061  1.00  0.00     0.190 C 
BRANCH  37  38
HETATM   38  O4  UNL     1      14.097   0.376  16.892  1.00  0.00    -0.399 OA
ATOM     39  H4  UNL     1      13.589   0.093  17.644  1.00  0.00     0.209 HD
ENDBRANCH  37  38
ENDBRANCH  36  37
ENDBRANCH  35  36
ENDBRANCH  34  35
ENDBRANCH  32  34
ENDBRANCH   5  29
TORSDOF 11
ENDMDL
