MODEL 1
REMARK VINA RESULT: -8.832675503      0.000      0.000
REMARK  9 active torsions:
REMARK  status: ('A' for Active; 'I' for Inactive)
REMARK    1  A    between atoms: N1_12  and  C12_13 
REMARK    2  A    between atoms: C12_13  and  C13_14 
REMARK    3  A    between atoms: C13_14  and  N2_15 
REMARK    4  A    between atoms: N2_15  and  C14_18 
REMARK    5  A    between atoms: C14_18  and  C15_19 
REMARK    6  A    between atoms: C15_19  and  C16_20 
REMARK    7  A    between atoms: C16_20  and  N3_21 
REMARK    8  A    between atoms: N3_21  and  C17_23 
REMARK    9  A    between atoms: C17_23  and  N4_25 
ROOT
HETATM    1  C1  UNL     1      -4.996  29.695   8.388  1.00  0.00     0.048 C 
HETATM    2  C2  UNL     1      -3.758  29.284   7.646  1.00  0.00    -0.060 A 
HETATM    3  C3  UNL     1      -3.757  29.206   6.274  1.00  0.00     0.007 A 
HETATM    4  C4  UNL     1      -2.632  28.830   5.569  1.00  0.00     0.015 A 
HETATM    5  C5  UNL     1      -1.482  28.529   6.314  1.00  0.00    -0.002 A 
HETATM    6  C6  UNL     1      -0.346  28.153   5.607  1.00  0.00    -0.037 A 
HETATM    7  C7  UNL     1      -0.409  28.084   4.125  1.00  0.00     0.050 C 
HETATM    8  C8  UNL     1       0.781  27.862   6.336  1.00  0.00     0.001 A 
HETATM    9  C9  UNL     1       1.949  27.481   5.715  1.00  0.00     0.039 A 
HETATM   10  C10 UNL     1       3.082  27.191   6.483  1.00  0.00     0.008 A 
HETATM   11  C11 UNL     1       4.276  26.795   5.719  1.00  0.00     0.068 C 
HETATM   12  N1  UNL     1       3.063  27.272   7.811  1.00  0.00    -0.357 N 
HETATM   13  C20 UNL     1       1.906  27.650   8.412  1.00  0.00     0.121 A 
HETATM   14  C21 UNL     1       0.749  27.952   7.722  1.00  0.00     0.061 A 
HETATM   15  N5  UNL     1      -0.351  28.314   8.372  1.00  0.00    -0.349 N 
HETATM   16  C22 UNL     1      -0.438  28.431   9.811  1.00  0.00     0.156 C 
HETATM   17  C23 UNL     1      -1.483  28.607   7.670  1.00  0.00     0.045 A 
HETATM   18  C24 UNL     1      -2.636  28.991   8.376  1.00  0.00     0.037 A 
ENDROOT
BRANCH  12  19
HETATM   19  C12 UNL     1       4.237  26.960   8.610  1.00  0.00     0.155 C 
BRANCH  19  20
HETATM   20  C13 UNL     1       4.657  28.159   9.420  1.00  0.00     0.252 C 
BRANCH  20  21
HETATM   21  N2  UNL     1       6.094  28.239   9.414  1.00  0.00    -0.074 N 
ATOM     22  H22 UNL     1       6.488  27.488   8.849  1.00  0.00     0.277 HD
ATOM     23  H21 UNL     1       6.402  29.046   8.873  1.00  0.00     0.277 HD
BRANCH  21  24
HETATM   24  C14 UNL     1       6.695  28.253  10.715  1.00  0.00     0.234 C 
BRANCH  24  25
HETATM   25  C15 UNL     1       8.177  27.873  10.637  1.00  0.00     0.047 C 
BRANCH  25  26
HETATM   26  C16 UNL     1       8.961  28.957  11.299  1.00  0.00     0.123 C 
BRANCH  26  27
HETATM   27  N3  UNL     1       9.593  28.564  12.539  1.00  0.00    -0.367 N 
ATOM     28  H3  UNL     1       9.021  28.099  13.245  1.00  0.00     0.161 HD
BRANCH  27  29
HETATM   29  C17 UNL     1      10.954  28.787  12.827  1.00  0.00     0.169 C 
HETATM   30  S1  UNL     1      12.005  27.551  12.910  1.00  0.00    -0.041 SA
BRANCH  29  31
HETATM   31  N4  UNL     1      11.423  30.096  13.055  1.00  0.00    -0.367 N 
HETATM   32  C18 UNL     1      12.633  30.598  12.403  1.00  0.00     0.151 C 
HETATM   33  C19 UNL     1      10.669  30.946  13.971  1.00  0.00     0.151 C 
ENDBRANCH  29  31
ENDBRANCH  27  29
ENDBRANCH  26  27
ENDBRANCH  25  26
ENDBRANCH  24  25
ENDBRANCH  21  24
ENDBRANCH  20  21
ENDBRANCH  19  20
ENDBRANCH  12  19
TORSDOF 9
ENDMDL
MODEL 2
REMARK VINA RESULT: -8.695747746      0.826      1.043
REMARK  9 active torsions:
REMARK  status: ('A' for Active; 'I' for Inactive)
REMARK    1  A    between atoms: N1_12  and  C12_13 
REMARK    2  A    between atoms: C12_13  and  C13_14 
REMARK    3  A    between atoms: C13_14  and  N2_15 
REMARK    4  A    between atoms: N2_15  and  C14_18 
REMARK    5  A    between atoms: C14_18  and  C15_19 
REMARK    6  A    between atoms: C15_19  and  C16_20 
REMARK    7  A    between atoms: C16_20  and  N3_21 
REMARK    8  A    between atoms: N3_21  and  C17_23 
REMARK    9  A    between atoms: C17_23  and  N4_25 
ROOT
HETATM    1  C1  UNL     1      -4.998  29.718   8.394  1.00  0.00     0.048 C 
HETATM    2  C2  UNL     1      -3.756  29.307   7.659  1.00  0.00    -0.060 A 
HETATM    3  C3  UNL     1      -3.749  29.225   6.287  1.00  0.00     0.007 A 
HETATM    4  C4  UNL     1      -2.620  28.849   5.588  1.00  0.00     0.015 A 
HETATM    5  C5  UNL     1      -1.473  28.552   6.339  1.00  0.00    -0.002 A 
HETATM    6  C6  UNL     1      -0.334  28.176   5.638  1.00  0.00    -0.037 A 
HETATM    7  C7  UNL     1      -0.389  28.103   4.156  1.00  0.00     0.050 C 
HETATM    8  C8  UNL     1       0.791  27.889   6.373  1.00  0.00     0.001 A 
HETATM    9  C9  UNL     1       1.962  27.508   5.758  1.00  0.00     0.039 A 
HETATM   10  C10 UNL     1       3.093  27.221   6.531  1.00  0.00     0.008 A 
HETATM   11  C11 UNL     1       4.290  26.825   5.774  1.00  0.00     0.068 C 
HETATM   12  N1  UNL     1       3.067  27.306   7.860  1.00  0.00    -0.357 N 
HETATM   13  C20 UNL     1       1.906  27.683   8.455  1.00  0.00     0.121 A 
HETATM   14  C21 UNL     1       0.753  27.982   7.759  1.00  0.00     0.061 A 
HETATM   15  N5  UNL     1      -0.351  28.344   8.402  1.00  0.00    -0.349 N 
HETATM   16  C22 UNL     1      -0.445  28.464   9.841  1.00  0.00     0.156 C 
HETATM   17  C23 UNL     1      -1.481  28.633   7.695  1.00  0.00     0.045 A 
HETATM   18  C24 UNL     1      -2.637  29.017   8.395  1.00  0.00     0.037 A 
ENDROOT
BRANCH  12  19
HETATM   19  C12 UNL     1       4.238  26.997   8.664  1.00  0.00     0.155 C 
BRANCH  19  20
HETATM   20  C13 UNL     1       4.726  28.231   9.379  1.00  0.00     0.252 C 
BRANCH  20  21
HETATM   21  N2  UNL     1       6.157  28.156   9.504  1.00  0.00    -0.074 N 
ATOM     22  H22 UNL     1       6.484  27.217   9.277  1.00  0.00     0.277 HD
ATOM     23  H21 UNL     1       6.607  28.684   8.757  1.00  0.00     0.277 HD
BRANCH  21  24
HETATM   24  C14 UNL     1       6.666  28.566  10.779  1.00  0.00     0.234 C 
BRANCH  24  25
HETATM   25  C15 UNL     1       7.962  27.822  11.117  1.00  0.00     0.047 C 
BRANCH  25  26
HETATM   26  C16 UNL     1       9.028  28.841  11.343  1.00  0.00     0.123 C 
BRANCH  26  27
HETATM   27  N3  UNL     1       9.742  28.690  12.592  1.00  0.00    -0.367 N 
ATOM     28  H3  UNL     1       9.464  27.934  13.218  1.00  0.00     0.161 HD
BRANCH  27  29
HETATM   29  C17 UNL     1      10.801  29.529  12.992  1.00  0.00     0.169 C 
HETATM   30  S1  UNL     1      10.535  30.814  13.950  1.00  0.00    -0.041 SA
BRANCH  29  31
HETATM   31  N4  UNL     1      12.115  29.267  12.555  1.00  0.00    -0.367 N 
HETATM   32  C18 UNL     1      12.679  27.917  12.599  1.00  0.00     0.151 C 
HETATM   33  C19 UNL     1      12.909  30.385  12.057  1.00  0.00     0.151 C 
ENDBRANCH  29  31
ENDBRANCH  27  29
ENDBRANCH  26  27
ENDBRANCH  25  26
ENDBRANCH  24  25
ENDBRANCH  21  24
ENDBRANCH  20  21
ENDBRANCH  19  20
ENDBRANCH  12  19
TORSDOF 9
ENDMDL
MODEL 3
REMARK VINA RESULT: -8.474870096      1.777      2.737
REMARK  9 active torsions:
REMARK  status: ('A' for Active; 'I' for Inactive)
REMARK    1  A    between atoms: N1_12  and  C12_13 
REMARK    2  A    between atoms: C12_13  and  C13_14 
REMARK    3  A    between atoms: C13_14  and  N2_15 
REMARK    4  A    between atoms: N2_15  and  C14_18 
REMARK    5  A    between atoms: C14_18  and  C15_19 
REMARK    6  A    between atoms: C15_19  and  C16_20 
REMARK    7  A    between atoms: C16_20  and  N3_21 
REMARK    8  A    between atoms: N3_21  and  C17_23 
REMARK    9  A    between atoms: C17_23  and  N4_25 
ROOT
HETATM    1  C1  UNL     1      -4.962  29.676   8.372  1.00  0.00     0.048 C 
HETATM    2  C2  UNL     1      -3.722  29.268   7.633  1.00  0.00    -0.060 A 
HETATM    3  C3  UNL     1      -3.707  29.224   6.259  1.00  0.00     0.007 A 
HETATM    4  C4  UNL     1      -2.578  28.851   5.558  1.00  0.00     0.015 A 
HETATM    5  C5  UNL     1      -1.441  28.516   6.307  1.00  0.00    -0.002 A 
HETATM    6  C6  UNL     1      -0.302  28.143   5.603  1.00  0.00    -0.037 A 
HETATM    7  C7  UNL     1      -0.349  28.112   4.120  1.00  0.00     0.050 C 
HETATM    8  C8  UNL     1       0.812  27.818   6.337  1.00  0.00     0.001 A 
HETATM    9  C9  UNL     1       1.983  27.438   5.720  1.00  0.00     0.039 A 
HETATM   10  C10 UNL     1       3.103  27.113   6.492  1.00  0.00     0.008 A 
HETATM   11  C11 UNL     1       4.300  26.721   5.732  1.00  0.00     0.068 C 
HETATM   12  N1  UNL     1       3.070  27.161   7.822  1.00  0.00    -0.357 N 
HETATM   13  C20 UNL     1       1.911  27.539   8.420  1.00  0.00     0.121 A 
HETATM   14  C21 UNL     1       0.766  27.873   7.725  1.00  0.00     0.061 A 
HETATM   15  N5  UNL     1      -0.336  28.234   8.371  1.00  0.00    -0.349 N 
HETATM   16  C22 UNL     1      -0.438  28.315   9.812  1.00  0.00     0.156 C 
HETATM   17  C23 UNL     1      -1.457  28.559   7.665  1.00  0.00     0.045 A 
HETATM   18  C24 UNL     1      -2.613  28.941   8.368  1.00  0.00     0.037 A 
ENDROOT
BRANCH  12  19
HETATM   19  C12 UNL     1       4.230  26.813   8.625  1.00  0.00     0.155 C 
BRANCH  19  20
HETATM   20  C13 UNL     1       4.795  28.040   9.294  1.00  0.00     0.252 C 
BRANCH  20  21
HETATM   21  N2  UNL     1       6.207  27.847   9.494  1.00  0.00    -0.074 N 
ATOM     22  H22 UNL     1       6.509  26.969   9.072  1.00  0.00     0.277 HD
ATOM     23  H21 UNL     1       6.739  28.506   8.926  1.00  0.00     0.277 HD
BRANCH  21  24
HETATM   24  C14 UNL     1       6.630  27.914  10.861  1.00  0.00     0.234 C 
BRANCH  24  25
HETATM   25  C15 UNL     1       7.970  28.646  10.985  1.00  0.00     0.047 C 
BRANCH  25  26
HETATM   26  C16 UNL     1       8.953  27.701  11.591  1.00  0.00     0.123 C 
BRANCH  26  27
HETATM   27  N3  UNL     1       8.365  26.494  12.129  1.00  0.00    -0.367 N 
ATOM     28  H3  UNL     1       7.637  26.587  12.838  1.00  0.00     0.161 HD
BRANCH  27  29
HETATM   29  C17 UNL     1       8.741  25.196  11.728  1.00  0.00     0.169 C 
HETATM   30  S1  UNL     1       9.887  24.371  12.532  1.00  0.00    -0.041 SA
BRANCH  29  31
HETATM   31  N4  UNL     1       8.128  24.596  10.611  1.00  0.00    -0.367 N 
HETATM   32  C18 UNL     1       8.561  24.901   9.246  1.00  0.00     0.151 C 
HETATM   33  C19 UNL     1       7.036  23.657  10.848  1.00  0.00     0.151 C 
ENDBRANCH  29  31
ENDBRANCH  27  29
ENDBRANCH  26  27
ENDBRANCH  25  26
ENDBRANCH  24  25
ENDBRANCH  21  24
ENDBRANCH  20  21
ENDBRANCH  19  20
ENDBRANCH  12  19
TORSDOF 9
ENDMDL
MODEL 4
REMARK VINA RESULT: -8.354679495      2.208      2.967
REMARK  9 active torsions:
REMARK  status: ('A' for Active; 'I' for Inactive)
REMARK    1  A    between atoms: N1_12  and  C12_13 
REMARK    2  A    between atoms: C12_13  and  C13_14 
REMARK    3  A    between atoms: C13_14  and  N2_15 
REMARK    4  A    between atoms: N2_15  and  C14_18 
REMARK    5  A    between atoms: C14_18  and  C15_19 
REMARK    6  A    between atoms: C15_19  and  C16_20 
REMARK    7  A    between atoms: C16_20  and  N3_21 
REMARK    8  A    between atoms: N3_21  and  C17_23 
REMARK    9  A    between atoms: C17_23  and  N4_25 
ROOT
HETATM    1  C1  UNL     1      -4.971  29.692   8.450  1.00  0.00     0.048 C 
HETATM    2  C2  UNL     1      -3.740  29.284   7.696  1.00  0.00    -0.060 A 
HETATM    3  C3  UNL     1      -3.750  29.216   6.323  1.00  0.00     0.007 A 
HETATM    4  C4  UNL     1      -2.631  28.842   5.607  1.00  0.00     0.015 A 
HETATM    5  C5  UNL     1      -1.476  28.531   6.340  1.00  0.00    -0.002 A 
HETATM    6  C6  UNL     1      -0.347  28.157   5.621  1.00  0.00    -0.037 A 
HETATM    7  C7  UNL     1      -0.421  28.100   4.140  1.00  0.00     0.050 C 
HETATM    8  C8  UNL     1       0.784  27.857   6.340  1.00  0.00     0.001 A 
HETATM    9  C9  UNL     1       1.947  27.477   5.708  1.00  0.00     0.039 A 
HETATM   10  C10 UNL     1       3.085  27.177   6.464  1.00  0.00     0.008 A 
HETATM   11  C11 UNL     1       4.271  26.783   5.689  1.00  0.00     0.068 C 
HETATM   12  N1  UNL     1       3.076  27.248   7.793  1.00  0.00    -0.357 N 
HETATM   13  C20 UNL     1       1.924  27.624   8.406  1.00  0.00     0.121 A 
HETATM   14  C21 UNL     1       0.764  27.936   7.727  1.00  0.00     0.061 A 
HETATM   15  N5  UNL     1      -0.331  28.297   8.388  1.00  0.00    -0.349 N 
HETATM   16  C22 UNL     1      -0.406  28.402   9.829  1.00  0.00     0.156 C 
HETATM   17  C23 UNL     1      -1.467  28.598   7.697  1.00  0.00     0.045 A 
HETATM   18  C24 UNL     1      -2.614  28.981   8.415  1.00  0.00     0.037 A 
ENDROOT
BRANCH  12  19
HETATM   19  C12 UNL     1       4.254  26.925   8.580  1.00  0.00     0.155 C 
BRANCH  19  20
HETATM   20  C13 UNL     1       4.707  28.128   9.368  1.00  0.00     0.252 C 
BRANCH  20  21
HETATM   21  N2  UNL     1       6.128  28.036   9.575  1.00  0.00    -0.074 N 
ATOM     22  H22 UNL     1       6.420  27.059   9.598  1.00  0.00     0.277 HD
ATOM     23  H21 UNL     1       6.628  28.349   8.744  1.00  0.00     0.277 HD
BRANCH  21  24
HETATM   24  C14 UNL     1       6.607  28.727  10.735  1.00  0.00     0.234 C 
BRANCH  24  25
HETATM   25  C15 UNL     1       8.078  28.391  11.004  1.00  0.00     0.047 C 
BRANCH  25  26
HETATM   26  C16 UNL     1       8.341  27.028  10.457  1.00  0.00     0.123 C 
BRANCH  26  27
HETATM   27  N3  UNL     1       8.341  25.976  11.450  1.00  0.00    -0.367 N 
ATOM     28  H3  UNL     1       8.383  26.243  12.434  1.00  0.00     0.161 HD
BRANCH  27  29
HETATM   29  C17 UNL     1       8.286  24.604  11.134  1.00  0.00     0.169 C 
HETATM   30  S1  UNL     1       6.955  23.952  10.467  1.00  0.00    -0.041 SA
BRANCH  29  31
HETATM   31  N4  UNL     1       9.391  23.772  11.402  1.00  0.00    -0.367 N 
HETATM   32  C18 UNL     1      10.363  24.104  12.445  1.00  0.00     0.151 C 
HETATM   33  C19 UNL     1       9.547  22.561  10.603  1.00  0.00     0.151 C 
ENDBRANCH  29  31
ENDBRANCH  27  29
ENDBRANCH  26  27
ENDBRANCH  25  26
ENDBRANCH  24  25
ENDBRANCH  21  24
ENDBRANCH  20  21
ENDBRANCH  19  20
ENDBRANCH  12  19
TORSDOF 9
ENDMDL
MODEL 5
REMARK VINA RESULT: -8.347677103      1.305      1.991
REMARK  9 active torsions:
REMARK  status: ('A' for Active; 'I' for Inactive)
REMARK    1  A    between atoms: N1_12  and  C12_13 
REMARK    2  A    between atoms: C12_13  and  C13_14 
REMARK    3  A    between atoms: C13_14  and  N2_15 
REMARK    4  A    between atoms: N2_15  and  C14_18 
REMARK    5  A    between atoms: C14_18  and  C15_19 
REMARK    6  A    between atoms: C15_19  and  C16_20 
REMARK    7  A    between atoms: C16_20  and  N3_21 
REMARK    8  A    between atoms: N3_21  and  C17_23 
REMARK    9  A    between atoms: C17_23  and  N4_25 
ROOT
HETATM    1  C1  UNL     1      -5.029  29.853   8.332  1.00  0.00     0.048 C 
HETATM    2  C2  UNL     1      -3.801  29.411   7.592  1.00  0.00    -0.060 A 
HETATM    3  C3  UNL     1      -3.812  29.294   6.223  1.00  0.00     0.007 A 
HETATM    4  C4  UNL     1      -2.696  28.889   5.520  1.00  0.00     0.015 A 
HETATM    5  C5  UNL     1      -1.542  28.598   6.264  1.00  0.00    -0.002 A 
HETATM    6  C6  UNL     1      -0.416  28.192   5.559  1.00  0.00    -0.037 A 
HETATM    7  C7  UNL     1      -0.490  28.082   4.081  1.00  0.00     0.050 C 
HETATM    8  C8  UNL     1       0.714  27.911   6.288  1.00  0.00     0.001 A 
HETATM    9  C9  UNL     1       1.874  27.503   5.669  1.00  0.00     0.039 A 
HETATM   10  C10 UNL     1       3.011  27.223   6.436  1.00  0.00     0.008 A 
HETATM   11  C11 UNL     1       4.195  26.795   5.675  1.00  0.00     0.068 C 
HETATM   12  N1  UNL     1       3.003  27.342   7.762  1.00  0.00    -0.357 N 
HETATM   13  C20 UNL     1       1.853  27.747   8.361  1.00  0.00     0.121 A 
HETATM   14  C21 UNL     1       0.695  28.040   7.671  1.00  0.00     0.061 A 
HETATM   15  N5  UNL     1      -0.397  28.430   8.319  1.00  0.00    -0.349 N 
HETATM   16  C22 UNL     1      -0.472  28.588   9.755  1.00  0.00     0.156 C 
HETATM   17  C23 UNL     1      -1.532  28.713   7.618  1.00  0.00     0.045 A 
HETATM   18  C24 UNL     1      -2.676  29.128   8.321  1.00  0.00     0.037 A 
ENDROOT
BRANCH  12  19
HETATM   19  C12 UNL     1       4.180  27.041   8.559  1.00  0.00     0.155 C 
BRANCH  19  20
HETATM   20  C13 UNL     1       4.703  28.292   9.218  1.00  0.00     0.252 C 
BRANCH  20  21
HETATM   21  N2  UNL     1       5.361  27.927  10.444  1.00  0.00    -0.074 N 
ATOM     22  H22 UNL     1       5.213  28.644  11.153  1.00  0.00     0.277 HD
ATOM     23  H21 UNL     1       4.881  27.143  10.885  1.00  0.00     0.277 HD
BRANCH  21  24
HETATM   24  C14 UNL     1       6.759  27.641  10.309  1.00  0.00     0.234 C 
BRANCH  24  25
HETATM   25  C15 UNL     1       7.477  27.769  11.656  1.00  0.00     0.047 C 
BRANCH  25  26
HETATM   26  C16 UNL     1       8.888  28.173  11.384  1.00  0.00     0.123 C 
BRANCH  26  27
HETATM   27  N3  UNL     1       9.804  27.906  12.471  1.00  0.00    -0.367 N 
ATOM     28  H3  UNL     1       9.728  28.473  13.316  1.00  0.00     0.161 HD
BRANCH  27  29
HETATM   29  C17 UNL     1      10.797  26.907  12.428  1.00  0.00     0.169 C 
HETATM   30  S1  UNL     1      12.308  27.204  12.948  1.00  0.00    -0.041 SA
BRANCH  29  31
HETATM   31  N4  UNL     1      10.491  25.628  11.922  1.00  0.00    -0.367 N 
HETATM   32  C18 UNL     1       9.635  24.698  12.661  1.00  0.00     0.151 C 
HETATM   33  C19 UNL     1      11.058  25.246  10.633  1.00  0.00     0.151 C 
ENDBRANCH  29  31
ENDBRANCH  27  29
ENDBRANCH  26  27
ENDBRANCH  25  26
ENDBRANCH  24  25
ENDBRANCH  21  24
ENDBRANCH  20  21
ENDBRANCH  19  20
ENDBRANCH  12  19
TORSDOF 9
ENDMDL
