MODEL 1
REMARK VINA RESULT: -9.078548727      0.000      0.000
REMARK  7 active torsions:
REMARK  status: ('A' for Active; 'I' for Inactive)
REMARK    1  A    between atoms: C2_2  and  N1_4 
REMARK    2  A    between atoms: C2_2  and  C10_15 
REMARK    3  A    between atoms: N1_4  and  C4_6 
REMARK    4  A    between atoms: C8_10  and  O1_11 
REMARK    5  A    between atoms: C13_18  and  C14_19 
REMARK    6  A    between atoms: C14_19  and  C15_20 
REMARK    7  A    between atoms: C15_20  and  C16_21 
ROOT
HETATM    1  C10 UNL     1      -3.115 -27.376   8.307  1.00  0.00     0.012 C 
HETATM    2  C11 UNL     1      -2.313 -26.356   9.072  1.00  0.00     0.007 C 
HETATM    3  C12 UNL     1      -0.826 -26.665   8.764  1.00  0.00     0.005 C 
HETATM    4  C13 UNL     1      -0.520 -27.874   9.576  1.00  0.00    -0.014 C 
HETATM    5  C25 UNL     1      -1.242 -29.010   8.840  1.00  0.00     0.005 C 
HETATM    6  C26 UNL     1      -2.716 -28.732   8.932  1.00  0.00     0.007 C 
ENDROOT
BRANCH   4   7
HETATM    7  C14 UNL     1       0.898 -28.234   9.800  1.00  0.00     0.009 C 
BRANCH   7   8
HETATM    8  C15 UNL     1       1.340 -29.348   8.887  1.00  0.00     0.040 C 
BRANCH   8   9
HETATM    9  C16 UNL     1       2.250 -28.906   7.836  1.00  0.00    -0.041 A 
HETATM   10  C17 UNL     1       1.824 -28.041   6.805  1.00  0.00     0.025 A 
HETATM   11  C18 UNL     1       2.607 -27.681   5.750  1.00  0.00     0.089 A 
HETATM   12  N2  UNL     1       3.848 -28.162   5.676  1.00  0.00    -0.365 N 
HETATM   13  C19 UNL     1       4.323 -28.983   6.617  1.00  0.00     0.048 A 
ATOM     14  H2  UNL     1       4.443 -27.900   4.890  1.00  0.00     0.165 HD
HETATM   15  C20 UNL     1       5.624 -29.413   6.474  1.00  0.00     0.072 A 
HETATM   16  C24 UNL     1       3.526 -29.368   7.716  1.00  0.00     0.036 A 
HETATM   17  C21 UNL     1       6.207 -30.244   7.409  1.00  0.00     0.121 A 
HETATM   18  F1  UNL     1       7.478 -30.691   7.297  1.00  0.00    -0.206 F 
HETATM   19  C22 UNL     1       5.433 -30.627   8.492  1.00  0.00     0.085 A 
HETATM   20  C23 UNL     1       4.108 -30.193   8.644  1.00  0.00     0.132 A 
HETATM   21  F2  UNL     1       3.413 -30.564   9.723  1.00  0.00    -0.205 F 
ENDBRANCH   8   9
ENDBRANCH   7   8
ENDBRANCH   4   7
BRANCH   1  22
HETATM   22  C2  UNL     1      -4.594 -27.316   8.531  1.00  0.00     0.022 C 
HETATM   23  C1  UNL     1      -4.937 -28.239   9.695  1.00  0.00     0.038 C 
HETATM   24  C3  UNL     1      -5.276 -27.913   7.324  1.00  0.00     0.038 C 
BRANCH  22  25
HETATM   25  N1  UNL     1      -5.122 -26.051   8.915  1.00  0.00    -0.407 N 
ATOM     26  H1  UNL     1      -4.765 -25.585   9.748  1.00  0.00     0.154 HD
BRANCH  25  27
HETATM   27  C4  UNL     1      -6.134 -25.442   8.148  1.00  0.00     0.098 C 
HETATM   28  C5  UNL     1      -5.623 -24.140   7.595  1.00  0.00     0.026 C 
HETATM   29  C6  UNL     1      -6.159 -22.908   8.193  1.00  0.00     0.004 C 
HETATM   30  C7  UNL     1      -6.831 -22.949   9.500  1.00  0.00     0.033 C 
HETATM   31  C8  UNL     1      -7.087 -24.321  10.064  1.00  0.00     0.138 C 
HETATM   32  C9  UNL     1      -7.425 -25.216   8.910  1.00  0.00     0.133 C 
HETATM   33 CL1  UNL     1      -8.581 -24.407   7.827  1.00  0.00    -0.120 Cl
BRANCH  31  34
HETATM   34  O1  UNL     1      -5.975 -24.680  10.782  1.00  0.00    -0.394 OA
ATOM     35  H1  UNL     1      -5.313 -24.016  10.627  1.00  0.00     0.210 HD
ENDBRANCH  31  34
ENDBRANCH  25  27
ENDBRANCH  22  25
ENDBRANCH   1  22
TORSDOF 7
ENDMDL
MODEL 2
REMARK VINA RESULT: -8.862193172      1.668      2.319
REMARK  7 active torsions:
REMARK  status: ('A' for Active; 'I' for Inactive)
REMARK    1  A    between atoms: C2_2  and  N1_4 
REMARK    2  A    between atoms: C2_2  and  C10_15 
REMARK    3  A    between atoms: N1_4  and  C4_6 
REMARK    4  A    between atoms: C8_10  and  O1_11 
REMARK    5  A    between atoms: C13_18  and  C14_19 
REMARK    6  A    between atoms: C14_19  and  C15_20 
REMARK    7  A    between atoms: C15_20  and  C16_21 
ROOT
HETATM    1  C10 UNL     1      -4.069 -27.583   7.601  1.00  0.00     0.012 C 
HETATM    2  C11 UNL     1      -3.040 -26.499   7.408  1.00  0.00     0.007 C 
HETATM    3  C12 UNL     1      -2.332 -26.819   6.067  1.00  0.00     0.005 C 
HETATM    4  C13 UNL     1      -1.429 -27.958   6.383  1.00  0.00    -0.014 C 
HETATM    5  C25 UNL     1      -2.378 -29.155   6.538  1.00  0.00     0.005 C 
HETATM    6  C26 UNL     1      -3.243 -28.883   7.736  1.00  0.00     0.007 C 
ENDROOT
BRANCH   4   7
HETATM    7  C14 UNL     1      -0.347 -28.287   5.430  1.00  0.00     0.009 C 
BRANCH   7   8
HETATM    8  C15 UNL     1       1.007 -27.914   5.976  1.00  0.00     0.040 C 
BRANCH   8   9
HETATM    9  C16 UNL     1       1.376 -28.665   7.170  1.00  0.00    -0.041 A 
HETATM   10  C17 UNL     1       0.454 -28.888   8.217  1.00  0.00     0.025 A 
HETATM   11  C18 UNL     1       0.779 -29.495   9.391  1.00  0.00     0.089 A 
HETATM   12  N2  UNL     1       2.033 -29.910   9.576  1.00  0.00    -0.365 N 
HETATM   13  C19 UNL     1       2.960 -29.738   8.630  1.00  0.00     0.048 A 
ATOM     14  H2  UNL     1       2.288 -30.366  10.453  1.00  0.00     0.165 HD
HETATM   15  C20 UNL     1       4.222 -30.219   8.895  1.00  0.00     0.072 A 
HETATM   16  C24 UNL     1       2.642 -29.109   7.407  1.00  0.00     0.036 A 
HETATM   17  C21 UNL     1       5.238 -30.107   7.967  1.00  0.00     0.121 A 
HETATM   18  F1  UNL     1       6.490 -30.562   8.197  1.00  0.00    -0.206 F 
HETATM   19  C22 UNL     1       4.936 -29.492   6.763  1.00  0.00     0.085 A 
HETATM   20  C23 UNL     1       3.652 -29.000   6.486  1.00  0.00     0.132 A 
HETATM   21  F2  UNL     1       3.402 -28.444   5.298  1.00  0.00    -0.205 F 
ENDBRANCH   8   9
ENDBRANCH   7   8
ENDBRANCH   4   7
BRANCH   1  22
HETATM   22  C2  UNL     1      -4.820 -27.518   8.894  1.00  0.00     0.022 C 
HETATM   23  C1  UNL     1      -3.847 -27.828  10.027  1.00  0.00     0.038 C 
HETATM   24  C3  UNL     1      -5.829 -28.642   8.907  1.00  0.00     0.038 C 
BRANCH  22  25
HETATM   25  N1  UNL     1      -5.373 -26.254   9.239  1.00  0.00    -0.407 N 
ATOM     26  H1  UNL     1      -5.058 -25.775  10.082  1.00  0.00     0.154 HD
BRANCH  25  27
HETATM   27  C4  UNL     1      -6.355 -25.661   8.421  1.00  0.00     0.098 C 
HETATM   28  C5  UNL     1      -5.754 -24.489   7.693  1.00  0.00     0.026 C 
HETATM   29  C6  UNL     1      -6.164 -23.149   8.137  1.00  0.00     0.004 C 
HETATM   30  C7  UNL     1      -6.795 -22.964   9.452  1.00  0.00     0.033 C 
HETATM   31  C8  UNL     1      -7.148 -24.225  10.195  1.00  0.00     0.138 C 
HETATM   32  C9  UNL     1      -7.597 -25.227   9.174  1.00  0.00     0.133 C 
HETATM   33 CL1  UNL     1      -8.715 -24.464   8.020  1.00  0.00    -0.120 Cl
BRANCH  31  34
HETATM   34  O1  UNL     1      -6.047 -24.585  10.930  1.00  0.00    -0.394 OA
ATOM     35  H1  UNL     1      -6.337 -24.717  11.824  1.00  0.00     0.210 HD
ENDBRANCH  31  34
ENDBRANCH  25  27
ENDBRANCH  22  25
ENDBRANCH   1  22
TORSDOF 7
ENDMDL
MODEL 3
REMARK VINA RESULT: -8.838795727      3.145      4.983
REMARK  7 active torsions:
REMARK  status: ('A' for Active; 'I' for Inactive)
REMARK    1  A    between atoms: C2_2  and  N1_4 
REMARK    2  A    between atoms: C2_2  and  C10_15 
REMARK    3  A    between atoms: N1_4  and  C4_6 
REMARK    4  A    between atoms: C8_10  and  O1_11 
REMARK    5  A    between atoms: C13_18  and  C14_19 
REMARK    6  A    between atoms: C14_19  and  C15_20 
REMARK    7  A    between atoms: C15_20  and  C16_21 
ROOT
HETATM    1  C10 UNL     1      -6.133 -25.361   9.547  1.00  0.00     0.012 C 
HETATM    2  C11 UNL     1      -6.877 -26.624   9.891  1.00  0.00     0.007 C 
HETATM    3  C12 UNL     1      -5.793 -27.700  10.153  1.00  0.00     0.005 C 
HETATM    4  C13 UNL     1      -5.298 -28.070   8.800  1.00  0.00    -0.014 C 
HETATM    5  C25 UNL     1      -4.455 -26.863   8.368  1.00  0.00     0.005 C 
HETATM    6  C26 UNL     1      -5.389 -25.694   8.233  1.00  0.00     0.007 C 
ENDROOT
BRANCH   4   7
HETATM    7  C14 UNL     1      -4.516 -29.317   8.650  1.00  0.00     0.009 C 
BRANCH   7   8
HETATM    8  C15 UNL     1      -3.036 -29.042   8.598  1.00  0.00     0.040 C 
BRANCH   8   9
HETATM    9  C16 UNL     1      -2.438 -29.342   7.303  1.00  0.00    -0.041 A 
HETATM   10  C17 UNL     1      -3.061 -30.217   6.385  1.00  0.00     0.025 A 
HETATM   11  C18 UNL     1      -2.495 -30.604   5.209  1.00  0.00     0.089 A 
HETATM   12  N2  UNL     1      -1.287 -30.136   4.891  1.00  0.00    -0.365 N 
HETATM   13  C19 UNL     1      -0.638 -29.302   5.706  1.00  0.00     0.048 A 
ATOM     14  H2  UNL     1      -0.854 -30.420   4.012  1.00  0.00     0.165 HD
HETATM   15  C20 UNL     1       0.594 -28.850   5.287  1.00  0.00     0.072 A 
HETATM   16  C24 UNL     1      -1.207 -28.891   6.930  1.00  0.00     0.036 A 
HETATM   17  C21 UNL     1       1.327 -27.966   6.054  1.00  0.00     0.121 A 
HETATM   18  F1  UNL     1       2.542 -27.507   5.676  1.00  0.00    -0.206 F 
HETATM   19  C22 UNL     1       0.777 -27.555   7.256  1.00  0.00     0.085 A 
HETATM   20  C23 UNL     1      -0.477 -28.012   7.689  1.00  0.00     0.132 A 
HETATM   21  F2  UNL     1      -0.980 -27.562   8.842  1.00  0.00    -0.205 F 
ENDBRANCH   8   9
ENDBRANCH   7   8
ENDBRANCH   4   7
BRANCH   1  22
HETATM   22  C2  UNL     1      -6.998 -24.200   9.167  1.00  0.00     0.022 C 
HETATM   23  C1  UNL     1      -6.511 -23.662   7.826  1.00  0.00     0.038 C 
HETATM   24  C3  UNL     1      -6.756 -23.090  10.162  1.00  0.00     0.038 C 
BRANCH  22  25
HETATM   25  N1  UNL     1      -8.376 -24.484   8.955  1.00  0.00    -0.407 N 
ATOM     26  H1  UNL     1      -8.658 -25.406   8.623  1.00  0.00     0.154 HD
BRANCH  25  27
HETATM   27  C4  UNL     1      -9.351 -23.498   9.202  1.00  0.00     0.098 C 
HETATM   28  C5  UNL     1     -10.286 -23.981  10.277  1.00  0.00     0.026 C 
HETATM   29  C6  UNL     1     -11.640 -24.368   9.856  1.00  0.00     0.004 C 
HETATM   30  C7  UNL     1     -11.925 -24.647   8.441  1.00  0.00     0.033 C 
HETATM   31  C8  UNL     1     -10.816 -24.331   7.472  1.00  0.00     0.138 C 
HETATM   32  C9  UNL     1     -10.135 -23.093   7.971  1.00  0.00     0.133 C 
HETATM   33 CL1  UNL     1     -11.346 -21.881   8.451  1.00  0.00    -0.120 Cl
BRANCH  31  34
HETATM   34  O1  UNL     1     -10.021 -25.446   7.387  1.00  0.00    -0.394 OA
ATOM     35  H1  UNL     1      -9.131 -25.147   7.248  1.00  0.00     0.210 HD
ENDBRANCH  31  34
ENDBRANCH  25  27
ENDBRANCH  22  25
ENDBRANCH   1  22
TORSDOF 7
ENDMDL
MODEL 4
REMARK VINA RESULT: -8.809906122      3.190      4.928
REMARK  7 active torsions:
REMARK  status: ('A' for Active; 'I' for Inactive)
REMARK    1  A    between atoms: C2_2  and  N1_4 
REMARK    2  A    between atoms: C2_2  and  C10_15 
REMARK    3  A    between atoms: N1_4  and  C4_6 
REMARK    4  A    between atoms: C8_10  and  O1_11 
REMARK    5  A    between atoms: C13_18  and  C14_19 
REMARK    6  A    between atoms: C14_19  and  C15_20 
REMARK    7  A    between atoms: C15_20  and  C16_21 
ROOT
HETATM    1  C10 UNL     1      -6.527 -25.218   8.316  1.00  0.00     0.012 C 
HETATM    2  C11 UNL     1      -5.138 -25.431   7.773  1.00  0.00     0.007 C 
HETATM    3  C12 UNL     1      -4.951 -26.966   7.675  1.00  0.00     0.005 C 
HETATM    4  C13 UNL     1      -4.733 -27.406   9.080  1.00  0.00    -0.014 C 
HETATM    5  C25 UNL     1      -6.121 -27.294   9.725  1.00  0.00     0.005 C 
HETATM    6  C26 UNL     1      -6.490 -25.837   9.732  1.00  0.00     0.007 C 
ENDROOT
BRANCH   4   7
HETATM    7  C14 UNL     1      -4.169 -28.753   9.319  1.00  0.00     0.009 C 
BRANCH   7   8
HETATM    8  C15 UNL     1      -2.674 -28.772   9.129  1.00  0.00     0.040 C 
BRANCH   8   9
HETATM    9  C16 UNL     1      -2.270 -29.086   7.763  1.00  0.00    -0.041 A 
HETATM   10  C17 UNL     1      -3.057 -29.910   6.930  1.00  0.00     0.025 A 
HETATM   11  C18 UNL     1      -2.674 -30.312   5.687  1.00  0.00     0.089 A 
HETATM   12  N2  UNL     1      -1.493 -29.909   5.216  1.00  0.00    -0.365 N 
HETATM   13  C19 UNL     1      -0.695 -29.125   5.944  1.00  0.00     0.048 A 
ATOM     14  H2  UNL     1      -1.196 -30.205   4.285  1.00  0.00     0.165 HD
HETATM   15  C20 UNL     1       0.496 -28.738   5.370  1.00  0.00     0.072 A 
HETATM   16  C24 UNL     1      -1.074 -28.701   7.235  1.00  0.00     0.036 A 
HETATM   17  C21 UNL     1       1.374 -27.909   6.040  1.00  0.00     0.121 A 
HETATM   18  F1  UNL     1       2.553 -27.514   5.509  1.00  0.00    -0.206 F 
HETATM   19  C22 UNL     1       1.010 -27.485   7.307  1.00  0.00     0.085 A 
HETATM   20  C23 UNL     1      -0.201 -27.876   7.897  1.00  0.00     0.132 A 
HETATM   21  F2  UNL     1      -0.521 -27.415   9.110  1.00  0.00    -0.205 F 
ENDBRANCH   8   9
ENDBRANCH   7   8
ENDBRANCH   4   7
BRANCH   1  22
HETATM   22  C2  UNL     1      -6.892 -23.789   8.576  1.00  0.00     0.022 C 
HETATM   23  C1  UNL     1      -5.926 -22.901   7.798  1.00  0.00     0.038 C 
HETATM   24  C3  UNL     1      -6.629 -23.496  10.034  1.00  0.00     0.038 C 
BRANCH  22  25
HETATM   25  N1  UNL     1      -8.182 -23.379   8.137  1.00  0.00    -0.407 N 
ATOM     26  H1  UNL     1      -8.297 -22.975   7.208  1.00  0.00     0.154 HD
BRANCH  25  27
HETATM   27  C4  UNL     1      -9.300 -23.529   8.980  1.00  0.00     0.098 C 
HETATM   28  C5  UNL     1     -10.303 -24.435   8.320  1.00  0.00     0.026 C 
HETATM   29  C6  UNL     1     -11.525 -23.807   7.799  1.00  0.00     0.004 C 
HETATM   30  C7  UNL     1     -11.576 -22.355   7.579  1.00  0.00     0.033 C 
HETATM   31  C8  UNL     1     -10.397 -21.570   8.087  1.00  0.00     0.138 C 
HETATM   32  C9  UNL     1      -9.955 -22.218   9.365  1.00  0.00     0.133 C 
HETATM   33 CL1  UNL     1     -11.366 -22.574  10.388  1.00  0.00    -0.120 Cl
BRANCH  31  34
HETATM   34  O1  UNL     1      -9.461 -21.549   7.084  1.00  0.00    -0.394 OA
ATOM     35  H1  UNL     1      -8.770 -20.957   7.357  1.00  0.00     0.210 HD
ENDBRANCH  31  34
ENDBRANCH  25  27
ENDBRANCH  22  25
ENDBRANCH   1  22
TORSDOF 7
ENDMDL
MODEL 5
REMARK VINA RESULT: -8.682910054      4.545      9.851
REMARK  7 active torsions:
REMARK  status: ('A' for Active; 'I' for Inactive)
REMARK    1  A    between atoms: C2_2  and  N1_4 
REMARK    2  A    between atoms: C2_2  and  C10_15 
REMARK    3  A    between atoms: N1_4  and  C4_6 
REMARK    4  A    between atoms: C8_10  and  O1_11 
REMARK    5  A    between atoms: C13_18  and  C14_19 
REMARK    6  A    between atoms: C14_19  and  C15_20 
REMARK    7  A    between atoms: C15_20  and  C16_21 
ROOT
HETATM    1  C10 UNL     1      -0.143 -29.119   6.589  1.00  0.00     0.012 C 
HETATM    2  C11 UNL     1       0.068 -28.882   8.061  1.00  0.00     0.007 C 
HETATM    3  C12 UNL     1      -1.348 -28.742   8.676  1.00  0.00     0.005 C 
HETATM    4  C13 UNL     1      -1.798 -27.382   8.273  1.00  0.00    -0.014 C 
HETATM    5  C25 UNL     1      -2.112 -27.522   6.777  1.00  0.00     0.005 C 
HETATM    6  C26 UNL     1      -0.816 -27.824   6.078  1.00  0.00     0.007 C 
ENDROOT
BRANCH   4   7
HETATM    7  C14 UNL     1      -2.950 -26.781   8.980  1.00  0.00     0.009 C 
BRANCH   7   8
HETATM    8  C15 UNL     1      -4.237 -26.990   8.224  1.00  0.00     0.040 C 
BRANCH   8   9
HETATM    9  C16 UNL     1      -5.319 -27.502   9.057  1.00  0.00    -0.041 A 
HETATM   10  C17 UNL     1      -5.873 -26.736  10.105  1.00  0.00     0.025 A 
HETATM   11  C18 UNL     1      -6.812 -27.207  10.971  1.00  0.00     0.089 A 
HETATM   12  N2  UNL     1      -7.246 -28.460  10.829  1.00  0.00    -0.365 N 
HETATM   13  C19 UNL     1      -6.772 -29.245   9.858  1.00  0.00     0.048 A 
ATOM     14  H2  UNL     1      -7.949 -28.825  11.472  1.00  0.00     0.165 HD
HETATM   15  C20 UNL     1      -7.294 -30.517   9.771  1.00  0.00     0.072 A 
HETATM   16  C24 UNL     1      -5.797 -28.775   8.954  1.00  0.00     0.036 A 
HETATM   17  C21 UNL     1      -6.880 -31.390   8.785  1.00  0.00     0.121 A 
HETATM   18  F1  UNL     1      -7.366 -32.648   8.674  1.00  0.00    -0.206 F 
HETATM   19  C22 UNL     1      -5.924 -30.938   7.891  1.00  0.00     0.085 A 
HETATM   20  C23 UNL     1      -5.390 -29.644   7.974  1.00  0.00     0.132 A 
HETATM   21  F2  UNL     1      -4.493 -29.243   7.069  1.00  0.00    -0.205 F 
ENDBRANCH   8   9
ENDBRANCH   7   8
ENDBRANCH   4   7
BRANCH   1  22
HETATM   22  C2  UNL     1       1.111 -29.197   5.775  1.00  0.00     0.022 C 
HETATM   23  C1  UNL     1       1.412 -27.806   5.228  1.00  0.00     0.038 C 
HETATM   24  C3  UNL     1       0.832 -30.057   4.565  1.00  0.00     0.038 C 
BRANCH  22  25
HETATM   25  N1  UNL     1       2.294 -29.567   6.474  1.00  0.00    -0.407 N 
ATOM     26  H1  UNL     1       2.262 -30.317   7.163  1.00  0.00     0.154 HD
BRANCH  25  27
HETATM   27  C4  UNL     1       3.508 -28.901   6.218  1.00  0.00     0.098 C 
HETATM   28  C5  UNL     1       4.518 -29.890   5.701  1.00  0.00     0.026 C 
HETATM   29  C6  UNL     1       5.605 -30.268   6.615  1.00  0.00     0.004 C 
HETATM   30  C7  UNL     1       5.484 -30.012   8.058  1.00  0.00     0.033 C 
HETATM   31  C8  UNL     1       4.295 -29.194   8.483  1.00  0.00     0.138 C 
HETATM   32  C9  UNL     1       4.066 -28.164   7.418  1.00  0.00     0.133 C 
HETATM   33 CL1  UNL     1       5.610 -27.416   6.950  1.00  0.00    -0.120 Cl
BRANCH  31  34
HETATM   34  O1  UNL     1       3.256 -30.065   8.692  1.00  0.00    -0.394 OA
ATOM     35  H1  UNL     1       2.555 -29.573   9.103  1.00  0.00     0.210 HD
ENDBRANCH  31  34
ENDBRANCH  25  27
ENDBRANCH  22  25
ENDBRANCH   1  22
TORSDOF 7
ENDMDL
