MODEL 1
REMARK VINA RESULT: -7.697814075      0.000      0.000
REMARK  15 active torsions:
REMARK  status: ('A' for Active; 'I' for Inactive)
REMARK    1  A    between atoms: C2_2  and  O1_3 
REMARK    2  A    between atoms: O1_3  and  C3_4 
REMARK    3  A    between atoms: C3_4  and  C4_6 
REMARK    4  A    between atoms: C4_6  and  C6_9 
REMARK    5  A    between atoms: C8_12  and  C9_13 
REMARK    6  A    between atoms: C8_12  and  C17_23 
REMARK    7  A    between atoms: C9_13  and  O4_14 
REMARK    8  A    between atoms: O4_14  and  C10_15 
REMARK    9  A    between atoms: C10_15  and  C11_17 
REMARK   10  A    between atoms: C11_17  and  C12_18 
REMARK   11  A    between atoms: C12_18  and  C14_20 
REMARK   12  A    between atoms: C17_23  and  O7_25 
REMARK   13  A    between atoms: O7_25  and  C18_26 
REMARK   14  A    between atoms: C20_29  and  C22_31 
REMARK   15  A    between atoms: C22_31  and  O8_32 
ROOT
HETATM    1  C4  UNL     1      19.705  -2.373  20.767  1.00  0.00     0.205 C 
HETATM    2  C5  UNL     1      19.067  -1.830  21.975  1.00  0.00     0.075 C 
HETATM    3  N1  UNL     1      18.583  -1.386  22.928  1.00  0.00    -0.196 NA
ENDROOT
BRANCH   1   4
HETATM    4  C3  UNL     1      21.176  -2.476  20.948  1.00  0.00     0.277 C 
HETATM    5  O2  UNL     1      21.610  -2.586  22.122  1.00  0.00    -0.264 OA
BRANCH   4   6
HETATM    6  O1  UNL     1      22.100  -2.457  19.922  1.00  0.00    -0.321 OA
BRANCH   6   7
HETATM    7  C2  UNL     1      22.322  -1.257  19.164  1.00  0.00     0.174 C 
HETATM    8  C1  UNL     1      23.493  -1.489  18.208  1.00  0.00     0.034 C 
ENDBRANCH   6   7
ENDBRANCH   4   6
ENDBRANCH   1   4
BRANCH   1   9
HETATM    9  C6  UNL     1      19.080  -3.630  20.339  1.00  0.00     0.105 C 
HETATM   10  C7  UNL     1      19.066  -3.910  18.885  1.00  0.00     0.165 C 
HETATM   11  O3  UNL     1      19.686  -3.436  17.976  1.00  0.00    -0.295 OA
HETATM   12  C8  UNL     1      18.037  -5.017  18.649  1.00  0.00     0.179 C 
HETATM   13  S1  UNL     1      18.333  -6.001  20.129  1.00  0.00    -0.126 SA
HETATM   14  C20 UNL     1      19.590  -4.894  20.921  1.00  0.00     0.039 C 
HETATM   15  C21 UNL     1      20.915  -5.373  20.388  1.00  0.00     0.030 C 
BRANCH  12  16
HETATM   16  C9  UNL     1      18.333  -5.739  17.397  1.00  0.00     0.218 C 
BRANCH  16  17
HETATM   17  O4  UNL     1      17.554  -5.438  16.329  1.00  0.00    -0.319 OA
BRANCH  17  18
HETATM   18  C10 UNL     1      17.747  -4.901  15.117  1.00  0.00     0.259 C 
HETATM   19  O5  UNL     1      18.139  -3.706  15.032  1.00  0.00    -0.265 OA
BRANCH  18  20
HETATM   20  C11 UNL     1      17.513  -5.667  13.831  1.00  0.00     0.115 C 
BRANCH  20  21
HETATM   21  C12 UNL     1      16.603  -4.917  12.915  1.00  0.00    -0.005 C 
HETATM   22  C13 UNL     1      16.639  -5.475  11.514  1.00  0.00     0.011 C 
BRANCH  21  23
HETATM   23  C14 UNL     1      15.215  -4.963  13.512  1.00  0.00    -0.010 A 
HETATM   24  C15 UNL     1      14.155  -4.291  12.689  1.00  0.00     0.005 A 
HETATM   25  C16 UNL     1      14.227  -5.803  12.818  1.00  0.00     0.005 A 
ENDBRANCH  21  23
ENDBRANCH  20  21
ENDBRANCH  18  20
ENDBRANCH  17  18
ENDBRANCH  16  17
ENDBRANCH  12  16
BRANCH  12  26
HETATM   26  C17 UNL     1      16.724  -4.329  18.646  1.00  0.00     0.287 C 
HETATM   27  O6  UNL     1      15.690  -4.771  19.190  1.00  0.00    -0.263 OA
BRANCH  26  28
HETATM   28  O7  UNL     1      16.659  -3.118  17.992  1.00  0.00    -0.320 OA
BRANCH  28  29
HETATM   29  C18 UNL     1      15.463  -2.429  17.684  1.00  0.00     0.174 C 
HETATM   30  C19 UNL     1      14.783  -3.136  16.512  1.00  0.00     0.034 C 
ENDBRANCH  28  29
ENDBRANCH  26  28
ENDBRANCH  12  26
BRANCH  14  31
HETATM   31  C22 UNL     1      19.425  -5.061  22.384  1.00  0.00     0.185 C 
BRANCH  31  32
HETATM   32  O8  UNL     1      18.085  -5.222  22.685  1.00  0.00    -0.399 OA
ATOM     33  H8  UNL     1      17.913  -6.130  22.906  1.00  0.00     0.209 HD
ENDBRANCH  31  32
ENDBRANCH  14  31
ENDBRANCH   1   9
TORSDOF 15
ENDMDL
MODEL 2
REMARK VINA RESULT: -7.612631854      2.187      3.569
REMARK  15 active torsions:
REMARK  status: ('A' for Active; 'I' for Inactive)
REMARK    1  A    between atoms: C2_2  and  O1_3 
REMARK    2  A    between atoms: O1_3  and  C3_4 
REMARK    3  A    between atoms: C3_4  and  C4_6 
REMARK    4  A    between atoms: C4_6  and  C6_9 
REMARK    5  A    between atoms: C8_12  and  C9_13 
REMARK    6  A    between atoms: C8_12  and  C17_23 
REMARK    7  A    between atoms: C9_13  and  O4_14 
REMARK    8  A    between atoms: O4_14  and  C10_15 
REMARK    9  A    between atoms: C10_15  and  C11_17 
REMARK   10  A    between atoms: C11_17  and  C12_18 
REMARK   11  A    between atoms: C12_18  and  C14_20 
REMARK   12  A    between atoms: C17_23  and  O7_25 
REMARK   13  A    between atoms: O7_25  and  C18_26 
REMARK   14  A    between atoms: C20_29  and  C22_31 
REMARK   15  A    between atoms: C22_31  and  O8_32 
ROOT
HETATM    1  C4  UNL     1      21.727  -4.201  20.415  1.00  0.00     0.205 C 
HETATM    2  C5  UNL     1      22.068  -5.117  19.316  1.00  0.00     0.075 C 
HETATM    3  N1  UNL     1      22.356  -5.824  18.446  1.00  0.00    -0.196 NA
ENDROOT
BRANCH   1   4
HETATM    4  C3  UNL     1      21.924  -2.787  20.003  1.00  0.00     0.277 C 
HETATM    5  O2  UNL     1      21.404  -1.896  20.721  1.00  0.00    -0.264 OA
BRANCH   4   6
HETATM    6  O1  UNL     1      22.634  -2.382  18.891  1.00  0.00    -0.321 OA
BRANCH   6   7
HETATM    7  C2  UNL     1      22.652  -0.998  18.504  1.00  0.00     0.174 C 
HETATM    8  C1  UNL     1      23.918  -0.732  17.689  1.00  0.00     0.034 C 
ENDBRANCH   6   7
ENDBRANCH   4   6
ENDBRANCH   1   4
BRANCH   1   9
HETATM    9  C6  UNL     1      20.389  -4.471  20.954  1.00  0.00     0.105 C 
HETATM   10  C7  UNL     1      19.259  -4.421  19.997  1.00  0.00     0.165 C 
HETATM   11  O3  UNL     1      19.226  -4.446  18.800  1.00  0.00    -0.295 OA
HETATM   12  C8  UNL     1      17.975  -4.319  20.823  1.00  0.00     0.179 C 
HETATM   13  S1  UNL     1      18.431  -5.396  22.194  1.00  0.00    -0.126 SA
HETATM   14  C20 UNL     1      20.171  -5.753  21.666  1.00  0.00     0.039 C 
HETATM   15  C21 UNL     1      20.065  -6.977  20.794  1.00  0.00     0.030 C 
BRANCH  12  16
HETATM   16  C9  UNL     1      16.822  -4.815  20.047  1.00  0.00     0.218 C 
BRANCH  16  17
HETATM   17  O4  UNL     1      16.109  -3.885  19.365  1.00  0.00    -0.319 OA
BRANCH  17  18
HETATM   18  C10 UNL     1      15.966  -3.533  18.080  1.00  0.00     0.259 C 
HETATM   19  O5  UNL     1      15.491  -2.398  17.806  1.00  0.00    -0.265 OA
BRANCH  18  20
HETATM   20  C11 UNL     1      16.350  -4.441  16.931  1.00  0.00     0.115 C 
BRANCH  20  21
HETATM   21  C12 UNL     1      16.621  -3.655  15.690  1.00  0.00    -0.005 C 
HETATM   22  C13 UNL     1      18.091  -3.361  15.526  1.00  0.00     0.011 C 
BRANCH  21  23
HETATM   23  C14 UNL     1      16.063  -4.438  14.523  1.00  0.00    -0.010 A 
HETATM   24  C15 UNL     1      16.069  -3.703  13.214  1.00  0.00     0.005 A 
HETATM   25  C16 UNL     1      17.022  -4.853  13.488  1.00  0.00     0.005 A 
ENDBRANCH  21  23
ENDBRANCH  20  21
ENDBRANCH  18  20
ENDBRANCH  17  18
ENDBRANCH  16  17
ENDBRANCH  12  16
BRANCH  12  26
HETATM   26  C17 UNL     1      17.870  -2.890  21.199  1.00  0.00     0.287 C 
HETATM   27  O6  UNL     1      17.692  -1.953  20.391  1.00  0.00    -0.263 OA
BRANCH  26  28
HETATM   28  O7  UNL     1      17.978  -2.591  22.540  1.00  0.00    -0.320 OA
BRANCH  28  29
HETATM   29  C18 UNL     1      18.851  -1.621  23.085  1.00  0.00     0.174 C 
HETATM   30  C19 UNL     1      20.049  -2.339  23.704  1.00  0.00     0.034 C 
ENDBRANCH  28  29
ENDBRANCH  26  28
ENDBRANCH  12  26
BRANCH  14  31
HETATM   31  C22 UNL     1      20.947  -5.957  22.911  1.00  0.00     0.185 C 
BRANCH  31  32
HETATM   32  O8  UNL     1      20.130  -5.751  24.008  1.00  0.00    -0.399 OA
ATOM     33  H8  UNL     1      20.026  -4.819  24.158  1.00  0.00     0.209 HD
ENDBRANCH  31  32
ENDBRANCH  14  31
ENDBRANCH   1   9
TORSDOF 15
ENDMDL
MODEL 3
REMARK VINA RESULT: -7.470969726      1.350      2.205
REMARK  15 active torsions:
REMARK  status: ('A' for Active; 'I' for Inactive)
REMARK    1  A    between atoms: C2_2  and  O1_3 
REMARK    2  A    between atoms: O1_3  and  C3_4 
REMARK    3  A    between atoms: C3_4  and  C4_6 
REMARK    4  A    between atoms: C4_6  and  C6_9 
REMARK    5  A    between atoms: C8_12  and  C9_13 
REMARK    6  A    between atoms: C8_12  and  C17_23 
REMARK    7  A    between atoms: C9_13  and  O4_14 
REMARK    8  A    between atoms: O4_14  and  C10_15 
REMARK    9  A    between atoms: C10_15  and  C11_17 
REMARK   10  A    between atoms: C11_17  and  C12_18 
REMARK   11  A    between atoms: C12_18  and  C14_20 
REMARK   12  A    between atoms: C17_23  and  O7_25 
REMARK   13  A    between atoms: O7_25  and  C18_26 
REMARK   14  A    between atoms: C20_29  and  C22_31 
REMARK   15  A    between atoms: C22_31  and  O8_32 
ROOT
HETATM    1  C4  UNL     1      19.709  -2.385  20.737  1.00  0.00     0.205 C 
HETATM    2  C5  UNL     1      19.050  -1.851  21.938  1.00  0.00     0.075 C 
HETATM    3  N1  UNL     1      18.549  -1.414  22.886  1.00  0.00    -0.196 NA
ENDROOT
BRANCH   1   4
HETATM    4  C3  UNL     1      21.180  -2.460  20.932  1.00  0.00     0.277 C 
HETATM    5  O2  UNL     1      21.606  -2.546  22.111  1.00  0.00    -0.264 OA
BRANCH   4   6
HETATM    6  O1  UNL     1      22.112  -2.440  19.913  1.00  0.00    -0.321 OA
BRANCH   6   7
HETATM    7  C2  UNL     1      22.301  -1.255  19.122  1.00  0.00     0.174 C 
HETATM    8  C1  UNL     1      23.511  -1.460  18.211  1.00  0.00     0.034 C 
ENDBRANCH   6   7
ENDBRANCH   4   6
ENDBRANCH   1   4
BRANCH   1   9
HETATM    9  C6  UNL     1      19.112  -3.654  20.307  1.00  0.00     0.105 C 
HETATM   10  C7  UNL     1      19.143  -3.951  18.856  1.00  0.00     0.165 C 
HETATM   11  O3  UNL     1      19.783  -3.479  17.959  1.00  0.00    -0.295 OA
HETATM   12  C8  UNL     1      18.134  -5.073  18.604  1.00  0.00     0.179 C 
HETATM   13  S1  UNL     1      18.399  -6.037  20.103  1.00  0.00    -0.126 SA
HETATM   14  C20 UNL     1      19.619  -4.905  20.918  1.00  0.00     0.039 C 
HETATM   15  C21 UNL     1      20.965  -5.374  20.429  1.00  0.00     0.030 C 
BRANCH  12  16
HETATM   16  C9  UNL     1      18.474  -5.806  17.369  1.00  0.00     0.218 C 
BRANCH  16  17
HETATM   17  O4  UNL     1      17.494  -5.906  16.439  1.00  0.00    -0.319 OA
BRANCH  17  18
HETATM   18  C10 UNL     1      17.392  -5.691  15.120  1.00  0.00     0.259 C 
HETATM   19  O5  UNL     1      16.249  -5.534  14.612  1.00  0.00    -0.265 OA
BRANCH  18  20
HETATM   20  C11 UNL     1      18.595  -5.629  14.201  1.00  0.00     0.115 C 
BRANCH  20  21
HETATM   21  C12 UNL     1      18.673  -6.841  13.332  1.00  0.00    -0.005 C 
HETATM   22  C13 UNL     1      18.156  -6.565  11.943  1.00  0.00     0.011 C 
BRANCH  21  23
HETATM   23  C14 UNL     1      20.112  -7.304  13.323  1.00  0.00    -0.010 A 
HETATM   24  C15 UNL     1      20.468  -8.269  14.416  1.00  0.00     0.005 A 
HETATM   25  C16 UNL     1      20.350  -8.711  12.967  1.00  0.00     0.005 A 
ENDBRANCH  21  23
ENDBRANCH  20  21
ENDBRANCH  18  20
ENDBRANCH  17  18
ENDBRANCH  16  17
ENDBRANCH  12  16
BRANCH  12  26
HETATM   26  C17 UNL     1      16.814  -4.401  18.555  1.00  0.00     0.287 C 
HETATM   27  O6  UNL     1      15.805  -4.771  19.193  1.00  0.00    -0.263 OA
BRANCH  26  28
HETATM   28  O7  UNL     1      16.711  -3.293  17.744  1.00  0.00    -0.320 OA
BRANCH  28  29
HETATM   29  C18 UNL     1      15.541  -2.516  17.581  1.00  0.00     0.174 C 
HETATM   30  C19 UNL     1      14.726  -3.101  16.427  1.00  0.00     0.034 C 
ENDBRANCH  28  29
ENDBRANCH  26  28
ENDBRANCH  12  26
BRANCH  14  31
HETATM   31  C22 UNL     1      19.414  -5.057  22.377  1.00  0.00     0.185 C 
BRANCH  31  32
HETATM   32  O8  UNL     1      18.069  -5.241  22.641  1.00  0.00    -0.399 OA
ATOM     33  H8  UNL     1      17.926  -5.249  23.580  1.00  0.00     0.209 HD
ENDBRANCH  31  32
ENDBRANCH  14  31
ENDBRANCH   1   9
TORSDOF 15
ENDMDL
MODEL 4
REMARK VINA RESULT: -7.414250285      2.007      3.720
REMARK  15 active torsions:
REMARK  status: ('A' for Active; 'I' for Inactive)
REMARK    1  A    between atoms: C2_2  and  O1_3 
REMARK    2  A    between atoms: O1_3  and  C3_4 
REMARK    3  A    between atoms: C3_4  and  C4_6 
REMARK    4  A    between atoms: C4_6  and  C6_9 
REMARK    5  A    between atoms: C8_12  and  C9_13 
REMARK    6  A    between atoms: C8_12  and  C17_23 
REMARK    7  A    between atoms: C9_13  and  O4_14 
REMARK    8  A    between atoms: O4_14  and  C10_15 
REMARK    9  A    between atoms: C10_15  and  C11_17 
REMARK   10  A    between atoms: C11_17  and  C12_18 
REMARK   11  A    between atoms: C12_18  and  C14_20 
REMARK   12  A    between atoms: C17_23  and  O7_25 
REMARK   13  A    between atoms: O7_25  and  C18_26 
REMARK   14  A    between atoms: C20_29  and  C22_31 
REMARK   15  A    between atoms: C22_31  and  O8_32 
ROOT
HETATM    1  C4  UNL     1      18.068  -3.671  21.268  1.00  0.00     0.205 C 
HETATM    2  C5  UNL     1      18.241  -4.997  21.878  1.00  0.00     0.075 C 
HETATM    3  N1  UNL     1      18.386  -6.031  22.377  1.00  0.00    -0.196 NA
ENDROOT
BRANCH   1   4
HETATM    4  C3  UNL     1      19.227  -2.794  21.573  1.00  0.00     0.277 C 
HETATM    5  O2  UNL     1      19.388  -1.774  20.858  1.00  0.00    -0.264 OA
BRANCH   4   6
HETATM    6  O1  UNL     1      20.142  -3.020  22.583  1.00  0.00    -0.321 OA
BRANCH   6   7
HETATM    7  C2  UNL     1      21.525  -3.257  22.273  1.00  0.00     0.174 C 
HETATM    8  C1  UNL     1      21.834  -4.736  22.506  1.00  0.00     0.034 C 
ENDBRANCH   6   7
ENDBRANCH   4   6
ENDBRANCH   1   4
BRANCH   1   9
HETATM    9  C6  UNL     1      17.769  -3.765  19.834  1.00  0.00     0.105 C 
HETATM   10  C7  UNL     1      18.328  -4.929  19.109  1.00  0.00     0.165 C 
HETATM   11  O3  UNL     1      18.783  -5.967  19.497  1.00  0.00    -0.295 OA
HETATM   12  C8  UNL     1      18.248  -4.609  17.615  1.00  0.00     0.179 C 
HETATM   13  S1  UNL     1      16.671  -3.738  17.593  1.00  0.00    -0.126 SA
HETATM   14  C20 UNL     1      16.346  -3.760  19.418  1.00  0.00     0.039 C 
HETATM   15  C21 UNL     1      15.589  -5.040  19.658  1.00  0.00     0.030 C 
BRANCH  12  16
HETATM   16  C9  UNL     1      18.241  -5.853  16.820  1.00  0.00     0.218 C 
BRANCH  16  17
HETATM   17  O4  UNL     1      17.348  -5.912  15.802  1.00  0.00    -0.319 OA
BRANCH  17  18
HETATM   18  C10 UNL     1      17.359  -5.626  14.493  1.00  0.00     0.259 C 
HETATM   19  O5  UNL     1      18.182  -6.219  13.744  1.00  0.00    -0.265 OA
BRANCH  18  20
HETATM   20  C11 UNL     1      16.423  -4.616  13.863  1.00  0.00     0.115 C 
BRANCH  20  21
HETATM   21  C12 UNL     1      15.755  -5.181  12.652  1.00  0.00    -0.005 C 
HETATM   22  C13 UNL     1      14.381  -5.713  12.971  1.00  0.00     0.011 C 
BRANCH  21  23
HETATM   23  C14 UNL     1      15.716  -4.092  11.603  1.00  0.00    -0.010 A 
HETATM   24  C15 UNL     1      16.071  -4.545  10.217  1.00  0.00     0.005 A 
HETATM   25  C16 UNL     1      14.646  -4.183  10.599  1.00  0.00     0.005 A 
ENDBRANCH  21  23
ENDBRANCH  20  21
ENDBRANCH  18  20
ENDBRANCH  17  18
ENDBRANCH  16  17
ENDBRANCH  12  16
BRANCH  12  26
HETATM   26  C17 UNL     1      19.414  -3.735  17.344  1.00  0.00     0.287 C 
HETATM   27  O6  UNL     1      19.407  -2.768  16.552  1.00  0.00    -0.263 OA
BRANCH  26  28
HETATM   28  O7  UNL     1      20.577  -4.022  18.023  1.00  0.00    -0.320 OA
BRANCH  28  29
HETATM   29  C18 UNL     1      21.477  -3.057  18.531  1.00  0.00     0.174 C 
HETATM   30  C19 UNL     1      22.822  -3.735  18.790  1.00  0.00     0.034 C 
ENDBRANCH  28  29
ENDBRANCH  26  28
ENDBRANCH  12  26
BRANCH  14  31
HETATM   31  C22 UNL     1      15.576  -2.530  19.715  1.00  0.00     0.185 C 
BRANCH  31  32
HETATM   32  O8  UNL     1      15.231  -1.900  18.533  1.00  0.00    -0.399 OA
ATOM     33  H8  UNL     1      15.867  -2.114  17.860  1.00  0.00     0.209 HD
ENDBRANCH  31  32
ENDBRANCH  14  31
ENDBRANCH   1   9
TORSDOF 15
ENDMDL
MODEL 5
REMARK VINA RESULT: -7.281149899      2.220      4.003
REMARK  15 active torsions:
REMARK  status: ('A' for Active; 'I' for Inactive)
REMARK    1  A    between atoms: C2_2  and  O1_3 
REMARK    2  A    between atoms: O1_3  and  C3_4 
REMARK    3  A    between atoms: C3_4  and  C4_6 
REMARK    4  A    between atoms: C4_6  and  C6_9 
REMARK    5  A    between atoms: C8_12  and  C9_13 
REMARK    6  A    between atoms: C8_12  and  C17_23 
REMARK    7  A    between atoms: C9_13  and  O4_14 
REMARK    8  A    between atoms: O4_14  and  C10_15 
REMARK    9  A    between atoms: C10_15  and  C11_17 
REMARK   10  A    between atoms: C11_17  and  C12_18 
REMARK   11  A    between atoms: C12_18  and  C14_20 
REMARK   12  A    between atoms: C17_23  and  O7_25 
REMARK   13  A    between atoms: O7_25  and  C18_26 
REMARK   14  A    between atoms: C20_29  and  C22_31 
REMARK   15  A    between atoms: C22_31  and  O8_32 
ROOT
HETATM    1  C4  UNL     1      18.062  -3.660  21.368  1.00  0.00     0.205 C 
HETATM    2  C5  UNL     1      18.318  -4.974  21.975  1.00  0.00     0.075 C 
HETATM    3  N1  UNL     1      18.528  -5.998  22.472  1.00  0.00    -0.196 NA
ENDROOT
BRANCH   1   4
HETATM    4  C3  UNL     1      19.189  -2.729  21.630  1.00  0.00     0.277 C 
HETATM    5  O2  UNL     1      19.278  -1.706  20.907  1.00  0.00    -0.264 OA
BRANCH   4   6
HETATM    6  O1  UNL     1      20.147  -2.907  22.609  1.00  0.00    -0.321 OA
BRANCH   6   7
HETATM    7  C2  UNL     1      21.528  -3.082  22.254  1.00  0.00     0.174 C 
HETATM    8  C1  UNL     1      21.903  -4.552  22.448  1.00  0.00     0.034 C 
ENDBRANCH   6   7
ENDBRANCH   4   6
ENDBRANCH   1   4
BRANCH   1   9
HETATM    9  C6  UNL     1      17.718  -3.774  19.946  1.00  0.00     0.105 C 
HETATM   10  C7  UNL     1      18.250  -4.951  19.221  1.00  0.00     0.165 C 
HETATM   11  O3  UNL     1      18.711  -5.986  19.611  1.00  0.00    -0.295 OA
HETATM   12  C8  UNL     1      18.125  -4.653  17.726  1.00  0.00     0.179 C 
HETATM   13  S1  UNL     1      16.552  -3.775  17.740  1.00  0.00    -0.126 SA
HETATM   14  C20 UNL     1      16.284  -3.768  19.573  1.00  0.00     0.039 C 
HETATM   15  C21 UNL     1      15.529  -5.040  19.856  1.00  0.00     0.030 C 
BRANCH  12  16
HETATM   16  C9  UNL     1      18.088  -5.909  16.950  1.00  0.00     0.218 C 
BRANCH  16  17
HETATM   17  O4  UNL     1      17.165  -5.977  15.960  1.00  0.00    -0.319 OA
BRANCH  17  18
HETATM   18  C10 UNL     1      17.034  -5.466  14.728  1.00  0.00     0.259 C 
HETATM   19  O5  UNL     1      15.903  -5.057  14.352  1.00  0.00    -0.265 OA
BRANCH  18  20
HETATM   20  C11 UNL     1      18.191  -5.356  13.756  1.00  0.00     0.115 C 
BRANCH  20  21
HETATM   21  C12 UNL     1      18.111  -6.411  12.702  1.00  0.00    -0.005 C 
HETATM   22  C13 UNL     1      17.438  -5.901  11.453  1.00  0.00     0.011 C 
BRANCH  21  23
HETATM   23  C14 UNL     1      19.518  -6.896  12.434  1.00  0.00    -0.010 A 
HETATM   24  C15 UNL     1      20.028  -7.914  13.412  1.00  0.00     0.005 A 
HETATM   25  C16 UNL     1      19.661  -8.289  11.986  1.00  0.00     0.005 A 
ENDBRANCH  21  23
ENDBRANCH  20  21
ENDBRANCH  18  20
ENDBRANCH  17  18
ENDBRANCH  16  17
ENDBRANCH  12  16
BRANCH  12  26
HETATM   26  C17 UNL     1      19.285  -3.789  17.406  1.00  0.00     0.287 C 
HETATM   27  O6  UNL     1      19.283  -2.889  16.538  1.00  0.00    -0.263 OA
BRANCH  26  28
HETATM   28  O7  UNL     1      20.439  -4.006  18.126  1.00  0.00    -0.320 OA
BRANCH  28  29
HETATM   29  C18 UNL     1      21.343  -2.996  18.531  1.00  0.00     0.174 C 
HETATM   30  C19 UNL     1      22.717  -3.630  18.742  1.00  0.00     0.034 C 
ENDBRANCH  28  29
ENDBRANCH  26  28
ENDBRANCH  12  26
BRANCH  14  31
HETATM   31  C22 UNL     1      15.528  -2.530  19.876  1.00  0.00     0.185 C 
BRANCH  31  32
HETATM   32  O8  UNL     1      15.153  -1.914  18.696  1.00  0.00    -0.399 OA
ATOM     33  H8  UNL     1      15.898  -1.870  18.108  1.00  0.00     0.209 HD
ENDBRANCH  31  32
ENDBRANCH  14  31
ENDBRANCH   1   9
TORSDOF 15
ENDMDL
