MODEL 1
REMARK VINA RESULT: -7.211332758      0.000      0.000
REMARK  17 active torsions:
REMARK  status: ('A' for Active; 'I' for Inactive)
REMARK    1  A    between atoms: C2_2  and  C3_3 
REMARK    2  A    between atoms: C3_3  and  C4_4 
REMARK    3  A    between atoms: C4_4  and  O1_5 
REMARK    4  A    between atoms: C4_4  and  O2_7 
REMARK    5  A    between atoms: O2_7  and  C6_8 
REMARK    6  A    between atoms: C6_8  and  C7_9 
REMARK    7  A    between atoms: C10_13  and  O4_14 
REMARK    8  A    between atoms: O4_14  and  C11_15 
REMARK    9  A    between atoms: C11_15  and  C12_17 
REMARK   10  A    between atoms: C16_21  and  O6_22 
REMARK   11  A    between atoms: O6_22  and  C17_23 
REMARK   12  A    between atoms: C17_23  and  C18_25 
REMARK   13  A    between atoms: C18_25  and  C19_26 
REMARK   14  A    between atoms: C19_26  and  C20_27 
REMARK   15  A    between atoms: C20_27  and  O8_28 
REMARK   16  A    between atoms: C21_30  and  C22_31 
REMARK   17  A    between atoms: C22_31  and  O10_33 
ROOT
HETATM    1  C7  UNL     1      18.076  -4.208  17.354  1.00  0.00     0.105 A 
HETATM    2  O3  UNL     1      19.144  -3.450  16.919  1.00  0.00    -0.376 OA
HETATM    3  C8  UNL     1      18.517  -2.993  15.743  1.00  0.00     0.179 A 
HETATM    4  C9  UNL     1      17.299  -3.782  16.152  1.00  0.00     0.079 A 
HETATM    5  C10 UNL     1      17.053  -5.024  15.313  1.00  0.00     0.171 C 
HETATM    6  C16 UNL     1      17.989  -6.089  15.836  1.00  0.00     0.178 C 
HETATM    7  C21 UNL     1      18.252  -5.698  17.277  1.00  0.00     0.155 C 
ENDROOT
BRANCH   1   8
HETATM    8  C6  UNL     1      17.503  -3.779  18.696  1.00  0.00     0.210 C 
BRANCH   8   9
HETATM    9  O2  UNL     1      18.431  -3.098  19.428  1.00  0.00    -0.358 OA
BRANCH   9  10
HETATM   10  C4  UNL     1      18.548  -3.565  20.731  1.00  0.00     0.259 C 
BRANCH  10  11
HETATM   11  C3  UNL     1      17.864  -4.875  20.915  1.00  0.00     0.060 C 
BRANCH  11  12
HETATM   12  C2  UNL     1      18.724  -5.999  21.367  1.00  0.00     0.000 C 
HETATM   13  C1  UNL     1      19.275  -5.837  22.756  1.00  0.00     0.005 C 
ENDBRANCH  11  12
ENDBRANCH  10  11
BRANCH  10  14
HETATM   14  O1  UNL     1      18.042  -2.599  21.626  1.00  0.00    -0.366 OA
HETATM   15  C5  UNL     1      19.053  -2.045  22.408  1.00  0.00     0.204 C 
ENDBRANCH  10  14
ENDBRANCH   9  10
ENDBRANCH   8   9
ENDBRANCH   1   8
BRANCH   7  16
HETATM   16  C22 UNL     1      19.612  -6.075  17.727  1.00  0.00     0.268 C 
HETATM   17  O9  UNL     1      19.860  -7.262  18.061  1.00  0.00    -0.265 OA
BRANCH  16  18
HETATM   18  O10 UNL     1      20.654  -5.163  17.801  1.00  0.00    -0.326 OA
HETATM   19  C23 UNL     1      21.528  -5.060  18.907  1.00  0.00     0.213 C 
ENDBRANCH  16  18
ENDBRANCH   7  16
BRANCH   5  20
HETATM   20  O4  UNL     1      17.229  -4.803  13.946  1.00  0.00    -0.312 OA
BRANCH  20  21
HETATM   21  C11 UNL     1      16.206  -4.295  13.159  1.00  0.00     0.267 C 
HETATM   22  O5  UNL     1      15.864  -3.101  13.334  1.00  0.00    -0.264 OA
BRANCH  21  23
HETATM   23  C12 UNL     1      15.506  -5.093  12.129  1.00  0.00     0.037 C 
HETATM   24  C13 UNL     1      14.390  -5.867  12.763  1.00  0.00     0.025 C 
HETATM   25  C14 UNL     1      14.901  -4.209  11.045  1.00  0.00     0.025 C 
HETATM   26  C15 UNL     1      16.470  -6.038  11.436  1.00  0.00     0.025 C 
ENDBRANCH  21  23
ENDBRANCH  20  21
ENDBRANCH   5  20
BRANCH   6  27
HETATM   27  O6  UNL     1      19.193  -6.166  15.127  1.00  0.00    -0.312 OA
BRANCH  27  28
HETATM   28  C17 UNL     1      19.598  -7.254  14.371  1.00  0.00     0.259 C 
HETATM   29  O7  UNL     1      20.294  -8.129  14.945  1.00  0.00    -0.265 OA
BRANCH  28  30
HETATM   30  C18 UNL     1      19.258  -7.437  12.949  1.00  0.00     0.113 C 
BRANCH  30  31
HETATM   31  C19 UNL     1      20.100  -8.450  12.252  1.00  0.00     0.036 C 
BRANCH  31  32
HETATM   32  C20 UNL     1      20.483  -7.842  10.895  1.00  0.00     0.164 C 
BRANCH  32  33
HETATM   33  O8  UNL     1      20.408  -8.755   9.876  1.00  0.00    -0.401 OA
ATOM     34  H8  UNL     1      21.257  -9.114   9.649  1.00  0.00     0.209 HD
ENDBRANCH  32  33
ENDBRANCH  31  32
ENDBRANCH  30  31
ENDBRANCH  28  30
ENDBRANCH  27  28
ENDBRANCH   6  27
TORSDOF 17
ENDMDL
MODEL 2
REMARK VINA RESULT: -7.022410552      1.903      8.474
REMARK  17 active torsions:
REMARK  status: ('A' for Active; 'I' for Inactive)
REMARK    1  A    between atoms: C2_2  and  C3_3 
REMARK    2  A    between atoms: C3_3  and  C4_4 
REMARK    3  A    between atoms: C4_4  and  O1_5 
REMARK    4  A    between atoms: C4_4  and  O2_7 
REMARK    5  A    between atoms: O2_7  and  C6_8 
REMARK    6  A    between atoms: C6_8  and  C7_9 
REMARK    7  A    between atoms: C10_13  and  O4_14 
REMARK    8  A    between atoms: O4_14  and  C11_15 
REMARK    9  A    between atoms: C11_15  and  C12_17 
REMARK   10  A    between atoms: C16_21  and  O6_22 
REMARK   11  A    between atoms: O6_22  and  C17_23 
REMARK   12  A    between atoms: C17_23  and  C18_25 
REMARK   13  A    between atoms: C18_25  and  C19_26 
REMARK   14  A    between atoms: C19_26  and  C20_27 
REMARK   15  A    between atoms: C20_27  and  O8_28 
REMARK   16  A    between atoms: C21_30  and  C22_31 
REMARK   17  A    between atoms: C22_31  and  O10_33 
ROOT
HETATM    1  C7  UNL     1      18.751  -5.609  17.358  1.00  0.00     0.105 A 
HETATM    2  O3  UNL     1      19.840  -4.807  17.085  1.00  0.00    -0.376 OA
HETATM    3  C8  UNL     1      20.669  -5.358  18.081  1.00  0.00     0.179 A 
HETATM    4  C9  UNL     1      19.533  -6.285  18.435  1.00  0.00     0.079 A 
HETATM    5  C10 UNL     1      18.854  -5.959  19.754  1.00  0.00     0.171 C 
HETATM    6  C16 UNL     1      17.910  -4.812  19.481  1.00  0.00     0.178 C 
HETATM    7  C21 UNL     1      17.579  -4.927  18.006  1.00  0.00     0.155 C 
ENDROOT
BRANCH   1   8
HETATM    8  C6  UNL     1      18.315  -6.496  16.203  1.00  0.00     0.210 C 
BRANCH   8   9
HETATM    9  O2  UNL     1      18.899  -6.101  15.035  1.00  0.00    -0.358 OA
BRANCH   9  10
HETATM   10  C4  UNL     1      18.008  -6.039  13.971  1.00  0.00     0.259 C 
BRANCH  10  11
HETATM   11  C3  UNL     1      18.580  -6.640  12.734  1.00  0.00     0.060 C 
BRANCH  11  12
HETATM   12  C2  UNL     1      19.593  -7.708  12.938  1.00  0.00     0.000 C 
HETATM   13  C1  UNL     1      19.939  -8.479  11.695  1.00  0.00     0.005 C 
ENDBRANCH  11  12
ENDBRANCH  10  11
BRANCH  10  14
HETATM   14  O1  UNL     1      17.625  -4.699  13.754  1.00  0.00    -0.366 OA
HETATM   15  C5  UNL     1      16.239  -4.559  13.739  1.00  0.00     0.204 C 
ENDBRANCH  10  14
ENDBRANCH   9  10
ENDBRANCH   8   9
ENDBRANCH   1   8
BRANCH   7  16
HETATM   16  C22 UNL     1      17.341  -3.609  17.374  1.00  0.00     0.268 C 
HETATM   17  O9  UNL     1      18.187  -3.128  16.577  1.00  0.00    -0.265 OA
BRANCH  16  18
HETATM   18  O10 UNL     1      16.203  -2.857  17.621  1.00  0.00    -0.326 OA
HETATM   19  C23 UNL     1      14.993  -3.009  16.906  1.00  0.00     0.213 C 
ENDBRANCH  16  18
ENDBRANCH   7  16
BRANCH   5  20
HETATM   20  O4  UNL     1      19.760  -5.656  20.774  1.00  0.00    -0.312 OA
BRANCH  20  21
HETATM   21  C11 UNL     1      19.768  -6.364  21.966  1.00  0.00     0.267 C 
HETATM   22  O5  UNL     1      18.802  -6.209  22.750  1.00  0.00    -0.264 OA
BRANCH  21  23
HETATM   23  C12 UNL     1      20.859  -7.286  22.351  1.00  0.00     0.037 C 
HETATM   24  C13 UNL     1      20.365  -8.699  22.303  1.00  0.00     0.025 C 
HETATM   25  C14 UNL     1      22.050  -7.176  21.406  1.00  0.00     0.025 C 
HETATM   26  C15 UNL     1      21.372  -6.958  23.741  1.00  0.00     0.025 C 
ENDBRANCH  21  23
ENDBRANCH  20  21
ENDBRANCH   5  20
BRANCH   6  27
HETATM   27  O6  UNL     1      18.466  -3.557  19.757  1.00  0.00    -0.312 OA
BRANCH  27  28
HETATM   28  C17 UNL     1      18.056  -2.718  20.779  1.00  0.00     0.259 C 
HETATM   29  O7  UNL     1      17.087  -1.953  20.546  1.00  0.00    -0.265 OA
BRANCH  28  30
HETATM   30  C18 UNL     1      18.688  -2.676  22.110  1.00  0.00     0.113 C 
BRANCH  30  31
HETATM   31  C19 UNL     1      20.151  -2.394  22.076  1.00  0.00     0.036 C 
BRANCH  31  32
HETATM   32  C20 UNL     1      20.773  -3.165  23.249  1.00  0.00     0.164 C 
BRANCH  32  33
HETATM   33  O8  UNL     1      21.993  -3.703  22.930  1.00  0.00    -0.401 OA
ATOM     34  H8  UNL     1      22.714  -3.198  23.287  1.00  0.00     0.209 HD
ENDBRANCH  32  33
ENDBRANCH  31  32
ENDBRANCH  30  31
ENDBRANCH  28  30
ENDBRANCH  27  28
ENDBRANCH   6  27
TORSDOF 17
ENDMDL
MODEL 3
REMARK VINA RESULT: -6.980933355      0.530      1.104
REMARK  17 active torsions:
REMARK  status: ('A' for Active; 'I' for Inactive)
REMARK    1  A    between atoms: C2_2  and  C3_3 
REMARK    2  A    between atoms: C3_3  and  C4_4 
REMARK    3  A    between atoms: C4_4  and  O1_5 
REMARK    4  A    between atoms: C4_4  and  O2_7 
REMARK    5  A    between atoms: O2_7  and  C6_8 
REMARK    6  A    between atoms: C6_8  and  C7_9 
REMARK    7  A    between atoms: C10_13  and  O4_14 
REMARK    8  A    between atoms: O4_14  and  C11_15 
REMARK    9  A    between atoms: C11_15  and  C12_17 
REMARK   10  A    between atoms: C16_21  and  O6_22 
REMARK   11  A    between atoms: O6_22  and  C17_23 
REMARK   12  A    between atoms: C17_23  and  C18_25 
REMARK   13  A    between atoms: C18_25  and  C19_26 
REMARK   14  A    between atoms: C19_26  and  C20_27 
REMARK   15  A    between atoms: C20_27  and  O8_28 
REMARK   16  A    between atoms: C21_30  and  C22_31 
REMARK   17  A    between atoms: C22_31  and  O10_33 
ROOT
HETATM    1  C7  UNL     1      18.192  -4.225  17.393  1.00  0.00     0.105 A 
HETATM    2  O3  UNL     1      19.263  -3.483  16.935  1.00  0.00    -0.376 OA
HETATM    3  C8  UNL     1      18.621  -3.023  15.768  1.00  0.00     0.179 A 
HETATM    4  C9  UNL     1      17.400  -3.794  16.203  1.00  0.00     0.079 A 
HETATM    5  C10 UNL     1      17.122  -5.037  15.376  1.00  0.00     0.171 C 
HETATM    6  C16 UNL     1      18.053  -6.112  15.887  1.00  0.00     0.178 C 
HETATM    7  C21 UNL     1      18.347  -5.717  17.321  1.00  0.00     0.155 C 
ENDROOT
BRANCH   1   8
HETATM    8  C6  UNL     1      17.650  -3.782  18.743  1.00  0.00     0.210 C 
BRANCH   8   9
HETATM    9  O2  UNL     1      18.564  -3.023  19.413  1.00  0.00    -0.358 OA
BRANCH   9  10
HETATM   10  C4  UNL     1      18.640  -3.326  20.766  1.00  0.00     0.259 C 
BRANCH  10  11
HETATM   11  C3  UNL     1      17.784  -4.492  21.122  1.00  0.00     0.060 C 
BRANCH  11  12
HETATM   12  C2  UNL     1      18.466  -5.609  21.825  1.00  0.00     0.000 C 
HETATM   13  C1  UNL     1      19.895  -5.821  21.411  1.00  0.00     0.005 C 
ENDBRANCH  11  12
ENDBRANCH  10  11
BRANCH  10  14
HETATM   14  O1  UNL     1      18.290  -2.190  21.525  1.00  0.00    -0.366 OA
HETATM   15  C5  UNL     1      19.188  -1.975  22.568  1.00  0.00     0.204 C 
ENDBRANCH  10  14
ENDBRANCH   9  10
ENDBRANCH   8   9
ENDBRANCH   1   8
BRANCH   7  16
HETATM   16  C22 UNL     1      19.709  -6.111  17.749  1.00  0.00     0.268 C 
HETATM   17  O9  UNL     1      20.647  -5.273  17.721  1.00  0.00    -0.265 OA
BRANCH  16  18
HETATM   18  O10 UNL     1      20.013  -7.389  18.191  1.00  0.00    -0.326 OA
HETATM   19  C23 UNL     1      21.333  -7.877  18.330  1.00  0.00     0.213 C 
ENDBRANCH  16  18
ENDBRANCH   7  16
BRANCH   5  20
HETATM   20  O4  UNL     1      17.276  -4.825  14.004  1.00  0.00    -0.312 OA
BRANCH  20  21
HETATM   21  C11 UNL     1      16.251  -4.293  13.236  1.00  0.00     0.267 C 
HETATM   22  O5  UNL     1      15.915  -3.103  13.443  1.00  0.00    -0.264 OA
BRANCH  21  23
HETATM   23  C12 UNL     1      15.542  -5.063  12.190  1.00  0.00     0.037 C 
HETATM   24  C13 UNL     1      15.020  -4.128  11.142  1.00  0.00     0.025 C 
HETATM   25  C14 UNL     1      16.465  -6.063  11.503  1.00  0.00     0.025 C 
HETATM   26  C15 UNL     1      14.402  -5.862  12.793  1.00  0.00     0.025 C 
ENDBRANCH  21  23
ENDBRANCH  20  21
ENDBRANCH   5  20
BRANCH   6  27
HETATM   27  O6  UNL     1      19.243  -6.209  15.156  1.00  0.00    -0.312 OA
BRANCH  27  28
HETATM   28  C17 UNL     1      19.622  -7.309  14.406  1.00  0.00     0.259 C 
HETATM   29  O7  UNL     1      20.311  -8.190  14.980  1.00  0.00    -0.265 OA
BRANCH  28  30
HETATM   30  C18 UNL     1      19.266  -7.498  12.988  1.00  0.00     0.113 C 
BRANCH  30  31
HETATM   31  C19 UNL     1      20.103  -8.509  12.285  1.00  0.00     0.036 C 
BRANCH  31  32
HETATM   32  C20 UNL     1      20.481  -7.898  10.927  1.00  0.00     0.164 C 
BRANCH  32  33
HETATM   33  O8  UNL     1      20.378  -8.802   9.902  1.00  0.00    -0.401 OA
ATOM     34  H8  UNL     1      21.097  -8.733   9.286  1.00  0.00     0.209 HD
ENDBRANCH  32  33
ENDBRANCH  31  32
ENDBRANCH  30  31
ENDBRANCH  28  30
ENDBRANCH  27  28
ENDBRANCH   6  27
TORSDOF 17
ENDMDL
MODEL 4
REMARK VINA RESULT: -6.962722393      0.755      1.459
REMARK  17 active torsions:
REMARK  status: ('A' for Active; 'I' for Inactive)
REMARK    1  A    between atoms: C2_2  and  C3_3 
REMARK    2  A    between atoms: C3_3  and  C4_4 
REMARK    3  A    between atoms: C4_4  and  O1_5 
REMARK    4  A    between atoms: C4_4  and  O2_7 
REMARK    5  A    between atoms: O2_7  and  C6_8 
REMARK    6  A    between atoms: C6_8  and  C7_9 
REMARK    7  A    between atoms: C10_13  and  O4_14 
REMARK    8  A    between atoms: O4_14  and  C11_15 
REMARK    9  A    between atoms: C11_15  and  C12_17 
REMARK   10  A    between atoms: C16_21  and  O6_22 
REMARK   11  A    between atoms: O6_22  and  C17_23 
REMARK   12  A    between atoms: C17_23  and  C18_25 
REMARK   13  A    between atoms: C18_25  and  C19_26 
REMARK   14  A    between atoms: C19_26  and  C20_27 
REMARK   15  A    between atoms: C20_27  and  O8_28 
REMARK   16  A    between atoms: C21_30  and  C22_31 
REMARK   17  A    between atoms: C22_31  and  O10_33 
ROOT
HETATM    1  C7  UNL     1      18.102  -4.218  17.361  1.00  0.00     0.105 A 
HETATM    2  O3  UNL     1      19.171  -3.461  16.926  1.00  0.00    -0.376 OA
HETATM    3  C8  UNL     1      18.539  -2.989  15.759  1.00  0.00     0.179 A 
HETATM    4  C9  UNL     1      17.320  -3.777  16.167  1.00  0.00     0.079 A 
HETATM    5  C10 UNL     1      17.064  -5.010  15.318  1.00  0.00     0.171 C 
HETATM    6  C16 UNL     1      17.999  -6.084  15.825  1.00  0.00     0.178 C 
HETATM    7  C21 UNL     1      18.272  -5.708  17.268  1.00  0.00     0.155 C 
ENDROOT
BRANCH   1   8
HETATM    8  C6  UNL     1      17.540  -3.801  18.710  1.00  0.00     0.210 C 
BRANCH   8   9
HETATM    9  O2  UNL     1      18.466  -3.107  19.432  1.00  0.00    -0.358 OA
BRANCH   9  10
HETATM   10  C4  UNL     1      18.450  -3.420  20.786  1.00  0.00     0.259 C 
BRANCH  10  11
HETATM   11  C3  UNL     1      19.284  -2.478  21.582  1.00  0.00     0.060 C 
BRANCH  11  12
HETATM   12  C2  UNL     1      20.755  -2.651  21.463  1.00  0.00     0.000 C 
HETATM   13  C1  UNL     1      21.403  -3.281  22.664  1.00  0.00     0.005 C 
ENDBRANCH  11  12
ENDBRANCH  10  11
BRANCH  10  14
HETATM   14  O1  UNL     1      18.877  -4.753  20.966  1.00  0.00    -0.366 OA
HETATM   15  C5  UNL     1      18.294  -5.328  22.093  1.00  0.00     0.204 C 
ENDBRANCH  10  14
ENDBRANCH   9  10
ENDBRANCH   8   9
ENDBRANCH   1   8
BRANCH   7  16
HETATM   16  C22 UNL     1      19.633  -6.095  17.706  1.00  0.00     0.268 C 
HETATM   17  O9  UNL     1      19.876  -7.285  18.036  1.00  0.00    -0.265 OA
BRANCH  16  18
HETATM   18  O10 UNL     1      20.682  -5.191  17.773  1.00  0.00    -0.326 OA
HETATM   19  C23 UNL     1      21.657  -5.196  18.796  1.00  0.00     0.213 C 
ENDBRANCH  16  18
ENDBRANCH   7  16
BRANCH   5  20
HETATM   20  O4  UNL     1      17.232  -4.776  13.952  1.00  0.00    -0.312 OA
BRANCH  20  21
HETATM   21  C11 UNL     1      16.202  -4.270  13.173  1.00  0.00     0.267 C 
HETATM   22  O5  UNL     1      15.862  -3.076  13.348  1.00  0.00    -0.264 OA
BRANCH  21  23
HETATM   23  C12 UNL     1      15.491  -5.072  12.153  1.00  0.00     0.037 C 
HETATM   24  C13 UNL     1      14.943  -4.168  11.093  1.00  0.00     0.025 C 
HETATM   25  C14 UNL     1      16.420  -6.074  11.476  1.00  0.00     0.025 C 
HETATM   26  C15 UNL     1      14.370  -5.874  12.788  1.00  0.00     0.025 C 
ENDBRANCH  21  23
ENDBRANCH  20  21
ENDBRANCH   5  20
BRANCH   6  27
HETATM   27  O6  UNL     1      19.198  -6.159  15.107  1.00  0.00    -0.312 OA
BRANCH  27  28
HETATM   28  C17 UNL     1      19.584  -7.232  14.322  1.00  0.00     0.259 C 
HETATM   29  O7  UNL     1      20.227  -8.156  14.881  1.00  0.00    -0.265 OA
BRANCH  28  30
HETATM   30  C18 UNL     1      19.283  -7.347  12.883  1.00  0.00     0.113 C 
BRANCH  30  31
HETATM   31  C19 UNL     1      20.042  -8.427  12.192  1.00  0.00     0.036 C 
BRANCH  31  32
HETATM   32  C20 UNL     1      20.501  -7.846  10.846  1.00  0.00     0.164 C 
BRANCH  32  33
HETATM   33  O8  UNL     1      20.440  -8.768   9.833  1.00  0.00    -0.401 OA
ATOM     34  H8  UNL     1      21.300  -9.070   9.567  1.00  0.00     0.209 HD
ENDBRANCH  32  33
ENDBRANCH  31  32
ENDBRANCH  30  31
ENDBRANCH  28  30
ENDBRANCH  27  28
ENDBRANCH   6  27
TORSDOF 17
ENDMDL
MODEL 5
REMARK VINA RESULT: -6.948246060      1.187      1.626
REMARK  17 active torsions:
REMARK  status: ('A' for Active; 'I' for Inactive)
REMARK    1  A    between atoms: C2_2  and  C3_3 
REMARK    2  A    between atoms: C3_3  and  C4_4 
REMARK    3  A    between atoms: C4_4  and  O1_5 
REMARK    4  A    between atoms: C4_4  and  O2_7 
REMARK    5  A    between atoms: O2_7  and  C6_8 
REMARK    6  A    between atoms: C6_8  and  C7_9 
REMARK    7  A    between atoms: C10_13  and  O4_14 
REMARK    8  A    between atoms: O4_14  and  C11_15 
REMARK    9  A    between atoms: C11_15  and  C12_17 
REMARK   10  A    between atoms: C16_21  and  O6_22 
REMARK   11  A    between atoms: O6_22  and  C17_23 
REMARK   12  A    between atoms: C17_23  and  C18_25 
REMARK   13  A    between atoms: C18_25  and  C19_26 
REMARK   14  A    between atoms: C19_26  and  C20_27 
REMARK   15  A    between atoms: C20_27  and  O8_28 
REMARK   16  A    between atoms: C21_30  and  C22_31 
REMARK   17  A    between atoms: C22_31  and  O10_33 
ROOT
HETATM    1  C7  UNL     1      18.587  -4.401  17.895  1.00  0.00     0.105 A 
HETATM    2  O3  UNL     1      19.533  -3.598  17.291  1.00  0.00    -0.376 OA
HETATM    3  C8  UNL     1      18.682  -3.127  16.272  1.00  0.00     0.179 A 
HETATM    4  C9  UNL     1      17.585  -3.965  16.877  1.00  0.00     0.079 A 
HETATM    5  C10 UNL     1      17.215  -5.190  16.058  1.00  0.00     0.171 C 
HETATM    6  C16 UNL     1      18.260  -6.239  16.357  1.00  0.00     0.178 C 
HETATM    7  C21 UNL     1      18.783  -5.883  17.735  1.00  0.00     0.155 C 
ENDROOT
BRANCH   1   8
HETATM    8  C6  UNL     1      18.269  -4.030  19.335  1.00  0.00     0.210 C 
BRANCH   8   9
HETATM    9  O2  UNL     1      18.783  -2.806  19.649  1.00  0.00    -0.358 OA
BRANCH   9  10
HETATM   10  C4  UNL     1      19.867  -2.874  20.516  1.00  0.00     0.259 C 
BRANCH  10  11
HETATM   11  C3  UNL     1      19.434  -3.013  21.934  1.00  0.00     0.060 C 
BRANCH  11  12
HETATM   12  C2  UNL     1      20.517  -3.240  22.925  1.00  0.00     0.000 C 
HETATM   13  C1  UNL     1      21.453  -4.362  22.574  1.00  0.00     0.005 C 
ENDBRANCH  11  12
ENDBRANCH  10  11
BRANCH  10  14
HETATM   14  O1  UNL     1      20.681  -1.735  20.343  1.00  0.00    -0.366 OA
HETATM   15  C5  UNL     1      21.842  -2.039  19.636  1.00  0.00     0.204 C 
ENDBRANCH  10  14
ENDBRANCH   9  10
ENDBRANCH   8   9
ENDBRANCH   1   8
BRANCH   7  16
HETATM   16  C22 UNL     1      20.212  -6.230  17.906  1.00  0.00     0.268 C 
HETATM   17  O9  UNL     1      20.557  -7.429  18.061  1.00  0.00    -0.265 OA
BRANCH  16  18
HETATM   18  O10 UNL     1      21.218  -5.275  17.903  1.00  0.00    -0.326 OA
HETATM   19  C23 UNL     1      22.547  -5.536  18.309  1.00  0.00     0.213 C 
ENDBRANCH  16  18
ENDBRANCH   7  16
BRANCH   5  20
HETATM   20  O4  UNL     1      17.121  -4.924  14.691  1.00  0.00    -0.312 OA
BRANCH  20  21
HETATM   21  C11 UNL     1      15.960  -4.412  14.132  1.00  0.00     0.267 C 
HETATM   22  O5  UNL     1      15.319  -3.555  14.786  1.00  0.00    -0.264 OA
BRANCH  21  23
HETATM   23  C12 UNL     1      15.448  -4.828  12.808  1.00  0.00     0.037 C 
HETATM   24  C13 UNL     1      16.536  -5.514  12.040  1.00  0.00     0.025 C 
HETATM   25  C14 UNL     1      14.283  -5.803  12.936  1.00  0.00     0.025 C 
HETATM   26  C15 UNL     1      14.933  -3.631  12.032  1.00  0.00     0.025 C 
ENDBRANCH  21  23
ENDBRANCH  20  21
ENDBRANCH   5  20
BRANCH   6  27
HETATM   27  O6  UNL     1      19.309  -6.258  15.430  1.00  0.00    -0.312 OA
BRANCH  27  28
HETATM   28  C17 UNL     1      19.602  -7.319  14.590  1.00  0.00     0.259 C 
HETATM   29  O7  UNL     1      20.174  -8.317  15.096  1.00  0.00    -0.265 OA
BRANCH  28  30
HETATM   30  C18 UNL     1      19.283  -7.339  13.150  1.00  0.00     0.113 C 
BRANCH  30  31
HETATM   31  C19 UNL     1      20.038  -8.365  12.378  1.00  0.00     0.036 C 
BRANCH  31  32
HETATM   32  C20 UNL     1      20.384  -7.727  11.024  1.00  0.00     0.164 C 
BRANCH  32  33
HETATM   33  O8  UNL     1      20.398  -8.644  10.006  1.00  0.00    -0.401 OA
ATOM     34  H8  UNL     1      20.835  -8.314   9.229  1.00  0.00     0.209 HD
ENDBRANCH  32  33
ENDBRANCH  31  32
ENDBRANCH  30  31
ENDBRANCH  28  30
ENDBRANCH  27  28
ENDBRANCH   6  27
TORSDOF 17
ENDMDL
