MODEL 1
REMARK VINA RESULT: -10.554633817      0.000      0.000
REMARK  6 active torsions:
REMARK  status: ('A' for Active; 'I' for Inactive)
REMARK    1  A    between atoms: C3_4  and  N2_5 
REMARK    2  A    between atoms: C5_7  and  C6_8 
REMARK    3  A    between atoms: C9_13  and  C10_14 
REMARK    4  A    between atoms: N4_17  and  C13_18 
REMARK       I    between atoms: N6_29  and  C22_31 
REMARK       I    between atoms: C22_31  and  N7_33 
REMARK    5  A    between atoms: N7_33  and  C23_34 
REMARK    6  A    between atoms: C23_34  and  C24_35 
ROOT
HETATM    1  N1  UNL     1      10.920  20.450   6.649  1.00  0.00    -0.191 NA
HETATM    2  C1  UNL     1      11.369  21.378   6.147  1.00  0.00     0.105 C 
HETATM    3  C2  UNL     1      11.925  22.562   5.577  1.00  0.00     0.116 A 
HETATM    4  C3  UNL     1      13.270  22.820   5.543  1.00  0.00     0.066 A 
HETATM    5  C19 UNL     1      13.823  23.905   5.081  1.00  0.00     0.049 A 
HETATM    6  C20 UNL     1      12.974  24.898   4.560  1.00  0.00     0.092 A 
HETATM    7  N5  UNL     1      11.646  24.660   4.578  1.00  0.00    -0.351 N 
ATOM      8  H5  UNL     1      11.033  25.380   4.197  1.00  0.00     0.166 HD
HETATM    9  C21 UNL     1      11.055  23.516   5.073  1.00  0.00     0.133 A 
HETATM   10  N6  UNL     1       9.783  23.231   4.954  1.00  0.00    -0.281 N 
ATOM     11  H6  UNL     1       9.315  22.354   5.184  1.00  0.00     0.173 HD
HETATM   12  C22 UNL     1       9.134  24.544   4.375  1.00  0.00     0.394 C 
HETATM   13  O1  UNL     1       8.912  24.456   3.216  1.00  0.00    -0.230 OA
HETATM   14  N7  UNL     1       9.048  25.372   5.449  1.00  0.00    -0.396 NA
ENDROOT
BRANCH   4  15
HETATM   15  N2  UNL     1      14.048  21.773   6.184  1.00  0.00    -0.308 N 
HETATM   16  C4  UNL     1      14.684  21.951   7.335  1.00  0.00     0.124 A 
HETATM   17  C5  UNL     1      15.350  20.774   7.605  1.00  0.00     0.030 A 
HETATM   18  N3  UNL     1      15.079  19.946   6.613  1.00  0.00    -0.347 N 
HETATM   19  C9  UNL     1      14.265  20.575   5.712  1.00  0.00     0.092 A 
ATOM     20  H3  UNL     1      15.421  18.989   6.532  1.00  0.00     0.167 HD
BRANCH  17  21
HETATM   21  C6  UNL     1      16.219  20.585   8.801  1.00  0.00     0.037 A 
HETATM   22  C7  UNL     1      17.077  19.343   8.817  1.00  0.00     0.011 A 
HETATM   23  C8  UNL     1      15.911  19.405   9.706  1.00  0.00     0.011 A 
ENDBRANCH  17  21
BRANCH  19  24
HETATM   24  C10 UNL     1      13.899  19.891   4.450  1.00  0.00     0.057 C 
HETATM   25  C11 UNL     1      13.787  18.420   4.479  1.00  0.00     0.042 C 
HETATM   26  C12 UNL     1      15.007  17.713   3.924  1.00  0.00     0.273 C 
HETATM   27  N4  UNL     1      15.299  18.116   2.551  1.00  0.00     0.093 N 
HETATM   28  C17 UNL     1      14.691  19.341   2.192  1.00  0.00     0.273 C 
HETATM   29  C18 UNL     1      14.831  20.318   3.311  1.00  0.00     0.042 C 
BRANCH  27  30
HETATM   30  C13 UNL     1      16.750  18.179   2.496  1.00  0.00     0.223 C 
HETATM   31  C14 UNL     1      17.532  16.939   2.401  1.00  0.00     0.036 C 
HETATM   32  C15 UNL     1      17.896  17.035   3.856  1.00  0.00     0.004 C 
HETATM   33  C16 UNL     1      17.355  18.425   3.891  1.00  0.00     0.036 C 
ENDBRANCH  27  30
ENDBRANCH  19  24
ENDBRANCH   4  15
BRANCH  14  34
HETATM   34  C23 UNL     1       8.952  26.221   6.510  1.00  0.00     0.231 C 
BRANCH  34  35
HETATM   35  C24 UNL     1       9.960  25.585   7.541  1.00  0.00     0.053 A 
HETATM   36  C25 UNL     1      10.542  25.588   8.828  1.00  0.00     0.048 A 
HETATM   37  C26 UNL     1       9.133  25.691   8.927  1.00  0.00     0.177 A 
HETATM   38  F1  UNL     1       8.284  24.676   9.187  1.00  0.00    -0.249 F 
ENDBRANCH  34  35
ENDBRANCH  14  34
TORSDOF 6
ENDMDL
MODEL 2
REMARK VINA RESULT: -10.025790378      3.048      9.015
REMARK  6 active torsions:
REMARK  status: ('A' for Active; 'I' for Inactive)
REMARK    1  A    between atoms: C3_4  and  N2_5 
REMARK    2  A    between atoms: C5_7  and  C6_8 
REMARK    3  A    between atoms: C9_13  and  C10_14 
REMARK    4  A    between atoms: N4_17  and  C13_18 
REMARK       I    between atoms: N6_29  and  C22_31 
REMARK       I    between atoms: C22_31  and  N7_33 
REMARK    5  A    between atoms: N7_33  and  C23_34 
REMARK    6  A    between atoms: C23_34  and  C24_35 
ROOT
HETATM    1  N1  UNL     1      10.928  20.396   6.465  1.00  0.00    -0.191 NA
HETATM    2  C1  UNL     1      11.771  21.127   6.202  1.00  0.00     0.105 C 
HETATM    3  C2  UNL     1      12.823  22.011   5.818  1.00  0.00     0.116 A 
HETATM    4  C3  UNL     1      12.605  23.218   5.207  1.00  0.00     0.066 A 
HETATM    5  C19 UNL     1      13.531  24.036   4.792  1.00  0.00     0.049 A 
HETATM    6  C20 UNL     1      14.871  23.661   4.996  1.00  0.00     0.092 A 
HETATM    7  N5  UNL     1      15.105  22.479   5.603  1.00  0.00    -0.351 N 
ATOM      8  H5  UNL     1      16.078  22.211   5.752  1.00  0.00     0.166 HD
HETATM    9  C21 UNL     1      14.130  21.606   6.037  1.00  0.00     0.133 A 
HETATM   10  N6  UNL     1      14.363  20.534   6.753  1.00  0.00    -0.281 N 
ATOM     11  H6  UNL     1      13.682  19.926   7.205  1.00  0.00     0.173 HD
HETATM   12  C22 UNL     1      15.932  20.395   6.759  1.00  0.00     0.394 C 
HETATM   13  O1  UNL     1      16.406  20.763   7.779  1.00  0.00    -0.230 OA
HETATM   14  N7  UNL     1      16.224  19.879   5.537  1.00  0.00    -0.396 NA
ENDROOT
BRANCH   4  15
HETATM   15  N2  UNL     1      11.193  23.466   4.965  1.00  0.00    -0.308 N 
HETATM   16  C4  UNL     1      10.646  23.397   3.759  1.00  0.00     0.124 A 
HETATM   17  C5  UNL     1       9.320  23.743   3.906  1.00  0.00     0.030 A 
HETATM   18  N3  UNL     1       9.130  23.993   5.188  1.00  0.00    -0.347 N 
HETATM   19  C9  UNL     1      10.311  23.828   5.857  1.00  0.00     0.092 A 
ATOM     20  H3  UNL     1       8.244  24.266   5.612  1.00  0.00     0.167 HD
BRANCH  17  21
HETATM   21  C6  UNL     1       8.367  23.824   2.763  1.00  0.00     0.037 A 
HETATM   22  C7  UNL     1       6.907  23.972   3.116  1.00  0.00     0.011 A 
HETATM   23  C8  UNL     1       7.379  22.683   2.597  1.00  0.00     0.011 A 
ENDBRANCH  17  21
BRANCH  19  24
HETATM   24  C10 UNL     1      10.389  24.152   7.301  1.00  0.00     0.057 C 
HETATM   25  C11 UNL     1       9.219  23.825   8.138  1.00  0.00     0.042 C 
HETATM   26  C12 UNL     1       8.334  25.020   8.428  1.00  0.00     0.273 C 
HETATM   27  N4  UNL     1       9.066  26.101   9.081  1.00  0.00     0.093 N 
HETATM   28  C17 UNL     1      10.467  26.001   8.915  1.00  0.00     0.273 C 
HETATM   29  C18 UNL     1      10.781  25.620   7.507  1.00  0.00     0.042 C 
BRANCH  27  30
HETATM   30  C13 UNL     1       8.523  27.312   8.489  1.00  0.00     0.223 C 
HETATM   31  C14 UNL     1       7.078  27.569   8.549  1.00  0.00     0.036 C 
HETATM   32  C15 UNL     1       6.929  27.172   7.107  1.00  0.00     0.004 C 
HETATM   33  C16 UNL     1       8.413  27.188   6.958  1.00  0.00     0.036 C 
ENDBRANCH  27  30
ENDBRANCH  19  24
ENDBRANCH   4  15
BRANCH  14  34
HETATM   34  C23 UNL     1      16.542  19.363   4.317  1.00  0.00     0.231 C 
BRANCH  34  35
HETATM   35  C24 UNL     1      15.196  19.540   3.516  1.00  0.00     0.053 A 
HETATM   36  C25 UNL     1      14.534  19.727   2.282  1.00  0.00     0.048 A 
HETATM   37  C26 UNL     1      15.492  18.689   2.172  1.00  0.00     0.177 A 
HETATM   38  F1  UNL     1      15.235  17.368   2.240  1.00  0.00    -0.249 F 
ENDBRANCH  34  35
ENDBRANCH  14  34
TORSDOF 6
ENDMDL
MODEL 3
REMARK VINA RESULT: -9.972423004      3.375      8.461
REMARK  6 active torsions:
REMARK  status: ('A' for Active; 'I' for Inactive)
REMARK    1  A    between atoms: C3_4  and  N2_5 
REMARK    2  A    between atoms: C5_7  and  C6_8 
REMARK    3  A    between atoms: C9_13  and  C10_14 
REMARK    4  A    between atoms: N4_17  and  C13_18 
REMARK       I    between atoms: N6_29  and  C22_31 
REMARK       I    between atoms: C22_31  and  N7_33 
REMARK    5  A    between atoms: N7_33  and  C23_34 
REMARK    6  A    between atoms: C23_34  and  C24_35 
ROOT
HETATM    1  N1  UNL     1      10.730  20.800   6.704  1.00  0.00    -0.191 NA
HETATM    2  C1  UNL     1      11.638  21.390   6.329  1.00  0.00     0.105 C 
HETATM    3  C2  UNL     1      12.749  22.114   5.803  1.00  0.00     0.116 A 
HETATM    4  C3  UNL     1      12.713  23.458   5.537  1.00  0.00     0.066 A 
HETATM    5  C19 UNL     1      13.680  24.153   5.011  1.00  0.00     0.049 A 
HETATM    6  C20 UNL     1      14.873  23.477   4.696  1.00  0.00     0.092 A 
HETATM    7  N5  UNL     1      14.930  22.154   4.957  1.00  0.00    -0.351 N 
ATOM      8  H5  UNL     1      15.797  21.666   4.731  1.00  0.00     0.166 HD
HETATM    9  C21 UNL     1      13.906  21.411   5.507  1.00  0.00     0.133 A 
HETATM   10  N6  UNL     1      14.022  20.165   5.890  1.00  0.00    -0.281 N 
ATOM     11  H6  UNL     1      13.346  19.608   6.413  1.00  0.00     0.173 HD
HETATM   12  C22 UNL     1      15.437  19.717   5.365  1.00  0.00     0.394 C 
HETATM   13  O1  UNL     1      16.246  19.699   6.228  1.00  0.00    -0.230 OA
HETATM   14  N7  UNL     1      15.242  19.494   4.038  1.00  0.00    -0.396 NA
ENDROOT
BRANCH   4  15
HETATM   15  N2  UNL     1      11.410  24.039   5.816  1.00  0.00    -0.308 N 
HETATM   16  C4  UNL     1      11.124  24.651   6.958  1.00  0.00     0.124 A 
HETATM   17  C5  UNL     1       9.797  25.022   6.886  1.00  0.00     0.030 A 
HETATM   18  N3  UNL     1       9.353  24.625   5.708  1.00  0.00    -0.347 N 
HETATM   19  C9  UNL     1      10.365  23.998   5.034  1.00  0.00     0.092 A 
ATOM     20  H3  UNL     1       8.407  24.764   5.355  1.00  0.00     0.167 HD
BRANCH  17  21
HETATM   21  C6  UNL     1       9.081  25.707   7.999  1.00  0.00     0.037 A 
HETATM   22  C7  UNL     1       9.578  25.417   9.394  1.00  0.00     0.011 A 
HETATM   23  C8  UNL     1       8.301  24.835   8.966  1.00  0.00     0.011 A 
ENDBRANCH  17  21
BRANCH  19  24
HETATM   24  C10 UNL     1      10.093  23.365   3.722  1.00  0.00     0.057 C 
HETATM   25  C11 UNL     1      10.164  24.222   2.523  1.00  0.00     0.042 C 
HETATM   26  C12 UNL     1       8.806  24.674   2.025  1.00  0.00     0.273 C 
HETATM   27  N4  UNL     1       7.929  23.547   1.721  1.00  0.00     0.093 N 
HETATM   28  C17 UNL     1       8.338  22.344   2.342  1.00  0.00     0.273 C 
HETATM   29  C18 UNL     1       8.754  22.619   3.747  1.00  0.00     0.042 C 
BRANCH  27  30
HETATM   30  C13 UNL     1       6.616  23.983   2.169  1.00  0.00     0.223 C 
HETATM   31  C14 UNL     1       5.428  23.664   1.366  1.00  0.00     0.036 C 
HETATM   32  C15 UNL     1       5.375  25.076   0.851  1.00  0.00     0.004 C 
HETATM   33  C16 UNL     1       6.388  25.476   1.870  1.00  0.00     0.036 C 
ENDBRANCH  27  30
ENDBRANCH  19  24
ENDBRANCH   4  15
BRANCH  14  34
HETATM   34  C23 UNL     1      15.072  19.266   2.706  1.00  0.00     0.231 C 
BRANCH  34  35
HETATM   35  C24 UNL     1      15.722  17.842   2.525  1.00  0.00     0.053 A 
HETATM   36  C25 UNL     1      16.652  17.007   1.866  1.00  0.00     0.048 A 
HETATM   37  C26 UNL     1      17.276  18.212   2.272  1.00  0.00     0.177 A 
HETATM   38  F1  UNL     1      18.032  18.376   3.375  1.00  0.00    -0.249 F 
ENDBRANCH  34  35
ENDBRANCH  14  34
TORSDOF 6
ENDMDL
MODEL 4
REMARK VINA RESULT: -9.728549860      1.519      4.204
REMARK  6 active torsions:
REMARK  status: ('A' for Active; 'I' for Inactive)
REMARK    1  A    between atoms: C3_4  and  N2_5 
REMARK    2  A    between atoms: C5_7  and  C6_8 
REMARK    3  A    between atoms: C9_13  and  C10_14 
REMARK    4  A    between atoms: N4_17  and  C13_18 
REMARK       I    between atoms: N6_29  and  C22_31 
REMARK       I    between atoms: C22_31  and  N7_33 
REMARK    5  A    between atoms: N7_33  and  C23_34 
REMARK    6  A    between atoms: C23_34  and  C24_35 
ROOT
HETATM    1  N1  UNL     1      11.441  19.998   6.027  1.00  0.00    -0.191 NA
HETATM    2  C1  UNL     1      11.761  21.046   5.688  1.00  0.00     0.105 C 
HETATM    3  C2  UNL     1      12.180  22.360   5.325  1.00  0.00     0.116 A 
HETATM    4  C3  UNL     1      13.434  22.646   4.855  1.00  0.00     0.066 A 
HETATM    5  C19 UNL     1      13.881  23.834   4.559  1.00  0.00     0.049 A 
HETATM    6  C20 UNL     1      13.002  24.920   4.722  1.00  0.00     0.092 A 
HETATM    7  N5  UNL     1      11.759  24.657   5.178  1.00  0.00    -0.351 N 
ATOM      8  H5  UNL     1      11.123  25.446   5.293  1.00  0.00     0.166 HD
HETATM    9  C21 UNL     1      11.284  23.403   5.500  1.00  0.00     0.133 A 
HETATM   10  N6  UNL     1      10.037  23.141   5.801  1.00  0.00    -0.281 N 
ATOM     11  H6  UNL     1       9.604  22.226   5.923  1.00  0.00     0.173 HD
HETATM   12  C22 UNL     1       9.354  24.554   5.931  1.00  0.00     0.394 C 
HETATM   13  O1  UNL     1       8.709  24.825   4.976  1.00  0.00    -0.230 OA
HETATM   14  N7  UNL     1       9.756  25.005   7.148  1.00  0.00    -0.396 NA
ENDROOT
BRANCH   4  15
HETATM   15  N2  UNL     1      14.287  21.470   4.808  1.00  0.00    -0.308 N 
HETATM   16  C4  UNL     1      14.422  20.721   3.721  1.00  0.00     0.124 A 
HETATM   17  C5  UNL     1      15.255  19.676   4.062  1.00  0.00     0.030 A 
HETATM   18  N3  UNL     1      15.587  19.850   5.328  1.00  0.00    -0.347 N 
HETATM   19  C9  UNL     1      14.971  20.975   5.803  1.00  0.00     0.092 A 
ATOM     20  H3  UNL     1      16.204  19.242   5.866  1.00  0.00     0.167 HD
BRANCH  17  21
HETATM   21  C6  UNL     1      15.623  18.585   3.116  1.00  0.00     0.037 A 
HETATM   22  C7  UNL     1      16.466  17.466   3.678  1.00  0.00     0.011 A 
HETATM   23  C8  UNL     1      17.093  18.431   2.768  1.00  0.00     0.011 A 
ENDBRANCH  17  21
BRANCH  19  24
HETATM   24  C10 UNL     1      15.100  21.333   7.236  1.00  0.00     0.057 C 
HETATM   25  C11 UNL     1      16.348  21.993   7.665  1.00  0.00     0.042 C 
HETATM   26  C12 UNL     1      17.330  21.048   8.328  1.00  0.00     0.273 C 
HETATM   27  N4  UNL     1      16.751  20.379   9.490  1.00  0.00     0.093 N 
HETATM   28  C17 UNL     1      15.337  20.405   9.496  1.00  0.00     0.273 C 
HETATM   29  C18 UNL     1      14.823  20.116   8.126  1.00  0.00     0.042 C 
BRANCH  27  30
HETATM   30  C13 UNL     1      17.282  19.028   9.428  1.00  0.00     0.223 C 
HETATM   31  C14 UNL     1      16.949  18.063  10.484  1.00  0.00     0.036 C 
HETATM   32  C15 UNL     1      18.312  18.234  11.095  1.00  0.00     0.004 C 
HETATM   33  C16 UNL     1      18.753  18.980   9.880  1.00  0.00     0.036 C 
ENDBRANCH  27  30
ENDBRANCH  19  24
ENDBRANCH   4  15
BRANCH  14  34
HETATM   34  C23 UNL     1      10.146  25.480   8.363  1.00  0.00     0.231 C 
BRANCH  34  35
HETATM   35  C24 UNL     1       8.823  26.142   8.905  1.00  0.00     0.053 A 
HETATM   36  C25 UNL     1       8.172  27.251   9.492  1.00  0.00     0.048 A 
HETATM   37  C26 UNL     1       8.990  27.675   8.415  1.00  0.00     0.177 A 
HETATM   38  F1  UNL     1       8.569  27.945   7.164  1.00  0.00    -0.249 F 
ENDBRANCH  34  35
ENDBRANCH  14  34
TORSDOF 6
ENDMDL
MODEL 5
REMARK VINA RESULT: -9.718967171      1.532      4.085
REMARK  6 active torsions:
REMARK  status: ('A' for Active; 'I' for Inactive)
REMARK    1  A    between atoms: C3_4  and  N2_5 
REMARK    2  A    between atoms: C5_7  and  C6_8 
REMARK    3  A    between atoms: C9_13  and  C10_14 
REMARK    4  A    between atoms: N4_17  and  C13_18 
REMARK       I    between atoms: N6_29  and  C22_31 
REMARK       I    between atoms: C22_31  and  N7_33 
REMARK    5  A    between atoms: N7_33  and  C23_34 
REMARK    6  A    between atoms: C23_34  and  C24_35 
ROOT
HETATM    1  N1  UNL     1      10.708  20.491   3.784  1.00  0.00    -0.191 NA
HETATM    2  C1  UNL     1      11.147  21.520   4.039  1.00  0.00     0.105 C 
HETATM    3  C2  UNL     1      11.689  22.784   4.417  1.00  0.00     0.116 A 
HETATM    4  C3  UNL     1      13.030  23.005   4.591  1.00  0.00     0.066 A 
HETATM    5  C19 UNL     1      13.570  24.123   4.984  1.00  0.00     0.049 A 
HETATM    6  C20 UNL     1      12.710  25.207   5.241  1.00  0.00     0.092 A 
HETATM    7  N5  UNL     1      11.386  25.011   5.068  1.00  0.00    -0.351 N 
ATOM      8  H5  UNL     1      10.766  25.798   5.253  1.00  0.00     0.166 HD
HETATM    9  C21 UNL     1      10.809  23.826   4.660  1.00  0.00     0.133 A 
HETATM   10  N6  UNL     1       9.543  23.688   4.355  1.00  0.00    -0.281 N 
ATOM     11  H6  UNL     1       9.088  22.880   3.932  1.00  0.00     0.173 HD
HETATM   12  C22 UNL     1       8.880  25.049   4.788  1.00  0.00     0.394 C 
HETATM   13  O1  UNL     1       8.673  25.757   3.862  1.00  0.00    -0.230 OA
HETATM   14  N7  UNL     1       8.766  24.948   6.139  1.00  0.00    -0.396 NA
ENDROOT
BRANCH   4  15
HETATM   15  N2  UNL     1      13.818  21.800   4.386  1.00  0.00    -0.308 N 
HETATM   16  C4  UNL     1      13.989  21.247   3.192  1.00  0.00     0.124 A 
HETATM   17  C5  UNL     1      14.737  20.105   3.390  1.00  0.00     0.030 A 
HETATM   18  N3  UNL     1      14.987  20.031   4.684  1.00  0.00    -0.347 N 
HETATM   19  C9  UNL     1      14.402  21.094   5.315  1.00  0.00     0.092 A 
ATOM     20  H3  UNL     1      15.530  19.299   5.140  1.00  0.00     0.167 HD
BRANCH  17  21
HETATM   21  C6  UNL     1      15.112  19.175   2.286  1.00  0.00     0.037 A 
HETATM   22  C7  UNL     1      15.391  17.745   2.681  1.00  0.00     0.011 A 
HETATM   23  C8  UNL     1      16.519  18.605   2.304  1.00  0.00     0.011 A 
ENDBRANCH  17  21
BRANCH  19  24
HETATM   24  C10 UNL     1      14.447  21.186   6.794  1.00  0.00     0.057 C 
HETATM   25  C11 UNL     1      15.164  22.332   7.385  1.00  0.00     0.042 C 
HETATM   26  C12 UNL     1      16.560  21.986   7.863  1.00  0.00     0.273 C 
HETATM   27  N4  UNL     1      16.554  20.904   8.843  1.00  0.00     0.093 N 
HETATM   28  C17 UNL     1      15.364  20.139   8.816  1.00  0.00     0.273 C 
HETATM   29  C18 UNL     1      14.966  19.878   7.403  1.00  0.00     0.042 C 
BRANCH  27  30
HETATM   30  C13 UNL     1      17.728  20.114   8.515  1.00  0.00     0.223 C 
HETATM   31  C14 UNL     1      18.490  19.458   9.586  1.00  0.00     0.036 C 
HETATM   32  C15 UNL     1      19.559  20.510   9.496  1.00  0.00     0.004 C 
HETATM   33  C16 UNL     1      18.947  21.011   8.230  1.00  0.00     0.036 C 
ENDBRANCH  27  30
ENDBRANCH  19  24
ENDBRANCH   4  15
BRANCH  14  34
HETATM   34  C23 UNL     1       8.642  24.871   7.493  1.00  0.00     0.231 C 
BRANCH  34  35
HETATM   35  C24 UNL     1       9.810  25.805   7.990  1.00  0.00     0.053 A 
HETATM   36  C25 UNL     1      10.720  26.175   9.006  1.00  0.00     0.048 A 
HETATM   37  C26 UNL     1      10.738  24.771   8.818  1.00  0.00     0.177 A 
HETATM   38  F1  UNL     1      11.645  24.083   8.096  1.00  0.00    -0.249 F 
ENDBRANCH  34  35
ENDBRANCH  14  34
TORSDOF 6
ENDMDL
