MODEL 1
REMARK VINA RESULT: -8.715643698      0.000      0.000
REMARK  7 active torsions:
REMARK  status: ('A' for Active; 'I' for Inactive)
REMARK       I    between atoms: C2_2  and  N1_4 
REMARK    1  A    between atoms: N1_4  and  C3_6 
REMARK    2  A    between atoms: C3_6  and  C4_7 
REMARK    3  A    between atoms: C4_7  and  N2_8 
REMARK    4  A    between atoms: N3_11  and  C7_12 
REMARK    5  A    between atoms: C15_24  and  N5_25 
REMARK    6  A    between atoms: N5_25  and  C16_27 
REMARK    7  A    between atoms: C16_27  and  C17_28 
ROOT
HETATM    1  C7  UNL     1      11.731  22.196   5.011  1.00  0.00     0.082 A 
HETATM    2  C8  UNL     1      12.931  21.582   4.798  1.00  0.00    -0.012 A 
HETATM    3  C9  UNL     1      13.425  21.257   3.443  1.00  0.00     0.052 C 
HETATM    4  C10 UNL     1      13.760  21.228   5.870  1.00  0.00     0.041 A 
HETATM    5  S1  UNL     1      15.286  20.473   6.008  1.00  0.00    -0.091 SA
HETATM    6  C11 UNL     1      15.453  20.486   7.697  1.00  0.00    -0.001 A 
HETATM    7  C12 UNL     1      16.608  19.953   8.468  1.00  0.00     0.057 C 
HETATM    8  C13 UNL     1      14.298  21.088   8.121  1.00  0.00     0.051 A 
HETATM    9 BR1  UNL     1      14.057  21.320  10.048  1.00  0.00    -0.048 Br
HETATM   10  C14 UNL     1      13.421  21.473   7.170  1.00  0.00     0.070 A 
HETATM   11  N4  UNL     1      12.210  22.091   7.363  1.00  0.00    -0.338 N 
ATOM     12  H4  UNL     1      11.917  22.293   8.318  1.00  0.00     0.167 HD
HETATM   13  C15 UNL     1      11.399  22.441   6.368  1.00  0.00     0.133 A 
ENDROOT
BRANCH   1  14
HETATM   14  N3  UNL     1      10.886  22.552   3.946  1.00  0.00    -0.374 N 
HETATM   15  C6  UNL     1      11.085  23.867   3.365  1.00  0.00     0.153 C 
HETATM   16  C5  UNL     1       9.985  24.287   2.449  1.00  0.00     0.292 C 
HETATM   17  N2  UNL     1       8.749  23.637   2.897  1.00  0.00     0.093 N 
HETATM   18  C22 UNL     1       8.900  22.249   2.522  1.00  0.00     0.292 C 
HETATM   19  C21 UNL     1       9.891  21.627   3.494  1.00  0.00     0.153 C 
BRANCH  17  20
HETATM   20  C4  UNL     1       7.594  24.273   2.362  1.00  0.00     0.292 C 
BRANCH  20  21
HETATM   21  C3  UNL     1       7.587  25.737   2.670  1.00  0.00     0.152 C 
BRANCH  21  22
HETATM   22  N1  UNL     1       6.644  26.018   3.757  1.00  0.00    -0.360 N 
HETATM   23  C2  UNL     1       7.072  26.820   4.836  1.00  0.00     0.213 C 
HETATM   24  C1  UNL     1       6.131  27.125   5.961  1.00  0.00     0.117 C 
HETATM   25  O1  UNL     1       8.233  27.279   4.858  1.00  0.00    -0.274 OA
ATOM     26  H1  UNL     1       5.697  25.640   3.733  1.00  0.00     0.162 HD
ENDBRANCH  21  22
ENDBRANCH  20  21
ENDBRANCH  17  20
ENDBRANCH   1  14
BRANCH  13  27
HETATM   27  N5  UNL     1      10.301  23.008   6.519  1.00  0.00    -0.353 N 
ATOM     28  H5  UNL     1       9.618  22.251   6.519  1.00  0.00     0.166 HD
BRANCH  27  29
HETATM   29  C16 UNL     1       9.568  24.129   6.684  1.00  0.00     0.072 C 
BRANCH  29  30
HETATM   30  C17 UNL     1       9.602  24.769   8.067  1.00  0.00    -0.012 A 
HETATM   31  C18 UNL     1      10.920  25.290   8.568  1.00  0.00     0.021 C 
HETATM   32  C19 UNL     1       8.424  24.556   8.926  1.00  0.00     0.015 A 
HETATM   33  C20 UNL     1       8.495  25.836   8.217  1.00  0.00     0.015 A 
ENDBRANCH  29  30
ENDBRANCH  27  29
ENDBRANCH  13  27
TORSDOF 7
ENDMDL
MODEL 2
REMARK VINA RESULT: -8.637044499      3.984      8.635
REMARK  7 active torsions:
REMARK  status: ('A' for Active; 'I' for Inactive)
REMARK       I    between atoms: C2_2  and  N1_4 
REMARK    1  A    between atoms: N1_4  and  C3_6 
REMARK    2  A    between atoms: C3_6  and  C4_7 
REMARK    3  A    between atoms: C4_7  and  N2_8 
REMARK    4  A    between atoms: N3_11  and  C7_12 
REMARK    5  A    between atoms: C15_24  and  N5_25 
REMARK    6  A    between atoms: N5_25  and  C16_27 
REMARK    7  A    between atoms: C16_27  and  C17_28 
ROOT
HETATM    1  C7  UNL     1      12.000  23.107   6.374  1.00  0.00     0.082 A 
HETATM    2  C8  UNL     1      11.356  24.261   6.715  1.00  0.00    -0.012 A 
HETATM    3  C9  UNL     1      11.803  25.118   7.834  1.00  0.00     0.052 C 
HETATM    4  C10 UNL     1      10.225  24.690   6.010  1.00  0.00     0.041 A 
HETATM    5  S1  UNL     1       9.176  26.033   6.125  1.00  0.00    -0.091 SA
HETATM    6  C11 UNL     1       8.120  25.676   4.845  1.00  0.00    -0.001 A 
HETATM    7  C12 UNL     1       6.952  26.493   4.419  1.00  0.00     0.057 C 
HETATM    8  C13 UNL     1       8.616  24.500   4.350  1.00  0.00     0.051 A 
HETATM    9 BR1  UNL     1       7.687  23.700   2.826  1.00  0.00    -0.048 Br
HETATM   10  C14 UNL     1       9.710  23.990   4.956  1.00  0.00     0.070 A 
HETATM   11  N4  UNL     1      10.373  22.833   4.629  1.00  0.00    -0.338 N 
ATOM     12  H4  UNL     1      10.022  22.279   3.848  1.00  0.00     0.167 HD
HETATM   13  C15 UNL     1      11.449  22.397   5.277  1.00  0.00     0.133 A 
ENDROOT
BRANCH   1  14
HETATM   14  N3  UNL     1      13.132  22.660   7.077  1.00  0.00    -0.374 N 
HETATM   15  C6  UNL     1      14.426  23.046   6.545  1.00  0.00     0.153 C 
HETATM   16  C5  UNL     1      15.568  22.311   7.161  1.00  0.00     0.292 C 
HETATM   17  N2  UNL     1      15.083  20.993   7.583  1.00  0.00     0.093 N 
HETATM   18  C22 UNL     1      14.267  21.250   8.747  1.00  0.00     0.292 C 
HETATM   19  C21 UNL     1      12.965  21.865   8.255  1.00  0.00     0.153 C 
BRANCH  17  20
HETATM   20  C4  UNL     1      16.154  20.081   7.801  1.00  0.00     0.292 C 
BRANCH  20  21
HETATM   21  C3  UNL     1      17.036  19.980   6.597  1.00  0.00     0.152 C 
BRANCH  21  22
HETATM   22  N1  UNL     1      17.465  18.591   6.403  1.00  0.00    -0.360 N 
HETATM   23  C2  UNL     1      17.859  18.177   5.112  1.00  0.00     0.213 C 
HETATM   24  C1  UNL     1      18.303  16.765   4.883  1.00  0.00     0.117 C 
HETATM   25  O1  UNL     1      17.840  18.984   4.159  1.00  0.00    -0.274 OA
ATOM     26  H1  UNL     1      17.478  17.938   7.185  1.00  0.00     0.162 HD
ENDBRANCH  21  22
ENDBRANCH  20  21
ENDBRANCH  17  20
ENDBRANCH   1  14
BRANCH  13  27
HETATM   27  N5  UNL     1      12.069  21.356   4.994  1.00  0.00    -0.353 N 
ATOM     28  H5  UNL     1      12.620  21.148   5.828  1.00  0.00     0.166 HD
BRANCH  27  29
HETATM   29  C16 UNL     1      12.374  20.364   4.130  1.00  0.00     0.072 C 
BRANCH  29  30
HETATM   30  C17 UNL     1      13.825  19.898   4.111  1.00  0.00    -0.012 A 
HETATM   31  C18 UNL     1      14.146  18.574   4.744  1.00  0.00     0.021 C 
HETATM   32  C19 UNL     1      14.840  20.905   3.754  1.00  0.00     0.015 A 
HETATM   33  C20 UNL     1      14.423  19.990   2.690  1.00  0.00     0.015 A 
ENDBRANCH  29  30
ENDBRANCH  27  29
ENDBRANCH  13  27
TORSDOF 7
ENDMDL
MODEL 3
REMARK VINA RESULT: -8.539091269      3.668      7.336
REMARK  7 active torsions:
REMARK  status: ('A' for Active; 'I' for Inactive)
REMARK       I    between atoms: C2_2  and  N1_4 
REMARK    1  A    between atoms: N1_4  and  C3_6 
REMARK    2  A    between atoms: C3_6  and  C4_7 
REMARK    3  A    between atoms: C4_7  and  N2_8 
REMARK    4  A    between atoms: N3_11  and  C7_12 
REMARK    5  A    between atoms: C15_24  and  N5_25 
REMARK    6  A    between atoms: N5_25  and  C16_27 
REMARK    7  A    between atoms: C16_27  and  C17_28 
ROOT
HETATM    1  C7  UNL     1      10.796  23.507   5.468  1.00  0.00     0.082 A 
HETATM    2  C8  UNL     1      10.317  22.755   4.436  1.00  0.00    -0.012 A 
HETATM    3  C9  UNL     1      10.988  21.518   3.978  1.00  0.00     0.052 C 
HETATM    4  C10 UNL     1       9.152  23.125   3.753  1.00  0.00     0.041 A 
HETATM    5  S1  UNL     1       8.262  22.467   2.453  1.00  0.00    -0.091 SA
HETATM    6  C11 UNL     1       7.018  23.618   2.353  1.00  0.00    -0.001 A 
HETATM    7  C12 UNL     1       5.889  23.605   1.385  1.00  0.00     0.057 C 
HETATM    8  C13 UNL     1       7.330  24.502   3.350  1.00  0.00     0.051 A 
HETATM    9 BR1  UNL     1       6.136  26.030   3.606  1.00  0.00    -0.048 Br
HETATM   10  C14 UNL     1       8.439  24.244   4.077  1.00  0.00     0.070 A 
HETATM   11  N4  UNL     1       8.937  24.987   5.119  1.00  0.00    -0.338 N 
ATOM     12  H4  UNL     1       8.435  25.831   5.394  1.00  0.00     0.167 HD
HETATM   13  C15 UNL     1      10.040  24.664   5.788  1.00  0.00     0.133 A 
ENDROOT
BRANCH   1  14
HETATM   14  N3  UNL     1      11.968  23.152   6.158  1.00  0.00    -0.374 N 
HETATM   15  C6  UNL     1      13.228  23.449   5.501  1.00  0.00     0.153 C 
HETATM   16  C5  UNL     1      14.404  22.796   6.144  1.00  0.00     0.292 C 
HETATM   17  N2  UNL     1      13.945  21.553   6.773  1.00  0.00     0.093 N 
HETATM   18  C22 UNL     1      13.200  21.977   7.937  1.00  0.00     0.292 C 
HETATM   19  C21 UNL     1      11.872  22.529   7.443  1.00  0.00     0.153 C 
BRANCH  17  20
HETATM   20  C4  UNL     1      15.027  20.671   7.052  1.00  0.00     0.292 C 
BRANCH  20  21
HETATM   21  C3  UNL     1      15.815  20.370   5.817  1.00  0.00     0.152 C 
BRANCH  21  22
HETATM   22  N1  UNL     1      15.703  18.947   5.482  1.00  0.00    -0.360 N 
HETATM   23  C2  UNL     1      14.741  18.547   4.530  1.00  0.00     0.213 C 
HETATM   24  C1  UNL     1      14.604  17.100   4.168  1.00  0.00     0.117 C 
HETATM   25  O1  UNL     1      14.002  19.395   3.987  1.00  0.00    -0.274 OA
ATOM     26  H1  UNL     1      16.309  18.260   5.929  1.00  0.00     0.162 HD
ENDBRANCH  21  22
ENDBRANCH  20  21
ENDBRANCH  17  20
ENDBRANCH   1  14
BRANCH  13  27
HETATM   27  N5  UNL     1      10.506  25.319   6.738  1.00  0.00    -0.353 N 
ATOM     28  H5  UNL     1      11.512  25.337   6.571  1.00  0.00     0.166 HD
BRANCH  27  29
HETATM   29  C16 UNL     1      10.338  26.017   7.881  1.00  0.00     0.072 C 
BRANCH  29  30
HETATM   30  C17 UNL     1       8.901  26.231   8.344  1.00  0.00    -0.012 A 
HETATM   31  C18 UNL     1       8.184  25.070   8.972  1.00  0.00     0.021 C 
HETATM   32  C19 UNL     1       8.227  27.452   7.869  1.00  0.00     0.015 A 
HETATM   33  C20 UNL     1       8.781  27.495   9.225  1.00  0.00     0.015 A 
ENDBRANCH  29  30
ENDBRANCH  27  29
ENDBRANCH  13  27
TORSDOF 7
ENDMDL
MODEL 4
REMARK VINA RESULT: -8.506456455      4.104      7.877
REMARK  7 active torsions:
REMARK  status: ('A' for Active; 'I' for Inactive)
REMARK       I    between atoms: C2_2  and  N1_4 
REMARK    1  A    between atoms: N1_4  and  C3_6 
REMARK    2  A    between atoms: C3_6  and  C4_7 
REMARK    3  A    between atoms: C4_7  and  N2_8 
REMARK    4  A    between atoms: N3_11  and  C7_12 
REMARK    5  A    between atoms: C15_24  and  N5_25 
REMARK    6  A    between atoms: N5_25  and  C16_27 
REMARK    7  A    between atoms: C16_27  and  C17_28 
ROOT
HETATM    1  C7  UNL     1      11.579  23.607   5.643  1.00  0.00     0.082 A 
HETATM    2  C8  UNL     1      11.497  23.924   6.968  1.00  0.00    -0.012 A 
HETATM    3  C9  UNL     1      12.370  23.304   7.987  1.00  0.00     0.052 C 
HETATM    4  C10 UNL     1      10.568  24.867   7.427  1.00  0.00     0.041 A 
HETATM    5  S1  UNL     1      10.173  25.515   8.957  1.00  0.00    -0.091 SA
HETATM    6  C11 UNL     1       8.932  26.579   8.499  1.00  0.00    -0.001 A 
HETATM    7  C12 UNL     1       8.157  27.464   9.409  1.00  0.00     0.057 C 
HETATM    8  C13 UNL     1       8.853  26.402   7.144  1.00  0.00     0.051 A 
HETATM    9 BR1  UNL     1       7.522  27.455   6.173  1.00  0.00    -0.048 Br
HETATM   10  C14 UNL     1       9.705  25.512   6.589  1.00  0.00     0.070 A 
HETATM   11  N4  UNL     1       9.803  25.178   5.260  1.00  0.00    -0.338 N 
ATOM     12  H4  UNL     1       9.177  25.637   4.599  1.00  0.00     0.167 HD
HETATM   13  C15 UNL     1      10.673  24.289   4.791  1.00  0.00     0.133 A 
ENDROOT
BRANCH   1  14
HETATM   14  N3  UNL     1      12.500  22.658   5.168  1.00  0.00    -0.374 N 
HETATM   15  C6  UNL     1      12.023  21.295   5.032  1.00  0.00     0.153 C 
HETATM   16  C5  UNL     1      13.111  20.301   4.804  1.00  0.00     0.292 C 
HETATM   17  N2  UNL     1      14.329  20.809   5.445  1.00  0.00     0.093 N 
HETATM   18  C22 UNL     1      14.771  21.894   4.599  1.00  0.00     0.292 C 
HETATM   19  C21 UNL     1      13.834  23.066   4.848  1.00  0.00     0.153 C 
BRANCH  17  20
HETATM   20  C4  UNL     1      15.293  19.779   5.638  1.00  0.00     0.292 C 
BRANCH  20  21
HETATM   21  C3  UNL     1      16.285  19.745   4.520  1.00  0.00     0.152 C 
BRANCH  21  22
HETATM   22  N1  UNL     1      15.965  18.651   3.596  1.00  0.00    -0.360 N 
HETATM   23  C2  UNL     1      17.019  18.020   2.901  1.00  0.00     0.213 C 
HETATM   24  C1  UNL     1      16.723  16.900   1.952  1.00  0.00     0.117 C 
HETATM   25  O1  UNL     1      18.198  18.392   3.073  1.00  0.00    -0.274 OA
ATOM     26  H1  UNL     1      15.000  18.352   3.460  1.00  0.00     0.162 HD
ENDBRANCH  21  22
ENDBRANCH  20  21
ENDBRANCH  17  20
ENDBRANCH   1  14
BRANCH  13  27
HETATM   27  N5  UNL     1      10.784  23.976   3.591  1.00  0.00    -0.353 N 
ATOM     28  H5  UNL     1      11.734  24.250   3.340  1.00  0.00     0.166 HD
BRANCH  27  29
HETATM   29  C16 UNL     1      10.269  23.454   2.458  1.00  0.00     0.072 C 
BRANCH  29  30
HETATM   30  C17 UNL     1       9.041  22.565   2.614  1.00  0.00    -0.012 A 
HETATM   31  C18 UNL     1       7.728  23.227   2.922  1.00  0.00     0.021 C 
HETATM   32  C19 UNL     1       9.283  21.119   2.756  1.00  0.00     0.015 A 
HETATM   33  C20 UNL     1       8.901  21.591   1.423  1.00  0.00     0.015 A 
ENDBRANCH  29  30
ENDBRANCH  27  29
ENDBRANCH  13  27
TORSDOF 7
ENDMDL
MODEL 5
REMARK VINA RESULT: -8.425973564      3.374      7.256
REMARK  7 active torsions:
REMARK  status: ('A' for Active; 'I' for Inactive)
REMARK       I    between atoms: C2_2  and  N1_4 
REMARK    1  A    between atoms: N1_4  and  C3_6 
REMARK    2  A    between atoms: C3_6  and  C4_7 
REMARK    3  A    between atoms: C4_7  and  N2_8 
REMARK    4  A    between atoms: N3_11  and  C7_12 
REMARK    5  A    between atoms: C15_24  and  N5_25 
REMARK    6  A    between atoms: N5_25  and  C16_27 
REMARK    7  A    between atoms: C16_27  and  C17_28 
ROOT
HETATM    1  C7  UNL     1      11.546  23.766   5.531  1.00  0.00     0.082 A 
HETATM    2  C8  UNL     1      11.506  24.080   6.858  1.00  0.00    -0.012 A 
HETATM    3  C9  UNL     1      12.448  23.500   7.839  1.00  0.00     0.052 C 
HETATM    4  C10 UNL     1      10.555  24.980   7.357  1.00  0.00     0.041 A 
HETATM    5  S1  UNL     1      10.195  25.611   8.902  1.00  0.00    -0.091 SA
HETATM    6  C11 UNL     1       8.890  26.617   8.498  1.00  0.00    -0.001 A 
HETATM    7  C12 UNL     1       8.114  27.467   9.440  1.00  0.00     0.057 C 
HETATM    8  C13 UNL     1       8.762  26.435   7.147  1.00  0.00     0.051 A 
HETATM    9 BR1  UNL     1       7.345  27.427   6.234  1.00  0.00    -0.048 Br
HETATM   10  C14 UNL     1       9.629  25.585   6.556  1.00  0.00     0.070 A 
HETATM   11  N4  UNL     1       9.687  25.255   5.224  1.00  0.00    -0.338 N 
ATOM     12  H4  UNL     1       9.013  25.684   4.590  1.00  0.00     0.167 HD
HETATM   13  C15 UNL     1      10.576  24.405   4.718  1.00  0.00     0.133 A 
ENDROOT
BRANCH   1  14
HETATM   14  N3  UNL     1      12.489  22.859   5.017  1.00  0.00    -0.374 N 
HETATM   15  C6  UNL     1      12.041  21.494   4.816  1.00  0.00     0.153 C 
HETATM   16  C5  UNL     1      13.151  20.534   4.548  1.00  0.00     0.292 C 
HETATM   17  N2  UNL     1      14.356  21.038   5.216  1.00  0.00     0.093 N 
HETATM   18  C22 UNL     1      14.777  22.170   4.422  1.00  0.00     0.292 C 
HETATM   19  C21 UNL     1      13.815  23.309   4.721  1.00  0.00     0.153 C 
BRANCH  17  20
HETATM   20  C4  UNL     1      15.340  20.020   5.365  1.00  0.00     0.292 C 
BRANCH  20  21
HETATM   21  C3  UNL     1      16.146  20.221   6.609  1.00  0.00     0.152 C 
BRANCH  21  22
HETATM   22  N1  UNL     1      15.297  20.047   7.792  1.00  0.00    -0.360 N 
HETATM   23  C2  UNL     1      15.104  21.144   8.658  1.00  0.00     0.213 C 
HETATM   24  C1  UNL     1      14.242  20.996   9.873  1.00  0.00     0.117 C 
HETATM   25  O1  UNL     1      15.649  22.241   8.414  1.00  0.00    -0.274 OA
ATOM     26  H1  UNL     1      14.855  19.149   7.986  1.00  0.00     0.162 HD
ENDBRANCH  21  22
ENDBRANCH  20  21
ENDBRANCH  17  20
ENDBRANCH   1  14
BRANCH  13  27
HETATM   27  N5  UNL     1      10.650  24.097   3.514  1.00  0.00    -0.353 N 
ATOM     28  H5  UNL     1      11.587  24.385   3.232  1.00  0.00     0.166 HD
BRANCH  27  29
HETATM   29  C16 UNL     1      10.105  23.570   2.398  1.00  0.00     0.072 C 
BRANCH  29  30
HETATM   30  C17 UNL     1       8.915  22.638   2.595  1.00  0.00    -0.012 A 
HETATM   31  C18 UNL     1       7.578  23.257   2.890  1.00  0.00     0.021 C 
HETATM   32  C19 UNL     1       9.218  21.209   2.786  1.00  0.00     0.015 A 
HETATM   33  C20 UNL     1       8.808  21.617   1.441  1.00  0.00     0.015 A 
ENDBRANCH  29  30
ENDBRANCH  27  29
ENDBRANCH  13  27
TORSDOF 7
ENDMDL
