MODEL 1
REMARK VINA RESULT: -8.039482121      0.000      0.000
REMARK  16 active torsions:
REMARK  status: ('A' for Active; 'I' for Inactive)
REMARK    1  A    between atoms: C2_2  and  C4_4 
REMARK    2  A    between atoms: C4_4  and  C5_5 
REMARK    3  A    between atoms: C5_5  and  N1_6 
REMARK    4  A    between atoms: C5_5  and  C6_10 
REMARK       I    between atoms: C6_10  and  N2_12 
REMARK    5  A    between atoms: N2_12  and  C7_14 
REMARK    6  A    between atoms: C7_14  and  C8_15 
REMARK    7  A    between atoms: C7_14  and  C23_37 
REMARK    8  A    between atoms: C8_15  and  C9_16 
REMARK       I    between atoms: C9_16  and  N3_18 
REMARK    9  A    between atoms: N3_18  and  C10_20 
REMARK   10  A    between atoms: C10_20  and  C11_21 
REMARK   11  A    between atoms: C10_20  and  C18_28 
REMARK   12  A    between atoms: C11_21  and  C12_22 
REMARK   13  A    between atoms: C18_28  and  N4_29 
REMARK   14  A    between atoms: C18_28  and  C19_33 
REMARK   15  A    between atoms: C19_33  and  C20_34 
REMARK       I    between atoms: C23_37  and  N5_39 
REMARK   16  A    between atoms: N5_39  and  C24_41 
ROOT
HETATM    1  C7  UNL     1       7.895  24.640   5.471  1.00  0.00     0.185 C 
ENDROOT
BRANCH   1   2
HETATM    2  N2  UNL     1       6.476  24.502   5.269  1.00  0.00    -0.346 N 
HETATM    3  C6  UNL     1       5.676  23.458   5.798  1.00  0.00     0.249 C 
HETATM    4  O1  UNL     1       6.233  22.583   6.503  1.00  0.00    -0.271 OA
ATOM      5  H2  UNL     1       6.011  25.209   4.700  1.00  0.00     0.163 HD
BRANCH   3   6
HETATM    6  C5  UNL     1       4.220  23.385   5.537  1.00  0.00     0.275 C 
BRANCH   6   7
HETATM    7  C4  UNL     1       3.432  23.154   6.801  1.00  0.00     0.046 C 
BRANCH   7   8
HETATM    8  C2  UNL     1       2.225  22.297   6.607  1.00  0.00    -0.020 C 
HETATM    9  C1  UNL     1       0.923  23.059   6.623  1.00  0.00     0.009 C 
HETATM   10  C3  UNL     1       2.117  21.131   7.540  1.00  0.00     0.009 C 
ENDBRANCH   7   8
ENDBRANCH   6   7
BRANCH   6  11
HETATM   11  N1  UNL     1       3.806  24.581   4.859  1.00  0.00    -0.066 N 
ATOM     12  H13 UNL     1       2.885  24.887   5.174  1.00  0.00     0.275 HD
ATOM     13  H12 UNL     1       4.354  25.386   5.159  1.00  0.00     0.275 HD
ATOM     14  H11 UNL     1       3.833  24.470   3.845  1.00  0.00     0.275 HD
ENDBRANCH   6  11
ENDBRANCH   3   6
ENDBRANCH   1   2
BRANCH   1  15
HETATM   15  C8  UNL     1       8.623  24.035   4.316  1.00  0.00     0.137 C 
BRANCH  15  16
HETATM   16  C9  UNL     1       8.340  24.680   3.042  1.00  0.00     0.220 C 
HETATM   17  O2  UNL     1       7.126  24.595   2.627  1.00  0.00    -0.274 OA
HETATM   18  N3  UNL     1       9.229  25.369   2.237  1.00  0.00    -0.354 N 
ATOM     19  H3  UNL     1      10.203  25.474   2.520  1.00  0.00     0.162 HD
BRANCH  18  20
HETATM   20  C10 UNL     1       8.725  25.987   0.888  1.00  0.00     0.115 C 
BRANCH  20  21
HETATM   21  C11 UNL     1       8.911  27.412   1.151  1.00  0.00     0.032 C 
BRANCH  21  22
HETATM   22  C12 UNL     1       7.991  28.441   1.514  1.00  0.00    -0.013 C 
HETATM   23  C13 UNL     1       8.512  29.567   2.347  1.00  0.00     0.005 C 
HETATM   24  C14 UNL     1       7.339  30.217   3.108  1.00  0.00     0.000 C 
HETATM   25  C15 UNL     1       6.250  30.568   2.131  1.00  0.00     0.000 C 
HETATM   26  C16 UNL     1       6.791  30.465   0.717  1.00  0.00     0.000 C 
HETATM   27  C17 UNL     1       7.120  29.018   0.427  1.00  0.00     0.005 C 
ENDBRANCH  21  22
ENDBRANCH  20  21
BRANCH  20  28
HETATM   28  C18 UNL     1       9.620  25.228  -0.019  1.00  0.00     0.206 C 
BRANCH  28  29
HETATM   29  N4  UNL     1       9.079  23.787   0.174  1.00  0.00    -0.073 N 
ATOM     30  H43 UNL     1       8.232  23.708   0.737  1.00  0.00     0.274 HD
ATOM     31  H42 UNL     1       8.674  23.356  -0.656  1.00  0.00     0.274 HD
ATOM     32  H41 UNL     1       9.904  23.321   0.554  1.00  0.00     0.274 HD
ENDBRANCH  28  29
BRANCH  28  33
HETATM   33  C19 UNL     1       9.592  25.316  -1.480  1.00  0.00     0.038 C 
BRANCH  33  34
HETATM   34  C20 UNL     1      10.544  26.239  -2.165  1.00  0.00    -0.021 C 
HETATM   35  C21 UNL     1      11.723  26.489  -1.195  1.00  0.00     0.009 C 
HETATM   36  C22 UNL     1       9.959  27.602  -2.407  1.00  0.00     0.009 C 
ENDBRANCH  33  34
ENDBRANCH  28  33
ENDBRANCH  20  28
ENDBRANCH  18  20
ENDBRANCH  15  16
ENDBRANCH   1  15
BRANCH   1  37
HETATM   37  C23 UNL     1       8.252  26.100   5.615  1.00  0.00     0.242 C 
HETATM   38  O3  UNL     1       9.320  26.465   5.080  1.00  0.00    -0.271 OA
HETATM   39  N5  UNL     1       7.401  26.982   6.323  1.00  0.00    -0.333 N 
ATOM     40  H5  UNL     1       6.540  26.629   6.739  1.00  0.00     0.165 HD
BRANCH  39  41
HETATM   41  C24 UNL     1       7.745  28.381   6.461  1.00  0.00     0.224 C 
HETATM   42  C25 UNL     1       6.532  29.270   6.436  1.00  0.00     0.059 C 
HETATM   43  C26 UNL     1       6.436  30.110   7.661  1.00  0.00     0.002 C 
HETATM   44  C27 UNL     1       6.726  29.218   8.877  1.00  0.00     0.038 C 
HETATM   45  C29 UNL     1       7.804  30.744   7.940  1.00  0.00    -0.018 C 
HETATM   46  C28 UNL     1       8.190  29.387   8.513  1.00  0.00     0.132 C 
HETATM   47  O4  UNL     1       8.599  28.565   7.506  1.00  0.00    -0.361 OA
HETATM   48  C30 UNL     1       7.725  31.812   9.011  1.00  0.00     0.018 C 
HETATM   49  C31 UNL     1       8.548  31.172   6.712  1.00  0.00     0.018 C 
ENDBRANCH  39  41
ENDBRANCH   1  37
TORSDOF 16
ENDMDL
MODEL 2
REMARK VINA RESULT: -7.887489327      1.863      7.832
REMARK  16 active torsions:
REMARK  status: ('A' for Active; 'I' for Inactive)
REMARK    1  A    between atoms: C2_2  and  C4_4 
REMARK    2  A    between atoms: C4_4  and  C5_5 
REMARK    3  A    between atoms: C5_5  and  N1_6 
REMARK    4  A    between atoms: C5_5  and  C6_10 
REMARK       I    between atoms: C6_10  and  N2_12 
REMARK    5  A    between atoms: N2_12  and  C7_14 
REMARK    6  A    between atoms: C7_14  and  C8_15 
REMARK    7  A    between atoms: C7_14  and  C23_37 
REMARK    8  A    between atoms: C8_15  and  C9_16 
REMARK       I    between atoms: C9_16  and  N3_18 
REMARK    9  A    between atoms: N3_18  and  C10_20 
REMARK   10  A    between atoms: C10_20  and  C11_21 
REMARK   11  A    between atoms: C10_20  and  C18_28 
REMARK   12  A    between atoms: C11_21  and  C12_22 
REMARK   13  A    between atoms: C18_28  and  N4_29 
REMARK   14  A    between atoms: C18_28  and  C19_33 
REMARK   15  A    between atoms: C19_33  and  C20_34 
REMARK       I    between atoms: C23_37  and  N5_39 
REMARK   16  A    between atoms: N5_39  and  C24_41 
ROOT
HETATM    1  C7  UNL     1       6.602  24.264   4.613  1.00  0.00     0.185 C 
ENDROOT
BRANCH   1   2
HETATM    2  N2  UNL     1       6.801  25.268   3.600  1.00  0.00    -0.346 N 
HETATM    3  C6  UNL     1       7.454  25.055   2.360  1.00  0.00     0.249 C 
HETATM    4  O1  UNL     1       7.894  23.907   2.110  1.00  0.00    -0.271 OA
ATOM      5  H2  UNL     1       6.444  26.204   3.789  1.00  0.00     0.163 HD
BRANCH   3   6
HETATM    6  C5  UNL     1       7.623  26.146   1.373  1.00  0.00     0.275 C 
BRANCH   6   7
HETATM    7  C4  UNL     1       8.400  27.305   1.941  1.00  0.00     0.046 C 
BRANCH   7   8
HETATM    8  C2  UNL     1       8.264  28.564   1.150  1.00  0.00    -0.020 C 
HETATM    9  C1  UNL     1       6.866  28.819   0.640  1.00  0.00     0.009 C 
HETATM   10  C3  UNL     1       9.229  28.711   0.015  1.00  0.00     0.009 C 
ENDBRANCH   7   8
ENDBRANCH   6   7
BRANCH   6  11
HETATM   11  N1  UNL     1       8.242  25.614   0.191  1.00  0.00    -0.066 N 
ATOM     12  H13 UNL     1       9.152  26.043   0.024  1.00  0.00     0.275 HD
ATOM     13  H12 UNL     1       8.543  24.650   0.332  1.00  0.00     0.275 HD
ATOM     14  H11 UNL     1       7.636  25.699  -0.626  1.00  0.00     0.275 HD
ENDBRANCH   6  11
ENDBRANCH   3   6
ENDBRANCH   1   2
BRANCH   1  15
HETATM   15  C8  UNL     1       7.290  24.683   5.870  1.00  0.00     0.137 C 
BRANCH  15  16
HETATM   16  C9  UNL     1       7.852  26.025   5.811  1.00  0.00     0.220 C 
HETATM   17  O2  UNL     1       9.000  26.128   5.241  1.00  0.00    -0.274 OA
HETATM   18  N3  UNL     1       7.288  27.190   6.298  1.00  0.00    -0.354 N 
ATOM     19  H3  UNL     1       6.376  27.169   6.753  1.00  0.00     0.162 HD
BRANCH  18  20
HETATM   20  C10 UNL     1       8.064  28.543   6.142  1.00  0.00     0.115 C 
BRANCH  20  21
HETATM   21  C11 UNL     1       7.338  29.151   5.030  1.00  0.00     0.032 C 
BRANCH  21  22
HETATM   22  C12 UNL     1       7.724  30.122   4.058  1.00  0.00    -0.013 C 
HETATM   23  C13 UNL     1       6.955  31.402   4.021  1.00  0.00     0.005 C 
HETATM   24  C14 UNL     1       7.088  32.032   2.619  1.00  0.00     0.000 C 
HETATM   25  C15 UNL     1       8.545  32.126   2.256  1.00  0.00     0.000 C 
HETATM   26  C16 UNL     1       9.389  31.878   3.493  1.00  0.00     0.000 C 
HETATM   27  C17 UNL     1       9.192  30.446   3.936  1.00  0.00     0.005 C 
ENDBRANCH  21  22
ENDBRANCH  20  21
BRANCH  20  28
HETATM   28  C18 UNL     1       7.909  29.017   7.539  1.00  0.00     0.206 C 
BRANCH  28  29
HETATM   29  N4  UNL     1       8.648  30.378   7.471  1.00  0.00    -0.073 N 
ATOM     30  H43 UNL     1       8.359  30.997   6.714  1.00  0.00     0.274 HD
ATOM     31  H42 UNL     1       8.422  31.038   8.215  1.00  0.00     0.274 HD
ATOM     32  H41 UNL     1       9.620  30.068   7.438  1.00  0.00     0.274 HD
ENDBRANCH  28  29
BRANCH  28  33
HETATM   33  C19 UNL     1       6.642  29.446   8.135  1.00  0.00     0.038 C 
BRANCH  33  34
HETATM   34  C20 UNL     1       6.330  29.037   9.537  1.00  0.00    -0.021 C 
HETATM   35  C21 UNL     1       6.212  30.328  10.380  1.00  0.00     0.009 C 
HETATM   36  C22 UNL     1       7.449  28.267  10.180  1.00  0.00     0.009 C 
ENDBRANCH  33  34
ENDBRANCH  28  33
ENDBRANCH  20  28
ENDBRANCH  18  20
ENDBRANCH  15  16
ENDBRANCH   1  15
BRANCH   1  37
HETATM   37  C23 UNL     1       5.124  24.069   4.858  1.00  0.00     0.242 C 
HETATM   38  O3  UNL     1       4.351  24.715   4.120  1.00  0.00    -0.271 OA
HETATM   39  N5  UNL     1       4.674  23.197   5.876  1.00  0.00    -0.333 N 
ATOM     40  H5  UNL     1       5.351  22.694   6.448  1.00  0.00     0.165 HD
BRANCH  39  41
HETATM   41  C24 UNL     1       3.257  23.013   6.112  1.00  0.00     0.224 C 
HETATM   42  C25 UNL     1       2.826  21.588   5.897  1.00  0.00     0.059 C 
HETATM   43  C26 UNL     1       2.175  21.017   7.108  1.00  0.00     0.002 C 
HETATM   44  C27 UNL     1       3.020  21.402   8.331  1.00  0.00     0.038 C 
HETATM   45  C29 UNL     1       1.147  22.023   7.642  1.00  0.00    -0.018 C 
HETATM   46  C28 UNL     1       2.341  22.756   8.236  1.00  0.00     0.132 C 
HETATM   47  O4  UNL     1       2.889  23.576   7.296  1.00  0.00    -0.361 OA
HETATM   48  C30 UNL     1       0.263  21.414   8.710  1.00  0.00     0.018 C 
HETATM   49  C31 UNL     1       0.391  22.757   6.576  1.00  0.00     0.018 C 
ENDBRANCH  39  41
ENDBRANCH   1  37
TORSDOF 16
ENDMDL
MODEL 3
REMARK VINA RESULT: -7.858902736      1.565      2.241
REMARK  16 active torsions:
REMARK  status: ('A' for Active; 'I' for Inactive)
REMARK    1  A    between atoms: C2_2  and  C4_4 
REMARK    2  A    between atoms: C4_4  and  C5_5 
REMARK    3  A    between atoms: C5_5  and  N1_6 
REMARK    4  A    between atoms: C5_5  and  C6_10 
REMARK       I    between atoms: C6_10  and  N2_12 
REMARK    5  A    between atoms: N2_12  and  C7_14 
REMARK    6  A    between atoms: C7_14  and  C8_15 
REMARK    7  A    between atoms: C7_14  and  C23_37 
REMARK    8  A    between atoms: C8_15  and  C9_16 
REMARK       I    between atoms: C9_16  and  N3_18 
REMARK    9  A    between atoms: N3_18  and  C10_20 
REMARK   10  A    between atoms: C10_20  and  C11_21 
REMARK   11  A    between atoms: C10_20  and  C18_28 
REMARK   12  A    between atoms: C11_21  and  C12_22 
REMARK   13  A    between atoms: C18_28  and  N4_29 
REMARK   14  A    between atoms: C18_28  and  C19_33 
REMARK   15  A    between atoms: C19_33  and  C20_34 
REMARK       I    between atoms: C23_37  and  N5_39 
REMARK   16  A    between atoms: N5_39  and  C24_41 
ROOT
HETATM    1  C7  UNL     1       7.576  25.042   5.602  1.00  0.00     0.185 C 
ENDROOT
BRANCH   1   2
HETATM    2  N2  UNL     1       6.199  24.682   5.380  1.00  0.00    -0.346 N 
HETATM    3  C6  UNL     1       5.550  23.557   5.947  1.00  0.00     0.249 C 
HETATM    4  O1  UNL     1       6.213  22.809   6.706  1.00  0.00    -0.271 OA
ATOM      5  H2  UNL     1       5.649  25.284   4.768  1.00  0.00     0.163 HD
BRANCH   3   6
HETATM    6  C5  UNL     1       4.129  23.253   5.663  1.00  0.00     0.275 C 
BRANCH   6   7
HETATM    7  C4  UNL     1       3.348  22.980   6.922  1.00  0.00     0.046 C 
BRANCH   7   8
HETATM    8  C2  UNL     1       2.113  22.171   6.699  1.00  0.00    -0.020 C 
HETATM    9  C1  UNL     1       0.841  22.983   6.694  1.00  0.00     0.009 C 
HETATM   10  C3  UNL     1       1.942  21.005   7.622  1.00  0.00     0.009 C 
ENDBRANCH   7   8
ENDBRANCH   6   7
BRANCH   6  11
HETATM   11  N1  UNL     1       3.563  24.333   4.905  1.00  0.00    -0.066 N 
ATOM     12  H13 UNL     1       2.670  24.066   4.489  1.00  0.00     0.275 HD
ATOM     13  H12 UNL     1       3.238  25.083   5.515  1.00  0.00     0.275 HD
ATOM     14  H11 UNL     1       4.212  24.683   4.199  1.00  0.00     0.275 HD
ENDBRANCH   6  11
ENDBRANCH   3   6
ENDBRANCH   1   2
BRANCH   1  15
HETATM   15  C8  UNL     1       8.421  24.471   4.511  1.00  0.00     0.137 C 
BRANCH  15  16
HETATM   16  C9  UNL     1       8.022  24.897   3.177  1.00  0.00     0.220 C 
HETATM   17  O2  UNL     1       6.780  24.739   2.885  1.00  0.00    -0.274 OA
HETATM   18  N3  UNL     1       8.829  25.448   2.199  1.00  0.00    -0.354 N 
ATOM     19  H3  UNL     1       9.821  25.602   2.378  1.00  0.00     0.162 HD
BRANCH  18  20
HETATM   20  C10 UNL     1       8.205  25.834   0.814  1.00  0.00     0.115 C 
BRANCH  20  21
HETATM   21  C11 UNL     1       8.035  27.275   0.980  1.00  0.00     0.032 C 
BRANCH  21  22
HETATM   22  C12 UNL     1       8.040  28.349   0.040  1.00  0.00    -0.013 C 
HETATM   23  C13 UNL     1       6.845  29.246   0.014  1.00  0.00     0.005 C 
HETATM   24  C14 UNL     1       6.749  29.921  -1.369  1.00  0.00     0.000 C 
HETATM   25  C15 UNL     1       8.067  30.568  -1.696  1.00  0.00     0.000 C 
HETATM   26  C16 UNL     1       8.926  30.619  -0.446  1.00  0.00     0.000 C 
HETATM   27  C17 UNL     1       9.279  29.205  -0.041  1.00  0.00     0.005 C 
ENDBRANCH  21  22
ENDBRANCH  20  21
BRANCH  20  28
HETATM   28  C18 UNL     1       9.269  25.258  -0.044  1.00  0.00     0.206 C 
BRANCH  28  29
HETATM   29  N4  UNL     1       9.108  23.747   0.264  1.00  0.00    -0.073 N 
ATOM     30  H43 UNL     1       9.329  23.467   1.220  1.00  0.00     0.274 HD
ATOM     31  H42 UNL     1       8.147  23.405   0.293  1.00  0.00     0.274 HD
ATOM     32  H41 UNL     1       9.698  23.338  -0.461  1.00  0.00     0.274 HD
ENDBRANCH  28  29
BRANCH  28  33
HETATM   33  C19 UNL     1       9.228  25.224  -1.508  1.00  0.00     0.038 C 
BRANCH  33  34
HETATM   34  C20 UNL     1      10.318  25.897  -2.275  1.00  0.00    -0.021 C 
HETATM   35  C21 UNL     1      11.353  26.414  -1.248  1.00  0.00     0.009 C 
HETATM   36  C22 UNL     1       9.848  27.131  -2.991  1.00  0.00     0.009 C 
ENDBRANCH  33  34
ENDBRANCH  28  33
ENDBRANCH  20  28
ENDBRANCH  18  20
ENDBRANCH  15  16
ENDBRANCH   1  15
BRANCH   1  37
HETATM   37  C23 UNL     1       7.712  26.545   5.644  1.00  0.00     0.242 C 
HETATM   38  O3  UNL     1       6.736  27.177   6.098  1.00  0.00    -0.271 OA
HETATM   39  N5  UNL     1       8.894  27.173   5.185  1.00  0.00    -0.333 N 
ATOM     40  H5  UNL     1       9.661  26.606   4.825  1.00  0.00     0.165 HD
BRANCH  39  41
HETATM   41  C24 UNL     1       9.023  28.614   5.224  1.00  0.00     0.224 C 
HETATM   42  C25 UNL     1       9.436  29.184   3.895  1.00  0.00     0.059 C 
HETATM   43  C26 UNL     1       8.463  30.194   3.399  1.00  0.00     0.002 C 
HETATM   44  C27 UNL     1       7.047  29.636   3.603  1.00  0.00     0.038 C 
HETATM   45  C29 UNL     1       8.124  31.163   4.539  1.00  0.00    -0.018 C 
HETATM   46  C28 UNL     1       7.208  30.061   5.052  1.00  0.00     0.132 C 
HETATM   47  O4  UNL     1       7.926  29.180   5.802  1.00  0.00    -0.361 OA
HETATM   48  C30 UNL     1       7.348  32.367   4.047  1.00  0.00     0.018 C 
HETATM   49  C31 UNL     1       9.287  31.510   5.418  1.00  0.00     0.018 C 
ENDBRANCH  39  41
ENDBRANCH   1  37
TORSDOF 16
ENDMDL
MODEL 4
REMARK VINA RESULT: -7.855676627      1.662      7.763
REMARK  16 active torsions:
REMARK  status: ('A' for Active; 'I' for Inactive)
REMARK    1  A    between atoms: C2_2  and  C4_4 
REMARK    2  A    between atoms: C4_4  and  C5_5 
REMARK    3  A    between atoms: C5_5  and  N1_6 
REMARK    4  A    between atoms: C5_5  and  C6_10 
REMARK       I    between atoms: C6_10  and  N2_12 
REMARK    5  A    between atoms: N2_12  and  C7_14 
REMARK    6  A    between atoms: C7_14  and  C8_15 
REMARK    7  A    between atoms: C7_14  and  C23_37 
REMARK    8  A    between atoms: C8_15  and  C9_16 
REMARK       I    between atoms: C9_16  and  N3_18 
REMARK    9  A    between atoms: N3_18  and  C10_20 
REMARK   10  A    between atoms: C10_20  and  C11_21 
REMARK   11  A    between atoms: C10_20  and  C18_28 
REMARK   12  A    between atoms: C11_21  and  C12_22 
REMARK   13  A    between atoms: C18_28  and  N4_29 
REMARK   14  A    between atoms: C18_28  and  C19_33 
REMARK   15  A    between atoms: C19_33  and  C20_34 
REMARK       I    between atoms: C23_37  and  N5_39 
REMARK   16  A    between atoms: N5_39  and  C24_41 
ROOT
HETATM    1  C7  UNL     1       6.492  24.360   4.767  1.00  0.00     0.185 C 
ENDROOT
BRANCH   1   2
HETATM    2  N2  UNL     1       6.674  25.229   3.634  1.00  0.00    -0.346 N 
HETATM    3  C6  UNL     1       7.738  25.139   2.701  1.00  0.00     0.249 C 
HETATM    4  O1  UNL     1       8.591  24.233   2.860  1.00  0.00    -0.271 OA
ATOM      5  H2  UNL     1       5.985  25.967   3.492  1.00  0.00     0.163 HD
BRANCH   3   6
HETATM    6  C5  UNL     1       7.857  26.079   1.563  1.00  0.00     0.275 C 
BRANCH   6   7
HETATM    7  C4  UNL     1       8.693  25.509   0.446  1.00  0.00     0.046 C 
BRANCH   7   8
HETATM    8  C2  UNL     1       9.621  26.500  -0.175  1.00  0.00    -0.020 C 
HETATM    9  C1  UNL     1       9.212  26.939  -1.559  1.00  0.00     0.009 C 
HETATM   10  C3  UNL     1      11.062  26.094  -0.200  1.00  0.00     0.009 C 
ENDBRANCH   7   8
ENDBRANCH   6   7
BRANCH   6  11
HETATM   11  N1  UNL     1       6.541  26.440   1.116  1.00  0.00    -0.066 N 
ATOM     12  H13 UNL     1       5.916  25.634   1.111  1.00  0.00     0.275 HD
ATOM     13  H12 UNL     1       6.058  27.012   1.809  1.00  0.00     0.275 HD
ATOM     14  H11 UNL     1       6.562  26.899   0.205  1.00  0.00     0.275 HD
ENDBRANCH   6  11
ENDBRANCH   3   6
ENDBRANCH   1   2
BRANCH   1  15
HETATM   15  C8  UNL     1       7.074  25.000   5.984  1.00  0.00     0.137 C 
BRANCH  15  16
HETATM   16  C9  UNL     1       7.728  26.274   5.720  1.00  0.00     0.220 C 
HETATM   17  O2  UNL     1       8.975  26.212   5.413  1.00  0.00    -0.274 OA
HETATM   18  N3  UNL     1       7.157  27.532   5.762  1.00  0.00    -0.354 N 
ATOM     19  H3  UNL     1       6.169  27.641   5.993  1.00  0.00     0.162 HD
BRANCH  18  20
HETATM   20  C10 UNL     1       8.040  28.789   5.452  1.00  0.00     0.115 C 
BRANCH  20  21
HETATM   21  C11 UNL     1       7.419  29.266   4.219  1.00  0.00     0.032 C 
BRANCH  21  22
HETATM   22  C12 UNL     1       7.969  29.620   2.951  1.00  0.00    -0.013 C 
HETATM   23  C13 UNL     1       7.011  29.965   1.857  1.00  0.00     0.005 C 
HETATM   24  C14 UNL     1       7.696  29.738   0.494  1.00  0.00     0.000 C 
HETATM   25  C15 UNL     1       9.011  30.467   0.474  1.00  0.00     0.000 C 
HETATM   26  C16 UNL     1       9.073  31.426   1.650  1.00  0.00     0.000 C 
HETATM   27  C17 UNL     1       9.096  30.623   2.930  1.00  0.00     0.005 C 
ENDBRANCH  21  22
ENDBRANCH  20  21
BRANCH  20  28
HETATM   28  C18 UNL     1       7.853  29.482   6.750  1.00  0.00     0.206 C 
BRANCH  28  29
HETATM   29  N4  UNL     1       7.204  30.811   6.282  1.00  0.00    -0.073 N 
ATOM     30  H43 UNL     1       7.688  31.294   5.525  1.00  0.00     0.274 HD
ATOM     31  H42 UNL     1       6.324  30.714   5.775  1.00  0.00     0.274 HD
ATOM     32  H41 UNL     1       7.149  31.320   7.164  1.00  0.00     0.274 HD
ENDBRANCH  28  29
BRANCH  28  33
HETATM   33  C19 UNL     1       6.890  29.078   7.777  1.00  0.00     0.038 C 
BRANCH  33  34
HETATM   34  C20 UNL     1       7.402  28.567   9.083  1.00  0.00    -0.021 C 
HETATM   35  C21 UNL     1       6.375  28.966  10.169  1.00  0.00     0.009 C 
HETATM   36  C22 UNL     1       8.679  29.235   9.508  1.00  0.00     0.009 C 
ENDBRANCH  33  34
ENDBRANCH  28  33
ENDBRANCH  20  28
ENDBRANCH  18  20
ENDBRANCH  15  16
ENDBRANCH   1  15
BRANCH   1  37
HETATM   37  C23 UNL     1       5.021  24.081   4.968  1.00  0.00     0.242 C 
HETATM   38  O3  UNL     1       4.241  24.608   4.147  1.00  0.00    -0.271 OA
HETATM   39  N5  UNL     1       4.584  23.265   6.037  1.00  0.00    -0.333 N 
ATOM     40  H5  UNL     1       5.266  22.860   6.677  1.00  0.00     0.165 HD
BRANCH  39  41
HETATM   41  C24 UNL     1       3.173  23.001   6.229  1.00  0.00     0.224 C 
HETATM   42  C25 UNL     1       2.830  21.554   6.002  1.00  0.00     0.059 C 
HETATM   43  C26 UNL     1       2.177  20.946   7.193  1.00  0.00     0.002 C 
HETATM   44  C27 UNL     1       2.961  21.377   8.441  1.00  0.00     0.038 C 
HETATM   45  C29 UNL     1       1.077  21.891   7.696  1.00  0.00    -0.018 C 
HETATM   46  C28 UNL     1       2.209  22.691   8.325  1.00  0.00     0.132 C 
HETATM   47  O4  UNL     1       2.739  23.541   7.402  1.00  0.00    -0.361 OA
HETATM   48  C30 UNL     1       0.197  21.232   8.737  1.00  0.00     0.018 C 
HETATM   49  C31 UNL     1       0.314  22.582   6.607  1.00  0.00     0.018 C 
ENDBRANCH  39  41
ENDBRANCH   1  37
TORSDOF 16
ENDMDL
MODEL 5
REMARK VINA RESULT: -7.683890146      1.629      7.571
REMARK  16 active torsions:
REMARK  status: ('A' for Active; 'I' for Inactive)
REMARK    1  A    between atoms: C2_2  and  C4_4 
REMARK    2  A    between atoms: C4_4  and  C5_5 
REMARK    3  A    between atoms: C5_5  and  N1_6 
REMARK    4  A    between atoms: C5_5  and  C6_10 
REMARK       I    between atoms: C6_10  and  N2_12 
REMARK    5  A    between atoms: N2_12  and  C7_14 
REMARK    6  A    between atoms: C7_14  and  C8_15 
REMARK    7  A    between atoms: C7_14  and  C23_37 
REMARK    8  A    between atoms: C8_15  and  C9_16 
REMARK       I    between atoms: C9_16  and  N3_18 
REMARK    9  A    between atoms: N3_18  and  C10_20 
REMARK   10  A    between atoms: C10_20  and  C11_21 
REMARK   11  A    between atoms: C10_20  and  C18_28 
REMARK   12  A    between atoms: C11_21  and  C12_22 
REMARK   13  A    between atoms: C18_28  and  N4_29 
REMARK   14  A    between atoms: C18_28  and  C19_33 
REMARK   15  A    between atoms: C19_33  and  C20_34 
REMARK       I    between atoms: C23_37  and  N5_39 
REMARK   16  A    between atoms: N5_39  and  C24_41 
ROOT
HETATM    1  C7  UNL     1       6.528  24.353   4.769  1.00  0.00     0.185 C 
ENDROOT
BRANCH   1   2
HETATM    2  N2  UNL     1       6.715  25.244   3.654  1.00  0.00    -0.346 N 
HETATM    3  C6  UNL     1       7.784  25.174   2.726  1.00  0.00     0.249 C 
HETATM    4  O1  UNL     1       8.638  24.267   2.872  1.00  0.00    -0.271 OA
ATOM      5  H2  UNL     1       6.025  25.983   3.521  1.00  0.00     0.163 HD
BRANCH   3   6
HETATM    6  C5  UNL     1       7.907  26.135   1.606  1.00  0.00     0.275 C 
BRANCH   6   7
HETATM    7  C4  UNL     1       8.776  25.600   0.497  1.00  0.00     0.046 C 
BRANCH   7   8
HETATM    8  C2  UNL     1       9.695  26.620  -0.090  1.00  0.00    -0.020 C 
HETATM    9  C1  UNL     1       9.179  27.251  -1.360  1.00  0.00     0.009 C 
HETATM   10  C3  UNL     1      11.101  26.156  -0.315  1.00  0.00     0.009 C 
ENDBRANCH   7   8
ENDBRANCH   6   7
BRANCH   6  11
HETATM   11  N1  UNL     1       6.594  26.479   1.139  1.00  0.00    -0.066 N 
ATOM     12  H13 UNL     1       6.224  25.764   0.511  1.00  0.00     0.275 HD
ATOM     13  H12 UNL     1       5.904  26.408   1.886  1.00  0.00     0.275 HD
ATOM     14  H11 UNL     1       6.576  27.401   0.703  1.00  0.00     0.275 HD
ENDBRANCH   6  11
ENDBRANCH   3   6
ENDBRANCH   1   2
BRANCH   1  15
HETATM   15  C8  UNL     1       7.119  24.963   5.998  1.00  0.00     0.137 C 
BRANCH  15  16
HETATM   16  C9  UNL     1       7.656  26.300   5.787  1.00  0.00     0.220 C 
HETATM   17  O2  UNL     1       8.895  26.362   5.450  1.00  0.00    -0.274 OA
HETATM   18  N3  UNL     1       6.982  27.501   5.910  1.00  0.00    -0.354 N 
ATOM     19  H3  UNL     1       5.995  27.513   6.169  1.00  0.00     0.162 HD
BRANCH  18  20
HETATM   20  C10 UNL     1       7.747  28.844   5.648  1.00  0.00     0.115 C 
BRANCH  20  21
HETATM   21  C11 UNL     1       7.159  29.252   4.375  1.00  0.00     0.032 C 
BRANCH  21  22
HETATM   22  C12 UNL     1       7.747  29.579   3.116  1.00  0.00    -0.013 C 
HETATM   23  C13 UNL     1       6.866  30.212   2.088  1.00  0.00     0.005 C 
HETATM   24  C14 UNL     1       7.455  29.951   0.687  1.00  0.00     0.000 C 
HETATM   25  C15 UNL     1       8.899  30.377   0.671  1.00  0.00     0.000 C 
HETATM   26  C16 UNL     1       9.194  31.201   1.911  1.00  0.00     0.000 C 
HETATM   27  C17 UNL     1       9.066  30.311   3.127  1.00  0.00     0.005 C 
ENDBRANCH  21  22
ENDBRANCH  20  21
BRANCH  20  28
HETATM   28  C18 UNL     1       7.405  29.514   6.926  1.00  0.00     0.206 C 
BRANCH  28  29
HETATM   29  N4  UNL     1       8.566  29.026   7.832  1.00  0.00    -0.073 N 
ATOM     30  H43 UNL     1       9.446  29.531   7.727  1.00  0.00     0.274 HD
ATOM     31  H42 UNL     1       8.464  29.233   8.826  1.00  0.00     0.274 HD
ATOM     32  H41 UNL     1       8.595  28.036   7.590  1.00  0.00     0.274 HD
ENDBRANCH  28  29
BRANCH  28  33
HETATM   33  C19 UNL     1       7.493  30.957   7.157  1.00  0.00     0.038 C 
BRANCH  33  34
HETATM   34  C20 UNL     1       8.614  31.720   6.532  1.00  0.00    -0.021 C 
HETATM   35  C21 UNL     1       9.312  32.520   7.657  1.00  0.00     0.009 C 
HETATM   36  C22 UNL     1       8.137  32.766   5.565  1.00  0.00     0.009 C 
ENDBRANCH  33  34
ENDBRANCH  28  33
ENDBRANCH  20  28
ENDBRANCH  18  20
ENDBRANCH  15  16
ENDBRANCH   1  15
BRANCH   1  37
HETATM   37  C23 UNL     1       5.056  24.084   4.969  1.00  0.00     0.242 C 
HETATM   38  O3  UNL     1       4.278  24.625   4.155  1.00  0.00    -0.271 OA
HETATM   39  N5  UNL     1       4.613  23.260   6.030  1.00  0.00    -0.333 N 
ATOM     40  H5  UNL     1       5.293  22.843   6.665  1.00  0.00     0.165 HD
BRANCH  39  41
HETATM   41  C24 UNL     1       3.201  23.005   6.222  1.00  0.00     0.224 C 
HETATM   42  C25 UNL     1       2.847  21.562   5.988  1.00  0.00     0.059 C 
HETATM   43  C26 UNL     1       2.190  20.953   7.176  1.00  0.00     0.002 C 
HETATM   44  C27 UNL     1       2.977  21.372   8.427  1.00  0.00     0.038 C 
HETATM   45  C29 UNL     1       1.097  21.903   7.683  1.00  0.00    -0.018 C 
HETATM   46  C28 UNL     1       2.235  22.692   8.317  1.00  0.00     0.132 C 
HETATM   47  O4  UNL     1       2.770  23.543   7.397  1.00  0.00    -0.361 OA
HETATM   48  C30 UNL     1       0.213  21.245   8.721  1.00  0.00     0.018 C 
HETATM   49  C31 UNL     1       0.339  22.605   6.598  1.00  0.00     0.018 C 
ENDBRANCH  39  41
ENDBRANCH   1  37
TORSDOF 16
ENDMDL
