MODEL 1
REMARK VINA RESULT: -8.227628043      0.000      0.000
REMARK  13 active torsions:
REMARK  status: ('A' for Active; 'I' for Inactive)
REMARK    1  A    between atoms: C2_2  and  O1_3 
REMARK    2  A    between atoms: O1_3  and  C3_4 
REMARK    3  A    between atoms: C3_4  and  C4_6 
REMARK    4  A    between atoms: C4_6  and  C5_7 
REMARK    5  A    between atoms: C5_7  and  C6_8 
REMARK    6  A    between atoms: C6_8  and  C7_9 
REMARK    7  A    between atoms: C7_9  and  C8_10 
REMARK    8  A    between atoms: C8_10  and  C9_11 
REMARK    9  A    between atoms: C9_11  and  N1_12 
REMARK   10  A    between atoms: N1_12  and  C10_14 
REMARK   11  A    between atoms: C10_14  and  N2_16 
REMARK   12  A    between atoms: N2_16  and  C11_18 
REMARK   13  A    between atoms: C19_26  and  O3_27 
ROOT
HETATM    1  C10 UNL     1      -5.349  11.441 -13.653  1.00  0.00     0.168 C 
HETATM    2  S1  UNL     1      -4.166  11.184 -12.587  1.00  0.00    -0.041 SA
ENDROOT
BRANCH   1   3
HETATM    3  N1  UNL     1      -5.780  12.796 -13.839  1.00  0.00    -0.367 N 
ATOM      4  H1  UNL     1      -5.745  13.233 -14.759  1.00  0.00     0.161 HD
BRANCH   3   5
HETATM    5  C9  UNL     1      -6.265  13.530 -12.690  1.00  0.00     0.122 C 
BRANCH   5   6
HETATM    6  C8  UNL     1      -7.450  12.755 -12.097  1.00  0.00     0.020 C 
BRANCH   6   7
HETATM    7  C7  UNL     1      -8.264  13.663 -11.215  1.00  0.00     0.002 C 
BRANCH   7   8
HETATM    8  C6  UNL     1      -7.797  15.084 -11.387  1.00  0.00     0.001 C 
BRANCH   8   9
HETATM    9  C5  UNL     1      -8.648  16.005 -10.590  1.00  0.00     0.010 C 
BRANCH   9  10
HETATM   10  C4  UNL     1      -7.880  17.010  -9.762  1.00  0.00     0.111 C 
BRANCH  10  11
HETATM   11  C3  UNL     1      -8.204  18.407 -10.036  1.00  0.00     0.258 C 
HETATM   12  O2  UNL     1      -9.190  19.055  -9.648  1.00  0.00    -0.265 OA
BRANCH  11  13
HETATM   13  O1  UNL     1      -7.295  19.129 -10.840  1.00  0.00    -0.322 OA
BRANCH  13  14
HETATM   14  C2  UNL     1      -6.115  18.518 -11.325  1.00  0.00     0.174 C 
HETATM   15  C1  UNL     1      -4.964  19.130 -10.518  1.00  0.00     0.034 C 
ENDBRANCH  13  14
ENDBRANCH  11  13
ENDBRANCH  10  11
ENDBRANCH   9  10
ENDBRANCH   8   9
ENDBRANCH   7   8
ENDBRANCH   6   7
ENDBRANCH   5   6
ENDBRANCH   3   5
ENDBRANCH   1   3
BRANCH   1  16
HETATM   16  N2  UNL     1      -5.957  10.413 -14.373  1.00  0.00    -0.355 N 
ATOM     17  H2  UNL     1      -6.873  10.116 -14.037  1.00  0.00     0.162 HD
BRANCH  16  18
HETATM   18  C11 UNL     1      -5.458   9.717 -15.530  1.00  0.00     0.059 C 
HETATM   19  C12 UNL     1      -4.803   8.430 -15.098  1.00  0.00     0.038 C 
HETATM   20  C13 UNL     1      -4.154   7.724 -16.285  1.00  0.00    -0.011 C 
HETATM   21  C14 UNL     1      -5.273   7.452 -17.265  1.00  0.00     0.009 C 
HETATM   22  C18 UNL     1      -3.080   8.603 -16.833  1.00  0.00     0.012 C 
HETATM   23  C15 UNL     1      -5.837   8.745 -17.750  1.00  0.00    -0.011 C 
HETATM   24  C16 UNL     1      -4.733   9.565 -18.370  1.00  0.00     0.012 C 
HETATM   25  C20 UNL     1      -6.492   9.484 -16.603  1.00  0.00     0.038 C 
HETATM   26  C17 UNL     1      -3.710   9.897 -17.307  1.00  0.00     0.017 C 
HETATM   27  C19 UNL     1      -4.401  10.630 -16.205  1.00  0.00     0.150 C 
BRANCH  27  28
HETATM   28  O3  UNL     1      -5.130  11.677 -16.770  1.00  0.00    -0.393 OA
ATOM     29  H3  UNL     1      -4.989  12.418 -16.192  1.00  0.00     0.210 HD
ENDBRANCH  27  28
ENDBRANCH  16  18
ENDBRANCH   1  16
TORSDOF 13
ENDMDL
MODEL 2
REMARK VINA RESULT: -7.950196724      1.325      2.175
REMARK  13 active torsions:
REMARK  status: ('A' for Active; 'I' for Inactive)
REMARK    1  A    between atoms: C2_2  and  O1_3 
REMARK    2  A    between atoms: O1_3  and  C3_4 
REMARK    3  A    between atoms: C3_4  and  C4_6 
REMARK    4  A    between atoms: C4_6  and  C5_7 
REMARK    5  A    between atoms: C5_7  and  C6_8 
REMARK    6  A    between atoms: C6_8  and  C7_9 
REMARK    7  A    between atoms: C7_9  and  C8_10 
REMARK    8  A    between atoms: C8_10  and  C9_11 
REMARK    9  A    between atoms: C9_11  and  N1_12 
REMARK   10  A    between atoms: N1_12  and  C10_14 
REMARK   11  A    between atoms: C10_14  and  N2_16 
REMARK   12  A    between atoms: N2_16  and  C11_18 
REMARK   13  A    between atoms: C19_26  and  O3_27 
ROOT
HETATM    1  C10 UNL     1      -4.863  10.587 -13.562  1.00  0.00     0.168 C 
HETATM    2  S1  UNL     1      -3.661  10.936 -12.544  1.00  0.00    -0.041 SA
ENDROOT
BRANCH   1   3
HETATM    3  N1  UNL     1      -6.075  10.073 -12.992  1.00  0.00    -0.367 N 
ATOM      4  H1  UNL     1      -6.117   9.122 -12.628  1.00  0.00     0.161 HD
BRANCH   3   5
HETATM    5  C9  UNL     1      -7.236  10.935 -12.946  1.00  0.00     0.122 C 
BRANCH   5   6
HETATM    6  C8  UNL     1      -7.245  11.648 -11.587  1.00  0.00     0.020 C 
BRANCH   6   7
HETATM    7  C7  UNL     1      -7.704  13.071 -11.758  1.00  0.00     0.002 C 
BRANCH   7   8
HETATM    8  C6  UNL     1      -6.689  13.832 -12.569  1.00  0.00     0.001 C 
BRANCH   8   9
HETATM    9  C5  UNL     1      -6.820  15.291 -12.317  1.00  0.00     0.010 C 
BRANCH   9  10
HETATM   10  C4  UNL     1      -7.960  15.668 -11.397  1.00  0.00     0.111 C 
BRANCH  10  11
HETATM   11  C3  UNL     1      -7.570  16.434 -10.217  1.00  0.00     0.258 C 
HETATM   12  O2  UNL     1      -8.119  16.457  -9.103  1.00  0.00    -0.265 OA
BRANCH  11  13
HETATM   13  O1  UNL     1      -6.429  17.256 -10.336  1.00  0.00    -0.322 OA
BRANCH  13  14
HETATM   14  C2  UNL     1      -6.560  18.646 -10.571  1.00  0.00     0.174 C 
HETATM   15  C1  UNL     1      -5.193  19.114 -11.084  1.00  0.00     0.034 C 
ENDBRANCH  13  14
ENDBRANCH  11  13
ENDBRANCH  10  11
ENDBRANCH   9  10
ENDBRANCH   8   9
ENDBRANCH   7   8
ENDBRANCH   6   7
ENDBRANCH   5   6
ENDBRANCH   3   5
ENDBRANCH   1   3
BRANCH   1  16
HETATM   16  N2  UNL     1      -4.761  10.756 -14.942  1.00  0.00    -0.355 N 
ATOM     17  H2  UNL     1      -4.853  11.714 -15.281  1.00  0.00     0.162 HD
BRANCH  16  18
HETATM   18  C11 UNL     1      -4.540   9.753 -15.950  1.00  0.00     0.059 C 
HETATM   19  C12 UNL     1      -3.449  10.209 -16.883  1.00  0.00     0.038 C 
HETATM   20  C13 UNL     1      -3.271   9.226 -18.037  1.00  0.00    -0.011 C 
HETATM   21  C14 UNL     1      -2.911   7.902 -17.399  1.00  0.00     0.009 C 
HETATM   22  C18 UNL     1      -4.537   9.184 -18.825  1.00  0.00     0.012 C 
HETATM   23  C15 UNL     1      -4.049   7.427 -16.559  1.00  0.00    -0.011 C 
HETATM   24  C16 UNL     1      -5.286   7.321 -17.415  1.00  0.00     0.012 C 
HETATM   25  C20 UNL     1      -4.264   8.376 -15.399  1.00  0.00     0.038 C 
HETATM   26  C17 UNL     1      -5.652   8.697 -17.924  1.00  0.00     0.017 C 
HETATM   27  C19 UNL     1      -5.862   9.591 -16.746  1.00  0.00     0.150 C 
BRANCH  27  28
HETATM   28  O3  UNL     1      -6.741   8.955 -15.869  1.00  0.00    -0.393 OA
ATOM     29  H3  UNL     1      -7.580   9.379 -16.006  1.00  0.00     0.210 HD
ENDBRANCH  27  28
ENDBRANCH  16  18
ENDBRANCH   1  16
TORSDOF 13
ENDMDL
MODEL 3
REMARK VINA RESULT: -7.926812741      1.021      1.500
REMARK  13 active torsions:
REMARK  status: ('A' for Active; 'I' for Inactive)
REMARK    1  A    between atoms: C2_2  and  O1_3 
REMARK    2  A    between atoms: O1_3  and  C3_4 
REMARK    3  A    between atoms: C3_4  and  C4_6 
REMARK    4  A    between atoms: C4_6  and  C5_7 
REMARK    5  A    between atoms: C5_7  and  C6_8 
REMARK    6  A    between atoms: C6_8  and  C7_9 
REMARK    7  A    between atoms: C7_9  and  C8_10 
REMARK    8  A    between atoms: C8_10  and  C9_11 
REMARK    9  A    between atoms: C9_11  and  N1_12 
REMARK   10  A    between atoms: N1_12  and  C10_14 
REMARK   11  A    between atoms: C10_14  and  N2_16 
REMARK   12  A    between atoms: N2_16  and  C11_18 
REMARK   13  A    between atoms: C19_26  and  O3_27 
ROOT
HETATM    1  C10 UNL     1      -4.559  11.110 -13.126  1.00  0.00     0.168 C 
HETATM    2  S1  UNL     1      -3.349  10.628 -12.174  1.00  0.00    -0.041 SA
ENDROOT
BRANCH   1   3
HETATM    3  N1  UNL     1      -5.782  11.496 -12.486  1.00  0.00    -0.367 N 
ATOM      4  H1  UNL     1      -6.222  10.891 -11.793  1.00  0.00     0.161 HD
BRANCH   3   5
HETATM    5  C9  UNL     1      -6.379  12.764 -12.845  1.00  0.00     0.122 C 
BRANCH   5   6
HETATM    6  C8  UNL     1      -7.499  13.063 -11.840  1.00  0.00     0.020 C 
BRANCH   6   7
HETATM    7  C7  UNL     1      -7.597  14.547 -11.610  1.00  0.00     0.002 C 
BRANCH   7   8
HETATM    8  C6  UNL     1      -8.440  14.813 -10.390  1.00  0.00     0.001 C 
BRANCH   8   9
HETATM    9  C5  UNL     1      -8.974  16.199 -10.427  1.00  0.00     0.010 C 
BRANCH   9  10
HETATM   10  C4  UNL     1      -8.367  17.132  -9.402  1.00  0.00     0.111 C 
BRANCH  10  11
HETATM   11  C3  UNL     1      -8.514  18.553  -9.704  1.00  0.00     0.258 C 
HETATM   12  O2  UNL     1      -9.267  19.378  -9.160  1.00  0.00    -0.265 OA
BRANCH  11  13
HETATM   13  O1  UNL     1      -7.707  19.075 -10.738  1.00  0.00    -0.322 OA
BRANCH  13  14
HETATM   14  C2  UNL     1      -6.349  18.697 -10.858  1.00  0.00     0.174 C 
HETATM   15  C1  UNL     1      -6.210  18.070 -12.250  1.00  0.00     0.034 C 
ENDBRANCH  13  14
ENDBRANCH  11  13
ENDBRANCH  10  11
ENDBRANCH   9  10
ENDBRANCH   8   9
ENDBRANCH   7   8
ENDBRANCH   6   7
ENDBRANCH   5   6
ENDBRANCH   3   5
ENDBRANCH   1   3
BRANCH   1  16
HETATM   16  N2  UNL     1      -4.458  11.151 -14.517  1.00  0.00    -0.355 N 
ATOM     17  H2  UNL     1      -4.512  12.078 -14.939  1.00  0.00     0.162 HD
BRANCH  16  18
HETATM   18  C11 UNL     1      -4.288  10.053 -15.432  1.00  0.00     0.059 C 
HETATM   19  C12 UNL     1      -2.822   9.862 -15.721  1.00  0.00     0.038 C 
HETATM   20  C13 UNL     1      -2.611   8.786 -16.782  1.00  0.00    -0.011 C 
HETATM   21  C14 UNL     1      -3.213   7.521 -16.213  1.00  0.00     0.009 C 
HETATM   22  C18 UNL     1      -3.255   9.236 -18.051  1.00  0.00     0.012 C 
HETATM   23  C15 UNL     1      -4.683   7.707 -16.030  1.00  0.00    -0.011 C 
HETATM   24  C16 UNL     1      -5.303   8.079 -17.353  1.00  0.00     0.012 C 
HETATM   25  C20 UNL     1      -4.941   8.770 -14.984  1.00  0.00     0.038 C 
HETATM   26  C17 UNL     1      -4.739   9.408 -17.804  1.00  0.00     0.017 C 
HETATM   27  C19 UNL     1      -5.026  10.422 -16.746  1.00  0.00     0.150 C 
BRANCH  27  28
HETATM   28  O3  UNL     1      -6.385  10.352 -16.434  1.00  0.00    -0.393 OA
ATOM     29  H3  UNL     1      -6.826  10.806 -17.142  1.00  0.00     0.210 HD
ENDBRANCH  27  28
ENDBRANCH  16  18
ENDBRANCH   1  16
TORSDOF 13
ENDMDL
MODEL 4
REMARK VINA RESULT: -7.882887363      4.638      6.402
REMARK  13 active torsions:
REMARK  status: ('A' for Active; 'I' for Inactive)
REMARK    1  A    between atoms: C2_2  and  O1_3 
REMARK    2  A    between atoms: O1_3  and  C3_4 
REMARK    3  A    between atoms: C3_4  and  C4_6 
REMARK    4  A    between atoms: C4_6  and  C5_7 
REMARK    5  A    between atoms: C5_7  and  C6_8 
REMARK    6  A    between atoms: C6_8  and  C7_9 
REMARK    7  A    between atoms: C7_9  and  C8_10 
REMARK    8  A    between atoms: C8_10  and  C9_11 
REMARK    9  A    between atoms: C9_11  and  N1_12 
REMARK   10  A    between atoms: N1_12  and  C10_14 
REMARK   11  A    between atoms: C10_14  and  N2_16 
REMARK   12  A    between atoms: N2_16  and  C11_18 
REMARK   13  A    between atoms: C19_26  and  O3_27 
ROOT
HETATM    1  C10 UNL     1      -2.200  10.490 -13.736  1.00  0.00     0.168 C 
HETATM    2  S1  UNL     1      -1.882   9.147 -14.572  1.00  0.00    -0.041 SA
ENDROOT
BRANCH   1   3
HETATM    3  N1  UNL     1      -3.498  11.076 -13.908  1.00  0.00    -0.367 N 
ATOM      4  H1  UNL     1      -3.632  12.083 -13.814  1.00  0.00     0.161 HD
BRANCH   3   5
HETATM    5  C9  UNL     1      -4.613  10.207 -14.216  1.00  0.00     0.122 C 
BRANCH   5   6
HETATM    6  C8  UNL     1      -5.397   9.963 -12.920  1.00  0.00     0.020 C 
BRANCH   6   7
HETATM    7  C7  UNL     1      -6.826   9.619 -13.244  1.00  0.00     0.002 C 
BRANCH   7   8
HETATM    8  C6  UNL     1      -7.731  10.721 -12.759  1.00  0.00     0.001 C 
BRANCH   8   9
HETATM    9  C5  UNL     1      -6.993  11.622 -11.835  1.00  0.00     0.010 C 
BRANCH   9  10
HETATM   10  C4  UNL     1      -7.390  13.078 -11.930  1.00  0.00     0.111 C 
BRANCH  10  11
HETATM   11  C3  UNL     1      -6.508  13.903 -12.751  1.00  0.00     0.258 C 
HETATM   12  O2  UNL     1      -5.556  13.535 -13.460  1.00  0.00    -0.265 OA
BRANCH  11  13
HETATM   13  O1  UNL     1      -6.751  15.293 -12.753  1.00  0.00    -0.322 OA
BRANCH  13  14
HETATM   14  C2  UNL     1      -7.782  15.849 -11.961  1.00  0.00     0.174 C 
HETATM   15  C1  UNL     1      -7.080  16.689 -10.887  1.00  0.00     0.034 C 
ENDBRANCH  13  14
ENDBRANCH  11  13
ENDBRANCH  10  11
ENDBRANCH   9  10
ENDBRANCH   8   9
ENDBRANCH   7   8
ENDBRANCH   6   7
ENDBRANCH   5   6
ENDBRANCH   3   5
ENDBRANCH   1   3
BRANCH   1  16
HETATM   16  N2  UNL     1      -1.274  11.089 -12.882  1.00  0.00    -0.355 N 
ATOM     17  H2  UNL     1      -0.755  11.876 -13.271  1.00  0.00     0.162 HD
BRANCH  16  18
HETATM   18  C11 UNL     1      -0.957  10.738 -11.523  1.00  0.00     0.059 C 
HETATM   19  C12 UNL     1      -2.212  10.305 -10.810  1.00  0.00     0.038 C 
HETATM   20  C13 UNL     1      -1.936  10.042  -9.332  1.00  0.00    -0.011 C 
HETATM   21  C14 UNL     1      -0.894   8.947  -9.295  1.00  0.00     0.009 C 
HETATM   22  C18 UNL     1      -1.485  11.316  -8.698  1.00  0.00     0.012 C 
HETATM   23  C15 UNL     1       0.369   9.437  -9.920  1.00  0.00    -0.011 C 
HETATM   24  C16 UNL     1       0.831  10.677  -9.195  1.00  0.00     0.012 C 
HETATM   25  C20 UNL     1       0.142   9.714 -11.391  1.00  0.00     0.038 C 
HETATM   26  C17 UNL     1      -0.205  11.765  -9.371  1.00  0.00     0.017 C 
HETATM   27  C19 UNL     1      -0.386  12.006 -10.834  1.00  0.00     0.150 C 
BRANCH  27  28
HETATM   28  O3  UNL     1       0.874  12.195 -11.403  1.00  0.00    -0.393 OA
ATOM     29  H3  UNL     1       1.312  12.818 -10.835  1.00  0.00     0.210 HD
ENDBRANCH  27  28
ENDBRANCH  16  18
ENDBRANCH   1  16
TORSDOF 13
ENDMDL
MODEL 5
REMARK VINA RESULT: -7.672262613      1.487      2.329
REMARK  13 active torsions:
REMARK  status: ('A' for Active; 'I' for Inactive)
REMARK    1  A    between atoms: C2_2  and  O1_3 
REMARK    2  A    between atoms: O1_3  and  C3_4 
REMARK    3  A    between atoms: C3_4  and  C4_6 
REMARK    4  A    between atoms: C4_6  and  C5_7 
REMARK    5  A    between atoms: C5_7  and  C6_8 
REMARK    6  A    between atoms: C6_8  and  C7_9 
REMARK    7  A    between atoms: C7_9  and  C8_10 
REMARK    8  A    between atoms: C8_10  and  C9_11 
REMARK    9  A    between atoms: C9_11  and  N1_12 
REMARK   10  A    between atoms: N1_12  and  C10_14 
REMARK   11  A    between atoms: C10_14  and  N2_16 
REMARK   12  A    between atoms: N2_16  and  C11_18 
REMARK   13  A    between atoms: C19_26  and  O3_27 
ROOT
HETATM    1  C10 UNL     1      -6.403  11.076 -13.739  1.00  0.00     0.168 C 
HETATM    2  S1  UNL     1      -7.234  10.343 -12.566  1.00  0.00    -0.041 SA
ENDROOT
BRANCH   1   3
HETATM    3  N1  UNL     1      -5.988  12.428 -13.501  1.00  0.00    -0.367 N 
ATOM      4  H1  UNL     1      -5.160  12.808 -13.960  1.00  0.00     0.161 HD
BRANCH   3   5
HETATM    5  C9  UNL     1      -6.770  13.241 -12.594  1.00  0.00     0.122 C 
BRANCH   5   6
HETATM    6  C8  UNL     1      -6.376  14.708 -12.812  1.00  0.00     0.020 C 
BRANCH   6   7
HETATM    7  C7  UNL     1      -7.443  15.612 -12.256  1.00  0.00     0.002 C 
BRANCH   7   8
HETATM    8  C6  UNL     1      -7.894  15.093 -10.916  1.00  0.00     0.001 C 
BRANCH   8   9
HETATM    9  C5  UNL     1      -8.828  16.057 -10.280  1.00  0.00     0.010 C 
BRANCH   9  10
HETATM   10  C4  UNL     1      -8.158  17.105  -9.420  1.00  0.00     0.111 C 
BRANCH  10  11
HETATM   11  C3  UNL     1      -8.368  18.483  -9.856  1.00  0.00     0.258 C 
HETATM   12  O2  UNL     1      -9.358  19.207  -9.654  1.00  0.00    -0.265 OA
BRANCH  11  13
HETATM   13  O1  UNL     1      -7.331  19.084 -10.600  1.00  0.00    -0.322 OA
BRANCH  13  14
HETATM   14  C2  UNL     1      -6.003  18.604 -10.508  1.00  0.00     0.174 C 
HETATM   15  C1  UNL     1      -5.267  19.174 -11.726  1.00  0.00     0.034 C 
ENDBRANCH  13  14
ENDBRANCH  11  13
ENDBRANCH  10  11
ENDBRANCH   9  10
ENDBRANCH   8   9
ENDBRANCH   7   8
ENDBRANCH   6   7
ENDBRANCH   5   6
ENDBRANCH   3   5
ENDBRANCH   1   3
BRANCH   1  16
HETATM   16  N2  UNL     1      -6.093  10.457 -14.949  1.00  0.00    -0.355 N 
ATOM     17  H2  UNL     1      -6.852  10.402 -15.628  1.00  0.00     0.162 HD
BRANCH  16  18
HETATM   18  C11 UNL     1      -4.839   9.883 -15.363  1.00  0.00     0.059 C 
HETATM   19  C12 UNL     1      -4.383  10.542 -16.639  1.00  0.00     0.038 C 
HETATM   20  C13 UNL     1      -3.118   9.876 -17.174  1.00  0.00    -0.011 C 
HETATM   21  C14 UNL     1      -2.077  10.035 -16.089  1.00  0.00     0.009 C 
HETATM   22  C18 UNL     1      -3.430   8.453 -17.498  1.00  0.00     0.012 C 
HETATM   23  C15 UNL     1      -2.510   9.291 -14.869  1.00  0.00    -0.011 C 
HETATM   24  C16 UNL     1      -2.733   7.843 -15.226  1.00  0.00     0.012 C 
HETATM   25  C20 UNL     1      -3.767   9.917 -14.303  1.00  0.00     0.038 C 
HETATM   26  C17 UNL     1      -3.863   7.751 -16.228  1.00  0.00     0.017 C 
HETATM   27  C19 UNL     1      -5.078   8.373 -15.621  1.00  0.00     0.150 C 
BRANCH  27  28
HETATM   28  O3  UNL     1      -5.268   7.812 -14.358  1.00  0.00    -0.393 OA
ATOM     29  H3  UNL     1      -4.569   7.176 -14.261  1.00  0.00     0.210 HD
ENDBRANCH  27  28
ENDBRANCH  16  18
ENDBRANCH   1  16
TORSDOF 13
ENDMDL
