MODEL 1
REMARK VINA RESULT: -5.279317677      0.000      0.000
REMARK  13 active torsions:
REMARK  status: ('A' for Active; 'I' for Inactive)
REMARK    1  A    between atoms: C2_2  and  C3_3 
REMARK    2  A    between atoms: C5_5  and  C7_7 
REMARK    3  A    between atoms: C7_7  and  C8_8 
REMARK    4  A    between atoms: C8_8  and  C9_9 
REMARK    5  A    between atoms: C9_9  and  C10_10 
REMARK    6  A    between atoms: C10_10  and  O1_11 
REMARK    7  A    between atoms: C10_10  and  C11_13 
REMARK    8  A    between atoms: C11_13  and  C14_16 
REMARK    9  A    between atoms: C21_24  and  C22_25 
REMARK   10  A    between atoms: C22_25  and  O3_26 
REMARK   11  A    between atoms: C25_31  and  O5_32 
REMARK   12  A    between atoms: C27_35  and  O6_36 
REMARK   13  A    between atoms: O6_36  and  C28_37 
ROOT
HETATM    1  C3  UNL     1      21.099 -20.416 -19.553  1.00  0.00    -0.018 C 
HETATM    2  C4  UNL     1      21.933 -20.428 -18.507  1.00  0.00    -0.015 C 
HETATM    3  C5  UNL     1      23.016 -21.343 -18.390  1.00  0.00    -0.054 C 
HETATM    4  C6  UNL     1      23.086 -22.773 -18.396  1.00  0.00     0.049 C 
HETATM    5  C16 UNL     1      21.826 -19.403 -17.414  1.00  0.00    -0.041 C 
HETATM    6  C17 UNL     1      21.571 -19.762 -16.206  1.00  0.00    -0.022 C 
HETATM    7  C18 UNL     1      21.327 -21.108 -15.649  1.00  0.00     0.036 C 
HETATM    8  C19 UNL     1      21.849 -17.899 -17.620  1.00  0.00     0.082 C 
HETATM    9  C20 UNL     1      21.158 -17.228 -16.514  1.00  0.00     0.024 C 
HETATM   10  C21 UNL     1      20.934 -15.745 -16.887  1.00  0.00     0.039 C 
HETATM   11  C23 UNL     1      20.164 -15.749 -18.159  1.00  0.00     0.127 C 
HETATM   12  C24 UNL     1      19.700 -14.374 -18.577  1.00  0.00     0.040 C 
HETATM   13  O4  UNL     1      20.962 -16.306 -19.143  1.00  0.00    -0.349 OA
HETATM   14  C25 UNL     1      21.174 -17.650 -18.989  1.00  0.00     0.172 C 
HETATM   15  C26 UNL     1      19.879 -18.348 -19.035  1.00  0.00     0.106 C 
HETATM   16  C27 UNL     1      19.868 -19.632 -19.876  1.00  0.00     0.171 C 
ENDROOT
BRANCH   1  17
HETATM   17  C2  UNL     1      21.431 -21.384 -20.535  1.00  0.00     0.000 C 
HETATM   18  C1  UNL     1      21.446 -21.133 -21.830  1.00  0.00     0.012 C 
ENDBRANCH   1  17
BRANCH   3  19
HETATM   19  C7  UNL     1      24.315 -20.633 -18.634  1.00  0.00    -0.019 C 
BRANCH  19  20
HETATM   20  C8  UNL     1      25.598 -21.332 -18.604  1.00  0.00     0.030 C 
BRANCH  20  21
HETATM   21  C9  UNL     1      26.631 -21.084 -19.636  1.00  0.00     0.036 C 
BRANCH  21  22
HETATM   22  C10 UNL     1      26.746 -22.357 -20.520  1.00  0.00     0.133 C 
BRANCH  22  23
HETATM   23  O1  UNL     1      28.100 -22.520 -20.788  1.00  0.00    -0.394 OA
ATOM     24  H1  UNL     1      28.529 -22.592 -19.944  1.00  0.00     0.210 HD
ENDBRANCH  22  23
BRANCH  22  25
HETATM   25  C11 UNL     1      25.947 -22.160 -21.773  1.00  0.00     0.038 C 
HETATM   26  C12 UNL     1      25.590 -20.710 -21.969  1.00  0.00     0.025 C 
HETATM   27  C13 UNL     1      24.685 -22.976 -21.798  1.00  0.00     0.025 C 
BRANCH  25  28
HETATM   28  C14 UNL     1      26.758 -22.573 -22.975  1.00  0.00     0.133 C 
HETATM   29  C15 UNL     1      27.147 -21.521 -23.972  1.00  0.00     0.091 C 
HETATM   30  O2  UNL     1      27.113 -23.702 -23.183  1.00  0.00    -0.297 OA
ENDBRANCH  25  28
ENDBRANCH  22  25
ENDBRANCH  21  22
ENDBRANCH  20  21
ENDBRANCH  19  20
ENDBRANCH   3  19
BRANCH  16  31
HETATM   31  O6  UNL     1      18.715 -20.367 -19.459  1.00  0.00    -0.311 OA
BRANCH  31  32
HETATM   32  C28 UNL     1      18.497 -21.006 -18.289  1.00  0.00     0.255 C 
HETATM   33  C29 UNL     1      18.759 -22.482 -18.097  1.00  0.00     0.126 C 
HETATM   34  O7  UNL     1      18.057 -20.356 -17.307  1.00  0.00    -0.266 OA
ENDBRANCH  31  32
ENDBRANCH  16  31
BRANCH  14  35
HETATM   35  O5  UNL     1      22.110 -18.046 -19.936  1.00  0.00    -0.365 OA
ATOM     36  H5  UNL     1      21.819 -18.900 -20.234  1.00  0.00     0.213 HD
ENDBRANCH  14  35
BRANCH  10  37
HETATM   37  C22 UNL     1      20.227 -15.030 -15.761  1.00  0.00     0.171 C 
BRANCH  37  38
HETATM   38  O3  UNL     1      21.089 -14.291 -14.983  1.00  0.00    -0.400 OA
ATOM     39  H3  UNL     1      20.842 -14.291 -14.066  1.00  0.00     0.209 HD
ENDBRANCH  37  38
ENDBRANCH  10  37
TORSDOF 13
ENDMDL
MODEL 2
REMARK VINA RESULT: -5.076365417      5.060      8.534
REMARK  13 active torsions:
REMARK  status: ('A' for Active; 'I' for Inactive)
REMARK    1  A    between atoms: C2_2  and  C3_3 
REMARK    2  A    between atoms: C5_5  and  C7_7 
REMARK    3  A    between atoms: C7_7  and  C8_8 
REMARK    4  A    between atoms: C8_8  and  C9_9 
REMARK    5  A    between atoms: C9_9  and  C10_10 
REMARK    6  A    between atoms: C10_10  and  O1_11 
REMARK    7  A    between atoms: C10_10  and  C11_13 
REMARK    8  A    between atoms: C11_13  and  C14_16 
REMARK    9  A    between atoms: C21_24  and  C22_25 
REMARK   10  A    between atoms: C22_25  and  O3_26 
REMARK   11  A    between atoms: C25_31  and  O5_32 
REMARK   12  A    between atoms: C27_35  and  O6_36 
REMARK   13  A    between atoms: O6_36  and  C28_37 
ROOT
HETATM    1  C3  UNL     1      27.576 -25.246 -18.650  1.00  0.00    -0.018 C 
HETATM    2  C4  UNL     1      27.167 -24.775 -17.467  1.00  0.00    -0.015 C 
HETATM    3  C5  UNL     1      27.799 -25.110 -16.237  1.00  0.00    -0.054 C 
HETATM    4  C6  UNL     1      28.064 -26.359 -15.589  1.00  0.00     0.049 C 
HETATM    5  C16 UNL     1      26.048 -23.777 -17.372  1.00  0.00    -0.041 C 
HETATM    6  C17 UNL     1      24.967 -24.068 -16.738  1.00  0.00    -0.022 C 
HETATM    7  C18 UNL     1      24.584 -25.312 -16.040  1.00  0.00     0.036 C 
HETATM    8  C19 UNL     1      25.997 -22.447 -18.101  1.00  0.00     0.082 C 
HETATM    9  C20 UNL     1      24.605 -22.017 -18.270  1.00  0.00     0.024 C 
HETATM   10  C21 UNL     1      24.561 -20.832 -19.261  1.00  0.00     0.039 C 
HETATM   11  C23 UNL     1      25.195 -21.316 -20.516  1.00  0.00     0.127 C 
HETATM   12  C24 UNL     1      25.076 -20.337 -21.659  1.00  0.00     0.040 C 
HETATM   13  O4  UNL     1      26.526 -21.584 -20.250  1.00  0.00    -0.349 OA
HETATM   14  C25 UNL     1      26.723 -22.676 -19.447  1.00  0.00     0.172 C 
HETATM   15  C26 UNL     1      26.167 -23.865 -20.112  1.00  0.00     0.106 C 
HETATM   16  C27 UNL     1      27.055 -25.116 -20.044  1.00  0.00     0.171 C 
ENDROOT
BRANCH   1  17
HETATM   17  C2  UNL     1      28.717 -26.082 -18.545  1.00  0.00     0.000 C 
HETATM   18  C1  UNL     1      29.590 -26.249 -19.520  1.00  0.00     0.012 C 
ENDBRANCH   1  17
BRANCH   3  19
HETATM   19  C7  UNL     1      28.595 -23.942 -15.735  1.00  0.00    -0.019 C 
BRANCH  19  20
HETATM   20  C8  UNL     1      28.029 -22.957 -14.814  1.00  0.00     0.030 C 
BRANCH  20  21
HETATM   21  C9  UNL     1      27.089 -23.360 -13.742  1.00  0.00     0.036 C 
BRANCH  21  22
HETATM   22  C10 UNL     1      27.249 -22.364 -12.561  1.00  0.00     0.133 C 
BRANCH  22  23
HETATM   23  O1  UNL     1      28.517 -21.810 -12.692  1.00  0.00    -0.394 OA
ATOM     24  H1  UNL     1      28.791 -21.567 -11.816  1.00  0.00     0.210 HD
ENDBRANCH  22  23
BRANCH  22  25
HETATM   25  C11 UNL     1      27.094 -23.105 -11.267  1.00  0.00     0.038 C 
HETATM   26  C12 UNL     1      27.210 -24.592 -11.474  1.00  0.00     0.025 C 
HETATM   27  C13 UNL     1      25.790 -22.814 -10.578  1.00  0.00     0.025 C 
BRANCH  25  28
HETATM   28  C14 UNL     1      28.191 -22.712 -10.310  1.00  0.00     0.133 C 
HETATM   29  C15 UNL     1      27.838 -21.847  -9.136  1.00  0.00     0.091 C 
HETATM   30  O2  UNL     1      29.336 -23.054 -10.432  1.00  0.00    -0.297 OA
ENDBRANCH  25  28
ENDBRANCH  22  25
ENDBRANCH  21  22
ENDBRANCH  20  21
ENDBRANCH  19  20
ENDBRANCH   3  19
BRANCH  16  31
HETATM   31  O6  UNL     1      26.198 -26.223 -20.336  1.00  0.00    -0.311 OA
BRANCH  31  32
HETATM   32  C28 UNL     1      25.225 -26.764 -19.570  1.00  0.00     0.255 C 
HETATM   33  C29 UNL     1      25.450 -27.967 -18.684  1.00  0.00     0.126 C 
HETATM   34  O7  UNL     1      24.076 -26.254 -19.588  1.00  0.00    -0.266 OA
ENDBRANCH  31  32
ENDBRANCH  16  31
BRANCH  14  35
HETATM   35  O5  UNL     1      28.073 -22.735 -19.129  1.00  0.00    -0.365 OA
ATOM     36  H5  UNL     1      28.491 -23.130 -19.884  1.00  0.00     0.213 HD
ENDBRANCH  14  35
BRANCH  10  37
HETATM   37  C22 UNL     1      23.137 -20.368 -19.450  1.00  0.00     0.171 C 
BRANCH  37  38
HETATM   38  O3  UNL     1      22.710 -19.549 -18.429  1.00  0.00    -0.400 OA
ATOM     39  H3  UNL     1      21.847 -19.785 -18.110  1.00  0.00     0.209 HD
ENDBRANCH  37  38
ENDBRANCH  10  37
TORSDOF 13
ENDMDL
MODEL 3
REMARK VINA RESULT: -4.978521348      1.505      2.466
REMARK  13 active torsions:
REMARK  status: ('A' for Active; 'I' for Inactive)
REMARK    1  A    between atoms: C2_2  and  C3_3 
REMARK    2  A    between atoms: C5_5  and  C7_7 
REMARK    3  A    between atoms: C7_7  and  C8_8 
REMARK    4  A    between atoms: C8_8  and  C9_9 
REMARK    5  A    between atoms: C9_9  and  C10_10 
REMARK    6  A    between atoms: C10_10  and  O1_11 
REMARK    7  A    between atoms: C10_10  and  C11_13 
REMARK    8  A    between atoms: C11_13  and  C14_16 
REMARK    9  A    between atoms: C21_24  and  C22_25 
REMARK   10  A    between atoms: C22_25  and  O3_26 
REMARK   11  A    between atoms: C25_31  and  O5_32 
REMARK   12  A    between atoms: C27_35  and  O6_36 
REMARK   13  A    between atoms: O6_36  and  C28_37 
ROOT
HETATM    1  C3  UNL     1      20.861 -20.431 -19.689  1.00  0.00    -0.018 C 
HETATM    2  C4  UNL     1      21.785 -20.469 -18.723  1.00  0.00    -0.015 C 
HETATM    3  C5  UNL     1      22.821 -21.443 -18.679  1.00  0.00    -0.054 C 
HETATM    4  C6  UNL     1      22.810 -22.874 -18.652  1.00  0.00     0.049 C 
HETATM    5  C16 UNL     1      21.837 -19.415 -17.653  1.00  0.00    -0.041 C 
HETATM    6  C17 UNL     1      21.674 -19.732 -16.418  1.00  0.00    -0.022 C 
HETATM    7  C18 UNL     1      21.408 -21.048 -15.804  1.00  0.00     0.036 C 
HETATM    8  C19 UNL     1      21.925 -17.920 -17.901  1.00  0.00     0.082 C 
HETATM    9  C20 UNL     1      21.378 -17.186 -16.756  1.00  0.00     0.024 C 
HETATM   10  C21 UNL     1      21.204 -15.701 -17.147  1.00  0.00     0.039 C 
HETATM   11  C23 UNL     1      20.321 -15.688 -18.345  1.00  0.00     0.127 C 
HETATM   12  C24 UNL     1      19.898 -14.298 -18.756  1.00  0.00     0.040 C 
HETATM   13  O4  UNL     1      20.992 -16.312 -19.381  1.00  0.00    -0.349 OA
HETATM   14  C25 UNL     1      21.142 -17.663 -19.210  1.00  0.00     0.172 C 
HETATM   15  C26 UNL     1      19.812 -18.284 -19.119  1.00  0.00     0.106 C 
HETATM   16  C27 UNL     1      19.651 -19.584 -19.921  1.00  0.00     0.171 C 
ENDROOT
BRANCH   1  17
HETATM   17  C2  UNL     1      21.046 -21.438 -20.669  1.00  0.00     0.000 C 
HETATM   18  C1  UNL     1      21.109 -21.192 -21.964  1.00  0.00     0.012 C 
ENDBRANCH   1  17
BRANCH   3  19
HETATM   19  C7  UNL     1      24.130 -20.815 -19.059  1.00  0.00    -0.019 C 
BRANCH  19  20
HETATM   20  C8  UNL     1      24.915 -21.288 -20.197  1.00  0.00     0.030 C 
BRANCH  20  21
HETATM   21  C9  UNL     1      26.277 -21.840 -20.014  1.00  0.00     0.036 C 
BRANCH  21  22
HETATM   22  C10 UNL     1      26.659 -21.694 -18.515  1.00  0.00     0.133 C 
BRANCH  22  23
HETATM   23  O1  UNL     1      27.613 -20.685 -18.456  1.00  0.00    -0.394 OA
ATOM     24  H1  UNL     1      27.236 -19.996 -17.922  1.00  0.00     0.210 HD
ENDBRANCH  22  23
BRANCH  22  25
HETATM   25  C11 UNL     1      27.195 -23.001 -18.014  1.00  0.00     0.038 C 
HETATM   26  C12 UNL     1      28.085 -22.802 -16.816  1.00  0.00     0.025 C 
HETATM   27  C13 UNL     1      27.960 -23.762 -19.061  1.00  0.00     0.025 C 
BRANCH  25  28
HETATM   28  C14 UNL     1      26.061 -23.890 -17.570  1.00  0.00     0.133 C 
HETATM   29  C15 UNL     1      25.383 -23.586 -16.266  1.00  0.00     0.091 C 
HETATM   30  O2  UNL     1      25.667 -24.833 -18.202  1.00  0.00    -0.297 OA
ENDBRANCH  25  28
ENDBRANCH  22  25
ENDBRANCH  21  22
ENDBRANCH  20  21
ENDBRANCH  19  20
ENDBRANCH   3  19
BRANCH  16  31
HETATM   31  O6  UNL     1      18.501 -20.241 -19.380  1.00  0.00    -0.311 OA
BRANCH  31  32
HETATM   32  C28 UNL     1      18.357 -20.840 -18.178  1.00  0.00     0.255 C 
HETATM   33  C29 UNL     1      18.569 -22.321 -17.967  1.00  0.00     0.126 C 
HETATM   34  O7  UNL     1      18.030 -20.146 -17.182  1.00  0.00    -0.266 OA
ENDBRANCH  31  32
ENDBRANCH  16  31
BRANCH  14  35
HETATM   35  O5  UNL     1      21.963 -18.133 -20.226  1.00  0.00    -0.365 OA
ATOM     36  H5  UNL     1      21.657 -17.702 -21.015  1.00  0.00     0.213 HD
ENDBRANCH  14  35
BRANCH  10  37
HETATM   37  C22 UNL     1      20.644 -14.921 -15.982  1.00  0.00     0.171 C 
BRANCH  37  38
HETATM   38  O3  UNL     1      21.629 -14.334 -15.220  1.00  0.00    -0.400 OA
ATOM     39  H3  UNL     1      21.275 -13.810 -14.511  1.00  0.00     0.209 HD
ENDBRANCH  37  38
ENDBRANCH  10  37
TORSDOF 13
ENDMDL
MODEL 4
REMARK VINA RESULT: -4.959933750      3.631      6.441
REMARK  13 active torsions:
REMARK  status: ('A' for Active; 'I' for Inactive)
REMARK    1  A    between atoms: C2_2  and  C3_3 
REMARK    2  A    between atoms: C5_5  and  C7_7 
REMARK    3  A    between atoms: C7_7  and  C8_8 
REMARK    4  A    between atoms: C8_8  and  C9_9 
REMARK    5  A    between atoms: C9_9  and  C10_10 
REMARK    6  A    between atoms: C10_10  and  O1_11 
REMARK    7  A    between atoms: C10_10  and  C11_13 
REMARK    8  A    between atoms: C11_13  and  C14_16 
REMARK    9  A    between atoms: C21_24  and  C22_25 
REMARK   10  A    between atoms: C22_25  and  O3_26 
REMARK   11  A    between atoms: C25_31  and  O5_32 
REMARK   12  A    between atoms: C27_35  and  O6_36 
REMARK   13  A    between atoms: O6_36  and  C28_37 
ROOT
HETATM    1  C3  UNL     1      25.486 -22.322 -20.881  1.00  0.00    -0.018 C 
HETATM    2  C4  UNL     1      25.594 -23.160 -19.844  1.00  0.00    -0.015 C 
HETATM    3  C5  UNL     1      26.688 -24.054 -19.680  1.00  0.00    -0.054 C 
HETATM    4  C6  UNL     1      27.231 -25.089 -20.506  1.00  0.00     0.049 C 
HETATM    5  C16 UNL     1      24.589 -23.149 -18.727  1.00  0.00    -0.041 C 
HETATM    6  C17 UNL     1      23.878 -24.191 -18.479  1.00  0.00    -0.022 C 
HETATM    7  C18 UNL     1      23.852 -25.503 -19.156  1.00  0.00     0.036 C 
HETATM    8  C19 UNL     1      24.205 -21.930 -17.908  1.00  0.00     0.082 C 
HETATM    9  C20 UNL     1      22.858 -22.098 -17.354  1.00  0.00     0.024 C 
HETATM   10  C21 UNL     1      22.375 -20.746 -16.784  1.00  0.00     0.039 C 
HETATM   11  C23 UNL     1      22.443 -19.774 -17.908  1.00  0.00     0.127 C 
HETATM   12  C24 UNL     1      21.833 -18.434 -17.572  1.00  0.00     0.040 C 
HETATM   13  O4  UNL     1      23.770 -19.621 -18.266  1.00  0.00    -0.349 OA
HETATM   14  C25 UNL     1      24.311 -20.725 -18.871  1.00  0.00     0.172 C 
HETATM   15  C26 UNL     1      23.561 -21.010 -20.104  1.00  0.00     0.106 C 
HETATM   16  C27 UNL     1      24.429 -21.361 -21.321  1.00  0.00     0.171 C 
ENDROOT
BRANCH   1  17
HETATM   17  C2  UNL     1      26.589 -22.399 -21.769  1.00  0.00     0.000 C 
HETATM   18  C1  UNL     1      26.963 -21.409 -22.556  1.00  0.00     0.012 C 
ENDBRANCH   1  17
BRANCH   3  19
HETATM   19  C7  UNL     1      27.589 -23.563 -18.585  1.00  0.00    -0.019 C 
BRANCH  19  20
HETATM   20  C8  UNL     1      27.832 -24.342 -17.373  1.00  0.00     0.030 C 
BRANCH  20  21
HETATM   21  C9  UNL     1      26.917 -24.257 -16.210  1.00  0.00     0.036 C 
BRANCH  21  22
HETATM   22  C10 UNL     1      27.551 -23.295 -15.167  1.00  0.00     0.133 C 
BRANCH  22  23
HETATM   23  O1  UNL     1      28.927 -23.439 -15.296  1.00  0.00    -0.394 OA
ATOM     24  H1  UNL     1      29.270 -22.569 -15.461  1.00  0.00     0.210 HD
ENDBRANCH  22  23
BRANCH  22  25
HETATM   25  C11 UNL     1      27.075 -23.672 -13.797  1.00  0.00     0.038 C 
HETATM   26  C12 UNL     1      27.707 -24.957 -13.334  1.00  0.00     0.025 C 
HETATM   27  C13 UNL     1      25.580 -23.812 -13.714  1.00  0.00     0.025 C 
BRANCH  25  28
HETATM   28  C14 UNL     1      27.469 -22.610 -12.801  1.00  0.00     0.133 C 
HETATM   29  C15 UNL     1      26.653 -22.464 -11.551  1.00  0.00     0.091 C 
HETATM   30  O2  UNL     1      28.404 -21.870 -12.951  1.00  0.00    -0.297 OA
ENDBRANCH  25  28
ENDBRANCH  22  25
ENDBRANCH  21  22
ENDBRANCH  20  21
ENDBRANCH  19  20
ENDBRANCH   3  19
BRANCH  16  31
HETATM   31  O6  UNL     1      23.558 -22.008 -22.252  1.00  0.00    -0.311 OA
BRANCH  31  32
HETATM   32  C28 UNL     1      23.270 -21.657 -23.524  1.00  0.00     0.255 C 
HETATM   33  C29 UNL     1      23.796 -20.397 -24.170  1.00  0.00     0.126 C 
HETATM   34  O7  UNL     1      22.529 -22.404 -24.214  1.00  0.00    -0.266 OA
ENDBRANCH  31  32
ENDBRANCH  16  31
BRANCH  14  35
HETATM   35  O5  UNL     1      25.673 -20.501 -19.028  1.00  0.00    -0.365 OA
ATOM     36  H5  UNL     1      25.836 -19.657 -18.624  1.00  0.00     0.213 HD
ENDBRANCH  14  35
BRANCH  10  37
HETATM   37  C22 UNL     1      20.990 -20.894 -16.203  1.00  0.00     0.171 C 
BRANCH  37  38
HETATM   38  O3  UNL     1      20.976 -20.760 -14.833  1.00  0.00    -0.400 OA
ATOM     39  H3  UNL     1      20.901 -19.854 -14.557  1.00  0.00     0.209 HD
ENDBRANCH  37  38
ENDBRANCH  10  37
TORSDOF 13
ENDMDL
MODEL 5
REMARK VINA RESULT: -4.839512952      2.521      7.874
REMARK  13 active torsions:
REMARK  status: ('A' for Active; 'I' for Inactive)
REMARK    1  A    between atoms: C2_2  and  C3_3 
REMARK    2  A    between atoms: C5_5  and  C7_7 
REMARK    3  A    between atoms: C7_7  and  C8_8 
REMARK    4  A    between atoms: C8_8  and  C9_9 
REMARK    5  A    between atoms: C9_9  and  C10_10 
REMARK    6  A    between atoms: C10_10  and  O1_11 
REMARK    7  A    between atoms: C10_10  and  C11_13 
REMARK    8  A    between atoms: C11_13  and  C14_16 
REMARK    9  A    between atoms: C21_24  and  C22_25 
REMARK   10  A    between atoms: C22_25  and  O3_26 
REMARK   11  A    between atoms: C25_31  and  O5_32 
REMARK   12  A    between atoms: C27_35  and  O6_36 
REMARK   13  A    between atoms: O6_36  and  C28_37 
ROOT
HETATM    1  C3  UNL     1      26.079 -22.979 -18.849  1.00  0.00    -0.018 C 
HETATM    2  C4  UNL     1      24.776 -22.696 -18.955  1.00  0.00    -0.015 C 
HETATM    3  C5  UNL     1      23.960 -22.370 -17.837  1.00  0.00    -0.054 C 
HETATM    4  C6  UNL     1      23.657 -23.060 -16.619  1.00  0.00     0.049 C 
HETATM    5  C16 UNL     1      24.103 -22.620 -20.296  1.00  0.00    -0.041 C 
HETATM    6  C17 UNL     1      23.142 -23.423 -20.589  1.00  0.00    -0.022 C 
HETATM    7  C18 UNL     1      22.537 -24.509 -19.791  1.00  0.00     0.036 C 
HETATM    8  C19 UNL     1      24.552 -21.746 -21.453  1.00  0.00     0.082 C 
HETATM    9  C20 UNL     1      24.092 -22.315 -22.724  1.00  0.00     0.024 C 
HETATM   10  C21 UNL     1      24.802 -21.587 -23.887  1.00  0.00     0.039 C 
HETATM   11  C23 UNL     1      26.261 -21.751 -23.650  1.00  0.00     0.127 C 
HETATM   12  C24 UNL     1      27.109 -21.250 -24.795  1.00  0.00     0.040 C 
HETATM   13  O4  UNL     1      26.586 -21.081 -22.484  1.00  0.00    -0.349 OA
HETATM   14  C25 UNL     1      26.092 -21.671 -21.351  1.00  0.00     0.172 C 
HETATM   15  C26 UNL     1      26.647 -23.029 -21.238  1.00  0.00     0.106 C 
HETATM   16  C27 UNL     1      27.118 -23.419 -19.829  1.00  0.00     0.171 C 
ENDROOT
BRANCH   1  17
HETATM   17  C2  UNL     1      26.556 -22.888 -17.517  1.00  0.00     0.000 C 
HETATM   18  C1  UNL     1      27.787 -22.527 -17.207  1.00  0.00     0.012 C 
ENDBRANCH   1  17
BRANCH   3  19
HETATM   19  C7  UNL     1      23.650 -20.901 -17.839  1.00  0.00    -0.019 C 
BRANCH  19  20
HETATM   20  C8  UNL     1      22.532 -20.344 -17.082  1.00  0.00     0.030 C 
BRANCH  20  21
HETATM   21  C9  UNL     1      21.441 -19.603 -17.757  1.00  0.00     0.036 C 
BRANCH  21  22
HETATM   22  C10 UNL     1      22.065 -18.777 -18.916  1.00  0.00     0.133 C 
BRANCH  22  23
HETATM   23  O1  UNL     1      22.120 -17.463 -18.467  1.00  0.00    -0.394 OA
ATOM     24  H1  UNL     1      21.289 -17.069 -18.701  1.00  0.00     0.210 HD
ENDBRANCH  22  23
BRANCH  22  25
HETATM   25  C11 UNL     1      21.205 -18.915 -20.137  1.00  0.00     0.038 C 
HETATM   26  C12 UNL     1      19.788 -18.492 -19.857  1.00  0.00     0.025 C 
HETATM   27  C13 UNL     1      21.191 -20.314 -20.689  1.00  0.00     0.025 C 
BRANCH  25  28
HETATM   28  C14 UNL     1      21.717 -18.018 -21.236  1.00  0.00     0.133 C 
HETATM   29  C15 UNL     1      22.698 -18.583 -22.221  1.00  0.00     0.091 C 
HETATM   30  O2  UNL     1      21.384 -16.871 -21.368  1.00  0.00    -0.297 OA
ENDBRANCH  25  28
ENDBRANCH  22  25
ENDBRANCH  21  22
ENDBRANCH  20  21
ENDBRANCH  19  20
ENDBRANCH   3  19
BRANCH  16  31
HETATM   31  O6  UNL     1      27.203 -24.846 -19.823  1.00  0.00    -0.311 OA
BRANCH  31  32
HETATM   32  C28 UNL     1      28.305 -25.627 -19.845  1.00  0.00     0.255 C 
HETATM   33  C29 UNL     1      28.960 -26.161 -18.593  1.00  0.00     0.126 C 
HETATM   34  O7  UNL     1      28.819 -25.932 -20.952  1.00  0.00    -0.266 OA
ENDBRANCH  31  32
ENDBRANCH  16  31
BRANCH  14  35
HETATM   35  O5  UNL     1      26.347 -20.821 -20.282  1.00  0.00    -0.365 OA
ATOM     36  H5  UNL     1      27.193 -21.092 -19.944  1.00  0.00     0.213 HD
ENDBRANCH  14  35
BRANCH  10  37
HETATM   37  C22 UNL     1      24.342 -22.153 -25.209  1.00  0.00     0.171 C 
BRANCH  37  38
HETATM   38  O3  UNL     1      24.369 -23.529 -25.230  1.00  0.00    -0.400 OA
ATOM     39  H3  UNL     1      25.195 -23.872 -25.551  1.00  0.00     0.209 HD
ENDBRANCH  37  38
ENDBRANCH  10  37
TORSDOF 13
ENDMDL
