MODEL 1
REMARK VINA RESULT: -4.396371841      0.000      0.000
REMARK  3 active torsions:
REMARK  status: ('A' for Active; 'I' for Inactive)
REMARK    1  A    between atoms: N1_1  and  C1_5 
REMARK    2  A    between atoms: C1_5  and  C2_6 
REMARK    3  A    between atoms: C8_12  and  N2_13 
ROOT
HETATM    1  C2  UNL     1      69.869  80.782  27.037  1.00  0.00     0.041 C 
HETATM    2  C3  UNL     1      70.895  81.620  26.307  1.00  0.00     0.008 C 
HETATM    3  C4  UNL     1      72.116  81.892  27.145  1.00  0.00     0.000 C 
HETATM    4  C5  UNL     1      71.771  82.577  28.427  1.00  0.00     0.000 C 
HETATM    5  C6  UNL     1      70.954  81.762  29.370  1.00  0.00     0.002 C 
HETATM    6  C7  UNL     1      71.069  80.283  29.174  1.00  0.00     0.033 C 
HETATM    7  C8  UNL     1      70.604  79.775  27.867  1.00  0.00     0.189 C 
ENDROOT
BRANCH   1   8
HETATM    8  C1  UNL     1      69.011  80.117  25.970  1.00  0.00     0.236 C 
BRANCH   8   9
HETATM    9  N1  UNL     1      69.745  80.249  24.712  1.00  0.00    -0.079 N 
ATOM     10  H13 UNL     1      70.121  81.185  24.559  1.00  0.00     0.274 HD
ATOM     11  H12 UNL     1      70.637  79.754  24.709  1.00  0.00     0.274 HD
ATOM     12  H11 UNL     1      69.109  79.943  23.976  1.00  0.00     0.274 HD
ENDBRANCH   8   9
ENDBRANCH   1   8
BRANCH   7  13
HETATM   13  N2  UNL     1      69.787  78.572  28.096  1.00  0.00    -0.075 N 
ATOM     14  H23 UNL     1      69.272  78.304  27.258  1.00  0.00     0.274 HD
ATOM     15  H22 UNL     1      70.368  77.739  28.196  1.00  0.00     0.274 HD
ATOM     16  H21 UNL     1      69.165  78.692  28.896  1.00  0.00     0.274 HD
ENDBRANCH   7  13
TORSDOF 3
ENDMDL
MODEL 2
REMARK VINA RESULT: -4.387722504      2.104      3.069
REMARK  3 active torsions:
REMARK  status: ('A' for Active; 'I' for Inactive)
REMARK    1  A    between atoms: N1_1  and  C1_5 
REMARK    2  A    between atoms: C1_5  and  C2_6 
REMARK    3  A    between atoms: C8_12  and  N2_13 
ROOT
HETATM    1  C2  UNL     1      71.457  81.627  26.542  1.00  0.00     0.041 C 
HETATM    2  C3  UNL     1      70.150  81.228  25.893  1.00  0.00     0.008 C 
HETATM    3  C4  UNL     1      69.185  80.615  26.873  1.00  0.00     0.000 C 
HETATM    4  C5  UNL     1      69.764  79.415  27.547  1.00  0.00     0.000 C 
HETATM    5  C6  UNL     1      70.929  79.696  28.433  1.00  0.00     0.002 C 
HETATM    6  C7  UNL     1      70.996  81.102  28.944  1.00  0.00     0.033 C 
HETATM    7  C8  UNL     1      71.151  82.148  27.912  1.00  0.00     0.189 C 
ENDROOT
BRANCH   1   8
HETATM    8  C1  UNL     1      72.075  82.697  25.655  1.00  0.00     0.236 C 
BRANCH   8   9
HETATM    9  N1  UNL     1      70.984  83.238  24.844  1.00  0.00    -0.079 N 
ATOM     10  H13 UNL     1      70.135  82.674  24.879  1.00  0.00     0.274 HD
ATOM     11  H12 UNL     1      70.582  84.094  25.224  1.00  0.00     0.274 HD
ATOM     12  H11 UNL     1      71.357  83.350  23.901  1.00  0.00     0.274 HD
ENDBRANCH   8   9
ENDBRANCH   1   8
BRANCH   7  13
HETATM   13  N2  UNL     1      72.176  83.103  28.363  1.00  0.00    -0.075 N 
ATOM     14  H23 UNL     1      71.772  83.845  28.933  1.00  0.00     0.274 HD
ATOM     15  H22 UNL     1      72.793  82.687  29.061  1.00  0.00     0.274 HD
ATOM     16  H21 UNL     1      72.704  83.480  27.576  1.00  0.00     0.274 HD
ENDBRANCH   7  13
TORSDOF 3
ENDMDL
MODEL 3
REMARK VINA RESULT: -4.229370511      2.338      3.596
REMARK  3 active torsions:
REMARK  status: ('A' for Active; 'I' for Inactive)
REMARK    1  A    between atoms: N1_1  and  C1_5 
REMARK    2  A    between atoms: C1_5  and  C2_6 
REMARK    3  A    between atoms: C8_12  and  N2_13 
ROOT
HETATM    1  C2  UNL     1      69.951  80.471  24.425  1.00  0.00     0.041 C 
HETATM    2  C3  UNL     1      69.108  79.757  25.458  1.00  0.00     0.008 C 
HETATM    3  C4  UNL     1      69.052  80.501  26.766  1.00  0.00     0.000 C 
HETATM    4  C5  UNL     1      70.413  80.725  27.339  1.00  0.00     0.000 C 
HETATM    5  C6  UNL     1      71.287  81.626  26.537  1.00  0.00     0.002 C 
HETATM    6  C7  UNL     1      70.550  82.573  25.642  1.00  0.00     0.033 C 
HETATM    7  C8  UNL     1      69.730  81.943  24.587  1.00  0.00     0.189 C 
ENDROOT
BRANCH   1   8
HETATM    8  C1  UNL     1      69.484  79.975  23.064  1.00  0.00     0.236 C 
BRANCH   8   9
HETATM    9  N1  UNL     1      70.480  79.001  22.619  1.00  0.00    -0.079 N 
ATOM     10  H13 UNL     1      70.730  78.321  23.336  1.00  0.00     0.274 HD
ATOM     11  H12 UNL     1      70.119  78.336  21.936  1.00  0.00     0.274 HD
ATOM     12  H11 UNL     1      71.274  79.541  22.277  1.00  0.00     0.274 HD
ENDBRANCH   8   9
ENDBRANCH   1   8
BRANCH   7  13
HETATM   13  N2  UNL     1      69.960  82.661  23.323  1.00  0.00    -0.075 N 
ATOM     14  H23 UNL     1      69.609  82.135  22.523  1.00  0.00     0.274 HD
ATOM     15  H22 UNL     1      69.361  83.483  23.245  1.00  0.00     0.274 HD
ATOM     16  H21 UNL     1      70.944  82.904  23.208  1.00  0.00     0.274 HD
ENDBRANCH   7  13
TORSDOF 3
ENDMDL
MODEL 4
REMARK VINA RESULT: -4.192532815      5.494      6.718
REMARK  3 active torsions:
REMARK  status: ('A' for Active; 'I' for Inactive)
REMARK    1  A    between atoms: N1_1  and  C1_5 
REMARK    2  A    between atoms: C1_5  and  C2_6 
REMARK    3  A    between atoms: C8_12  and  N2_13 
ROOT
HETATM    1  C2  UNL     1      71.594  79.974  33.268  1.00  0.00     0.041 C 
HETATM    2  C3  UNL     1      71.735  79.832  31.768  1.00  0.00     0.008 C 
HETATM    3  C4  UNL     1      70.501  79.251  31.129  1.00  0.00     0.000 C 
HETATM    4  C5  UNL     1      70.154  77.916  31.700  1.00  0.00     0.000 C 
HETATM    5  C6  UNL     1      69.748  77.936  33.134  1.00  0.00     0.002 C 
HETATM    6  C7  UNL     1      69.224  79.253  33.613  1.00  0.00     0.033 C 
HETATM    7  C8  UNL     1      70.182  80.376  33.563  1.00  0.00     0.189 C 
ENDROOT
BRANCH   1   8
HETATM    8  C1  UNL     1      72.589  81.042  33.699  1.00  0.00     0.236 C 
BRANCH   8   9
HETATM    9  N1  UNL     1      73.856  80.351  33.935  1.00  0.00    -0.079 N 
ATOM     10  H13 UNL     1      73.847  79.376  33.637  1.00  0.00     0.274 HD
ATOM     11  H12 UNL     1      74.608  80.663  33.322  1.00  0.00     0.274 HD
ATOM     12  H11 UNL     1      74.066  80.470  34.926  1.00  0.00     0.274 HD
ENDBRANCH   8   9
ENDBRANCH   1   8
BRANCH   7  13
HETATM   13  N2  UNL     1      70.092  81.127  34.826  1.00  0.00    -0.075 N 
ATOM     14  H23 UNL     1      70.942  81.662  35.005  1.00  0.00     0.274 HD
ATOM     15  H22 UNL     1      69.431  81.900  34.755  1.00  0.00     0.274 HD
ATOM     16  H21 UNL     1      69.866  80.511  35.607  1.00  0.00     0.274 HD
ENDBRANCH   7  13
TORSDOF 3
ENDMDL
MODEL 5
REMARK VINA RESULT: -4.185765056      2.163      3.714
REMARK  3 active torsions:
REMARK  status: ('A' for Active; 'I' for Inactive)
REMARK    1  A    between atoms: N1_1  and  C1_5 
REMARK    2  A    between atoms: C1_5  and  C2_6 
REMARK    3  A    between atoms: C8_12  and  N2_13 
ROOT
HETATM    1  C2  UNL     1      70.700  81.047  26.250  1.00  0.00     0.041 C 
HETATM    2  C3  UNL     1      70.613  82.441  25.670  1.00  0.00     0.008 C 
HETATM    3  C4  UNL     1      69.730  82.501  24.451  1.00  0.00     0.000 C 
HETATM    4  C5  UNL     1      70.196  81.572  23.379  1.00  0.00     0.000 C 
HETATM    5  C6  UNL     1      70.105  80.125  23.725  1.00  0.00     0.002 C 
HETATM    6  C7  UNL     1      69.100  79.801  24.785  1.00  0.00     0.033 C 
HETATM    7  C8  UNL     1      69.355  80.404  26.110  1.00  0.00     0.189 C 
ENDROOT
BRANCH   1   8
HETATM    8  C1  UNL     1      71.101  81.207  27.709  1.00  0.00     0.236 C 
BRANCH   8   9
HETATM    9  N1  UNL     1      71.980  82.375  27.767  1.00  0.00    -0.079 N 
ATOM     10  H13 UNL     1      72.965  82.135  27.873  1.00  0.00     0.274 HD
ATOM     11  H12 UNL     1      72.064  82.863  26.876  1.00  0.00     0.274 HD
ATOM     12  H11 UNL     1      71.624  82.964  28.520  1.00  0.00     0.274 HD
ENDBRANCH   8   9
ENDBRANCH   1   8
BRANCH   7  13
HETATM   13  N2  UNL     1      69.143  79.376  27.142  1.00  0.00    -0.075 N 
ATOM     14  H23 UNL     1      68.890  79.792  28.038  1.00  0.00     0.274 HD
ATOM     15  H22 UNL     1      68.289  78.844  26.969  1.00  0.00     0.274 HD
ATOM     16  H21 UNL     1      69.954  78.764  27.228  1.00  0.00     0.274 HD
ENDBRANCH   7  13
TORSDOF 3
ENDMDL
