MODEL 1
REMARK VINA RESULT: -10.035872422      0.000      0.000
REMARK  8 active torsions:
REMARK  status: ('A' for Active; 'I' for Inactive)
REMARK    1  A    between atoms: C1_2  and  C2_4 
REMARK    2  A    between atoms: N2_8  and  C6_9 
REMARK    3  A    between atoms: C6_9  and  C7_10 
REMARK    4  A    between atoms: N3_11  and  C8_13 
REMARK    5  A    between atoms: C11_20  and  C12_21 
REMARK    6  A    between atoms: C12_21  and  C13_23 
REMARK    7  A    between atoms: C13_23  and  S1_24 
REMARK    8  A    between atoms: S1_24  and  C14_25 
ROOT
HETATM    1  C8  UNL     1      22.361  -2.974  16.462  1.00  0.00     0.048 A 
HETATM    2  C9  UNL     1      22.111  -2.019  17.423  1.00  0.00     0.119 A 
HETATM    3  N4  UNL     1      21.822  -2.350  18.692  1.00  0.00    -0.349 N 
ATOM      4  H4  UNL     1      21.644  -1.606  19.368  1.00  0.00     0.167 HD
HETATM    5  C10 UNL     1      21.757  -3.645  19.106  1.00  0.00     0.116 A 
HETATM    6  N5  UNL     1      21.494  -4.210  20.299  1.00  0.00    -0.339 N 
ATOM      7  H5  UNL     1      21.282  -3.694  21.153  1.00  0.00     0.167 HD
HETATM    8  C11 UNL     1      21.552  -5.568  20.206  1.00  0.00     0.081 A 
HETATM    9  C21 UNL     1      21.868  -5.817  18.879  1.00  0.00     0.048 A 
HETATM   10  C22 UNL     1      22.000  -4.636  18.181  1.00  0.00     0.013 A 
HETATM   11  C23 UNL     1      22.299  -4.286  16.868  1.00  0.00     0.046 A 
ENDROOT
BRANCH   8  12
HETATM   12  C12 UNL     1      21.334  -6.524  21.278  1.00  0.00     0.185 C 
HETATM   13  O2  UNL     1      20.337  -7.276  21.216  1.00  0.00    -0.290 OA
BRANCH  12  14
HETATM   14  C13 UNL     1      22.257  -6.614  22.414  1.00  0.00     0.166 C 
BRANCH  14  15
HETATM   15  S1  UNL     1      21.781  -5.519  23.777  1.00  0.00    -0.097 SA
BRANCH  15  16
HETATM   16  C14 UNL     1      20.102  -5.980  24.265  1.00  0.00     0.113 A 
HETATM   17  N6  UNL     1      18.976  -5.780  23.603  1.00  0.00    -0.344 N 
HETATM   18  C15 UNL     1      17.842  -6.184  24.108  1.00  0.00     0.050 A 
ATOM     19  H6  UNL     1      18.993  -5.311  22.697  1.00  0.00     0.167 HD
HETATM   20  C16 UNL     1      16.572  -6.036  23.508  1.00  0.00     0.032 A 
HETATM   21  C20 UNL     1      17.882  -6.808  25.326  1.00  0.00     0.035 A 
HETATM   22  C17 UNL     1      15.468  -6.503  24.140  1.00  0.00     0.026 A 
HETATM   23  C18 UNL     1      15.488  -7.131  25.359  1.00  0.00     0.035 A 
HETATM   24 CL1  UNL     1      14.014  -7.688  26.072  1.00  0.00    -0.084 Cl
HETATM   25  C19 UNL     1      16.718  -7.281  25.956  1.00  0.00     0.045 A 
HETATM   26  S2  UNL     1      19.555  -6.777  25.674  1.00  0.00    -0.063 SA
ENDBRANCH  15  16
ENDBRANCH  14  15
ENDBRANCH  12  14
ENDBRANCH   8  12
BRANCH   1  27
HETATM   27  N3  UNL     1      22.669  -2.656  15.133  1.00  0.00    -0.367 N 
HETATM   28  C7  UNL     1      23.287  -1.630  14.709  1.00  0.00     0.091 C 
ATOM     29  H3  UNL     1      22.361  -3.322  14.425  1.00  0.00     0.165 HD
BRANCH  28  30
HETATM   30  C6  UNL     1      23.577  -1.357  13.287  1.00  0.00     0.317 C 
BRANCH  30  31
HETATM   31  N2  UNL     1      23.791  -2.533  12.512  1.00  0.00     0.093 N 
HETATM   32  C5  UNL     1      23.405  -2.473  11.143  1.00  0.00     0.273 C 
HETATM   33  C4  UNL     1      23.659  -3.819  10.517  1.00  0.00     0.031 C 
HETATM   34  C3  UNL     1      25.062  -4.035  10.076  1.00  0.00     0.015 C 
HETATM   35  C2  UNL     1      25.990  -2.888  10.269  1.00  0.00     0.076 C 
HETATM   36  C25 UNL     1      26.030  -2.380  11.686  1.00  0.00     0.044 C 
HETATM   37  C24 UNL     1      25.108  -3.100  12.616  1.00  0.00     0.273 C 
BRANCH  35  38
HETATM   38  C1  UNL     1      27.361  -3.308   9.892  1.00  0.00     0.235 C 
HETATM   39  N1  UNL     1      28.400  -3.370  10.842  1.00  0.00    -0.062 NA
HETATM   40  O1  UNL     1      27.610  -3.616   8.702  1.00  0.00    -0.277 OA
ENDBRANCH  35  38
ENDBRANCH  30  31
ENDBRANCH  28  30
ENDBRANCH   1  27
TORSDOF 8
ENDMDL
MODEL 2
REMARK VINA RESULT: -9.892339623      1.633      1.926
REMARK  8 active torsions:
REMARK  status: ('A' for Active; 'I' for Inactive)
REMARK    1  A    between atoms: C1_2  and  C2_4 
REMARK    2  A    between atoms: N2_8  and  C6_9 
REMARK    3  A    between atoms: C6_9  and  C7_10 
REMARK    4  A    between atoms: N3_11  and  C8_13 
REMARK    5  A    between atoms: C11_20  and  C12_21 
REMARK    6  A    between atoms: C12_21  and  C13_23 
REMARK    7  A    between atoms: C13_23  and  S1_24 
REMARK    8  A    between atoms: S1_24  and  C14_25 
ROOT
HETATM    1  C8  UNL     1      22.345  -3.431  16.200  1.00  0.00     0.048 A 
HETATM    2  C9  UNL     1      22.283  -2.369  17.077  1.00  0.00     0.119 A 
HETATM    3  N4  UNL     1      22.075  -2.547  18.392  1.00  0.00    -0.349 N 
ATOM      4  H4  UNL     1      22.038  -1.730  19.001  1.00  0.00     0.167 HD
HETATM    5  C10 UNL     1      21.913  -3.783  18.938  1.00  0.00     0.116 A 
HETATM    6  N5  UNL     1      21.700  -4.203  20.199  1.00  0.00    -0.339 N 
ATOM      7  H5  UNL     1      21.620  -3.591  21.010  1.00  0.00     0.167 HD
HETATM    8  C11 UNL     1      21.607  -5.562  20.240  1.00  0.00     0.081 A 
HETATM    9  C21 UNL     1      21.776  -5.966  18.924  1.00  0.00     0.048 A 
HETATM   10  C22 UNL     1      21.967  -4.877  18.102  1.00  0.00     0.013 A 
HETATM   11  C23 UNL     1      22.183  -4.684  16.741  1.00  0.00     0.046 A 
ENDROOT
BRANCH   8  12
HETATM   12  C12 UNL     1      21.387  -6.385  21.416  1.00  0.00     0.185 C 
HETATM   13  O2  UNL     1      20.360  -7.097  21.466  1.00  0.00    -0.290 OA
BRANCH  12  14
HETATM   14  C13 UNL     1      22.342  -6.389  22.529  1.00  0.00     0.166 C 
BRANCH  14  15
HETATM   15  S1  UNL     1      21.823  -5.309  23.888  1.00  0.00    -0.097 SA
BRANCH  15  16
HETATM   16  C14 UNL     1      20.162  -5.832  24.375  1.00  0.00     0.113 A 
HETATM   17  N6  UNL     1      19.014  -5.558  23.782  1.00  0.00    -0.344 N 
HETATM   18  C15 UNL     1      17.898  -6.024  24.274  1.00  0.00     0.050 A 
ATOM     19  H6  UNL     1      18.999  -4.983  22.940  1.00  0.00     0.167 HD
HETATM   20  C16 UNL     1      16.608  -5.810  23.741  1.00  0.00     0.032 A 
HETATM   21  C20 UNL     1      17.981  -6.791  25.406  1.00  0.00     0.035 A 
HETATM   22  C17 UNL     1      15.527  -6.354  24.350  1.00  0.00     0.026 A 
HETATM   23  C18 UNL     1      15.590  -7.125  25.484  1.00  0.00     0.035 A 
HETATM   24 CL1  UNL     1      14.141  -7.769  26.175  1.00  0.00    -0.084 Cl
HETATM   25  C19 UNL     1      16.840  -7.341  26.014  1.00  0.00     0.045 A 
HETATM   26  S2  UNL     1      19.665  -6.795  25.696  1.00  0.00    -0.063 SA
ENDBRANCH  15  16
ENDBRANCH  14  15
ENDBRANCH  12  14
ENDBRANCH   8  12
BRANCH   1  27
HETATM   27  N3  UNL     1      22.564  -3.272  14.826  1.00  0.00    -0.367 N 
HETATM   28  C7  UNL     1      23.385  -3.911  14.097  1.00  0.00     0.091 C 
ATOM     29  H3  UNL     1      22.001  -2.562  14.358  1.00  0.00     0.165 HD
BRANCH  28  30
HETATM   30  C6  UNL     1      23.564  -3.691  12.648  1.00  0.00     0.317 C 
BRANCH  30  31
HETATM   31  N2  UNL     1      24.800  -3.063  12.316  1.00  0.00     0.093 N 
HETATM   32  C5  UNL     1      25.374  -3.412  11.060  1.00  0.00     0.273 C 
HETATM   33  C4  UNL     1      26.689  -2.691  10.922  1.00  0.00     0.031 C 
HETATM   34  C3  UNL     1      26.573  -1.290  10.439  1.00  0.00     0.015 C 
HETATM   35  C2  UNL     1      25.196  -0.822  10.121  1.00  0.00     0.076 C 
HETATM   36  C25 UNL     1      24.225  -0.996  11.258  1.00  0.00     0.044 C 
HETATM   37  C24 UNL     1      24.818  -1.634  12.473  1.00  0.00     0.273 C 
BRANCH  35  38
HETATM   38  C1  UNL     1      25.245   0.618   9.773  1.00  0.00     0.235 C 
HETATM   39  N1  UNL     1      25.974   1.540  10.551  1.00  0.00    -0.062 NA
HETATM   40  O1  UNL     1      24.625   1.033   8.765  1.00  0.00    -0.277 OA
ENDBRANCH  35  38
ENDBRANCH  30  31
ENDBRANCH  28  30
ENDBRANCH   1  27
TORSDOF 8
ENDMDL
MODEL 3
REMARK VINA RESULT: -9.750777083      1.454      1.936
REMARK  8 active torsions:
REMARK  status: ('A' for Active; 'I' for Inactive)
REMARK    1  A    between atoms: C1_2  and  C2_4 
REMARK    2  A    between atoms: N2_8  and  C6_9 
REMARK    3  A    between atoms: C6_9  and  C7_10 
REMARK    4  A    between atoms: N3_11  and  C8_13 
REMARK    5  A    between atoms: C11_20  and  C12_21 
REMARK    6  A    between atoms: C12_21  and  C13_23 
REMARK    7  A    between atoms: C13_23  and  S1_24 
REMARK    8  A    between atoms: S1_24  and  C14_25 
ROOT
HETATM    1  C8  UNL     1      22.341  -2.916  16.438  1.00  0.00     0.048 A 
HETATM    2  C9  UNL     1      22.085  -1.961  17.399  1.00  0.00     0.119 A 
HETATM    3  N4  UNL     1      21.811  -2.292  18.671  1.00  0.00    -0.349 N 
ATOM      4  H4  UNL     1      21.628  -1.549  19.346  1.00  0.00     0.167 HD
HETATM    5  C10 UNL     1      21.768  -3.587  19.089  1.00  0.00     0.116 A 
HETATM    6  N5  UNL     1      21.522  -4.152  20.286  1.00  0.00    -0.339 N 
ATOM      7  H5  UNL     1      21.309  -3.637  21.140  1.00  0.00     0.167 HD
HETATM    8  C11 UNL     1      21.599  -5.509  20.197  1.00  0.00     0.081 A 
HETATM    9  C21 UNL     1      21.909  -5.758  18.868  1.00  0.00     0.048 A 
HETATM   10  C22 UNL     1      22.017  -4.578  18.166  1.00  0.00     0.013 A 
HETATM   11  C23 UNL     1      22.302  -4.227  16.849  1.00  0.00     0.046 A 
ENDROOT
BRANCH   8  12
HETATM   12  C12 UNL     1      21.403  -6.465  21.273  1.00  0.00     0.185 C 
HETATM   13  O2  UNL     1      20.349  -7.137  21.293  1.00  0.00    -0.290 OA
BRANCH  12  14
HETATM   14  C13 UNL     1      22.414  -6.646  22.320  1.00  0.00     0.166 C 
BRANCH  14  15
HETATM   15  S1  UNL     1      22.292  -5.390  23.622  1.00  0.00    -0.097 SA
BRANCH  15  16
HETATM   16  C14 UNL     1      21.062  -5.978  24.810  1.00  0.00     0.113 A 
HETATM   17  N6  UNL     1      21.250  -6.339  26.067  1.00  0.00    -0.344 N 
HETATM   18  C15 UNL     1      20.239  -6.740  26.789  1.00  0.00     0.050 A 
ATOM     19  H6  UNL     1      22.185  -6.304  26.474  1.00  0.00     0.167 HD
HETATM   20  C16 UNL     1      20.299  -7.150  28.138  1.00  0.00     0.032 A 
HETATM   21  C20 UNL     1      19.008  -6.765  26.188  1.00  0.00     0.035 A 
HETATM   22  C17 UNL     1      19.171  -7.544  28.776  1.00  0.00     0.026 A 
HETATM   23  C18 UNL     1      17.929  -7.576  28.192  1.00  0.00     0.035 A 
HETATM   24 CL1  UNL     1      16.556  -8.097  29.105  1.00  0.00    -0.084 Cl
HETATM   25  C19 UNL     1      17.856  -7.179  26.877  1.00  0.00     0.045 A 
HETATM   26  S2  UNL     1      19.381  -6.209  24.616  1.00  0.00    -0.063 SA
ENDBRANCH  15  16
ENDBRANCH  14  15
ENDBRANCH  12  14
ENDBRANCH   8  12
BRANCH   1  27
HETATM   27  N3  UNL     1      22.634  -2.597  15.106  1.00  0.00    -0.367 N 
HETATM   28  C7  UNL     1      23.325  -1.620  14.680  1.00  0.00     0.091 C 
ATOM     29  H3  UNL     1      22.249  -3.221  14.397  1.00  0.00     0.165 HD
BRANCH  28  30
HETATM   30  C6  UNL     1      23.593  -1.343  13.256  1.00  0.00     0.317 C 
BRANCH  30  31
HETATM   31  N2  UNL     1      23.800  -2.517  12.475  1.00  0.00     0.093 N 
HETATM   32  C5  UNL     1      23.423  -2.446  11.104  1.00  0.00     0.273 C 
HETATM   33  C4  UNL     1      23.668  -3.791  10.473  1.00  0.00     0.031 C 
HETATM   34  C3  UNL     1      25.071  -4.018  10.038  1.00  0.00     0.015 C 
HETATM   35  C2  UNL     1      26.009  -2.881  10.243  1.00  0.00     0.076 C 
HETATM   36  C25 UNL     1      26.045  -2.381  11.663  1.00  0.00     0.044 C 
HETATM   37  C24 UNL     1      25.111  -3.097  12.584  1.00  0.00     0.273 C 
BRANCH  35  38
HETATM   38  C1  UNL     1      27.378  -3.312   9.872  1.00  0.00     0.235 C 
HETATM   39  N1  UNL     1      28.398  -3.440  10.837  1.00  0.00    -0.062 NA
HETATM   40  O1  UNL     1      27.643  -3.570   8.673  1.00  0.00    -0.277 OA
ENDBRANCH  35  38
ENDBRANCH  30  31
ENDBRANCH  28  30
ENDBRANCH   1  27
TORSDOF 8
ENDMDL
MODEL 4
REMARK VINA RESULT: -9.743929233      1.302      1.372
REMARK  8 active torsions:
REMARK  status: ('A' for Active; 'I' for Inactive)
REMARK    1  A    between atoms: C1_2  and  C2_4 
REMARK    2  A    between atoms: N2_8  and  C6_9 
REMARK    3  A    between atoms: C6_9  and  C7_10 
REMARK    4  A    between atoms: N3_11  and  C8_13 
REMARK    5  A    between atoms: C11_20  and  C12_21 
REMARK    6  A    between atoms: C12_21  and  C13_23 
REMARK    7  A    between atoms: C13_23  and  S1_24 
REMARK    8  A    between atoms: S1_24  and  C14_25 
ROOT
HETATM    1  C8  UNL     1      22.246  -3.500  15.762  1.00  0.00     0.048 A 
HETATM    2  C9  UNL     1      22.784  -2.432  16.448  1.00  0.00     0.119 A 
HETATM    3  N4  UNL     1      23.001  -2.479  17.772  1.00  0.00    -0.349 N 
ATOM      4  H4  UNL     1      23.401  -1.663  18.236  1.00  0.00     0.167 HD
HETATM    5  C10 UNL     1      22.704  -3.579  18.517  1.00  0.00     0.116 A 
HETATM    6  N5  UNL     1      22.832  -3.856  19.827  1.00  0.00    -0.339 N 
ATOM      7  H5  UNL     1      23.207  -3.213  20.524  1.00  0.00     0.167 HD
HETATM    8  C11 UNL     1      22.389  -5.117  20.094  1.00  0.00     0.081 A 
HETATM    9  C21 UNL     1      21.977  -5.612  18.866  1.00  0.00     0.048 A 
HETATM   10  C22 UNL     1      22.164  -4.672  17.875  1.00  0.00     0.013 A 
HETATM   11  C23 UNL     1      21.942  -4.617  16.503  1.00  0.00     0.046 A 
ENDROOT
BRANCH   8  12
HETATM   12  C12 UNL     1      22.370  -5.779  21.387  1.00  0.00     0.185 C 
HETATM   13  O2  UNL     1      21.828  -6.902  21.477  1.00  0.00    -0.290 OA
BRANCH  12  14
HETATM   14  C13 UNL     1      22.972  -5.152  22.568  1.00  0.00     0.166 C 
BRANCH  14  15
HETATM   15  S1  UNL     1      22.898  -6.222  24.029  1.00  0.00    -0.097 SA
BRANCH  15  16
HETATM   16  C14 UNL     1      21.185  -6.213  24.607  1.00  0.00     0.113 A 
HETATM   17  N6  UNL     1      20.124  -5.705  24.005  1.00  0.00    -0.344 N 
HETATM   18  C15 UNL     1      18.950  -5.789  24.570  1.00  0.00     0.050 A 
ATOM     19  H6  UNL     1      20.222  -5.246  23.099  1.00  0.00     0.167 HD
HETATM   20  C16 UNL     1      17.741  -5.293  24.038  1.00  0.00     0.032 A 
HETATM   21  C20 UNL     1      18.881  -6.416  25.786  1.00  0.00     0.035 A 
HETATM   22  C17 UNL     1      16.585  -5.447  24.729  1.00  0.00     0.026 A 
HETATM   23  C18 UNL     1      16.495  -6.072  25.947  1.00  0.00     0.035 A 
HETATM   24 CL1  UNL     1      14.963  -6.214  26.737  1.00  0.00    -0.084 Cl
HETATM   25  C19 UNL     1      17.667  -6.560  26.477  1.00  0.00     0.045 A 
HETATM   26  S2  UNL     1      20.514  -6.847  26.044  1.00  0.00    -0.063 SA
ENDBRANCH  15  16
ENDBRANCH  14  15
ENDBRANCH  12  14
ENDBRANCH   8  12
BRANCH   1  27
HETATM   27  N3  UNL     1      22.013  -3.478  14.380  1.00  0.00    -0.367 N 
HETATM   28  C7  UNL     1      22.595  -2.758  13.511  1.00  0.00     0.091 C 
ATOM     29  H3  UNL     1      21.295  -4.113  14.033  1.00  0.00     0.165 HD
BRANCH  28  30
HETATM   30  C6  UNL     1      22.298  -2.787  12.066  1.00  0.00     0.317 C 
BRANCH  30  31
HETATM   31  N2  UNL     1      23.121  -3.689  11.332  1.00  0.00     0.093 N 
HETATM   32  C5  UNL     1      23.115  -3.549   9.915  1.00  0.00     0.273 C 
HETATM   33  C4  UNL     1      23.997  -4.618   9.327  1.00  0.00     0.031 C 
HETATM   34  C3  UNL     1      25.445  -4.282   9.317  1.00  0.00     0.015 C 
HETATM   35  C2  UNL     1      25.805  -2.935   9.839  1.00  0.00     0.076 C 
HETATM   36  C25 UNL     1      25.282  -2.670  11.227  1.00  0.00     0.044 C 
HETATM   37  C24 UNL     1      24.477  -3.792  11.798  1.00  0.00     0.273 C 
BRANCH  35  38
HETATM   38  C1  UNL     1      27.281  -2.809   9.871  1.00  0.00     0.235 C 
HETATM   39  N1  UNL     1      28.119  -3.834   9.385  1.00  0.00    -0.062 NA
HETATM   40  O1  UNL     1      27.805  -1.770  10.339  1.00  0.00    -0.277 OA
ENDBRANCH  35  38
ENDBRANCH  30  31
ENDBRANCH  28  30
ENDBRANCH   1  27
TORSDOF 8
ENDMDL
MODEL 5
REMARK VINA RESULT: -9.710372742      1.348      1.612
REMARK  8 active torsions:
REMARK  status: ('A' for Active; 'I' for Inactive)
REMARK    1  A    between atoms: C1_2  and  C2_4 
REMARK    2  A    between atoms: N2_8  and  C6_9 
REMARK    3  A    between atoms: C6_9  and  C7_10 
REMARK    4  A    between atoms: N3_11  and  C8_13 
REMARK    5  A    between atoms: C11_20  and  C12_21 
REMARK    6  A    between atoms: C12_21  and  C13_23 
REMARK    7  A    between atoms: C13_23  and  S1_24 
REMARK    8  A    between atoms: S1_24  and  C14_25 
ROOT
HETATM    1  C8  UNL     1      22.673  -2.931  16.397  1.00  0.00     0.048 A 
HETATM    2  C9  UNL     1      22.210  -4.159  15.975  1.00  0.00     0.119 A 
HETATM    3  N4  UNL     1      21.962  -5.157  16.838  1.00  0.00    -0.349 N 
ATOM      4  H4  UNL     1      21.621  -6.048  16.478  1.00  0.00     0.167 HD
HETATM    5  C10 UNL     1      22.152  -5.019  18.179  1.00  0.00     0.116 A 
HETATM    6  N5  UNL     1      21.976  -5.856  19.217  1.00  0.00    -0.339 N 
ATOM      7  H5  UNL     1      21.640  -6.816  19.140  1.00  0.00     0.167 HD
HETATM    8  C11 UNL     1      22.308  -5.242  20.388  1.00  0.00     0.081 A 
HETATM    9  C21 UNL     1      22.703  -3.967  20.016  1.00  0.00     0.048 A 
HETATM   10  C22 UNL     1      22.614  -3.809  18.649  1.00  0.00     0.013 A 
HETATM   11  C23 UNL     1      22.868  -2.779  17.749  1.00  0.00     0.046 A 
ENDROOT
BRANCH   8  12
HETATM   12  C12 UNL     1      22.245  -5.816  21.721  1.00  0.00     0.185 C 
HETATM   13  O2  UNL     1      21.765  -6.962  21.857  1.00  0.00    -0.290 OA
BRANCH  12  14
HETATM   14  C13 UNL     1      22.731  -5.075  22.889  1.00  0.00     0.166 C 
BRANCH  14  15
HETATM   15  S1  UNL     1      22.586  -6.032  24.422  1.00  0.00    -0.097 SA
BRANCH  15  16
HETATM   16  C14 UNL     1      20.824  -6.137  24.815  1.00  0.00     0.113 A 
HETATM   17  N6  UNL     1      19.801  -5.704  24.099  1.00  0.00    -0.344 N 
HETATM   18  C15 UNL     1      18.583  -5.865  24.539  1.00  0.00     0.050 A 
ATOM     19  H6  UNL     1      19.964  -5.243  23.204  1.00  0.00     0.167 HD
HETATM   20  C16 UNL     1      17.406  -5.454  23.877  1.00  0.00     0.032 A 
HETATM   21  C20 UNL     1      18.428  -6.491  25.748  1.00  0.00     0.035 A 
HETATM   22  C17 UNL     1      16.196  -5.684  24.444  1.00  0.00     0.026 A 
HETATM   23  C18 UNL     1      16.021  -6.309  25.653  1.00  0.00     0.035 A 
HETATM   24 CL1  UNL     1      14.427  -6.550  26.279  1.00  0.00    -0.084 Cl
HETATM   25  C19 UNL     1      17.159  -6.714  26.309  1.00  0.00     0.045 A 
HETATM   26  S2  UNL     1      20.050  -6.809  26.181  1.00  0.00    -0.063 SA
ENDBRANCH  15  16
ENDBRANCH  14  15
ENDBRANCH  12  14
ENDBRANCH   8  12
BRANCH   1  27
HETATM   27  N3  UNL     1      22.935  -1.872  15.517  1.00  0.00    -0.367 N 
HETATM   28  C7  UNL     1      23.868  -1.796  14.658  1.00  0.00     0.091 C 
ATOM     29  H3  UNL     1      22.306  -1.072  15.573  1.00  0.00     0.165 HD
BRANCH  28  30
HETATM   30  C6  UNL     1      24.086  -0.645  13.761  1.00  0.00     0.317 C 
BRANCH  30  31
HETATM   31  N2  UNL     1      23.803  -0.926  12.393  1.00  0.00     0.093 N 
HETATM   32  C5  UNL     1      24.392  -0.059  11.429  1.00  0.00     0.273 C 
HETATM   33  C4  UNL     1      23.932  -0.487  10.060  1.00  0.00     0.031 C 
HETATM   34  C3  UNL     1      24.713  -1.609   9.475  1.00  0.00     0.015 C 
HETATM   35  C2  UNL     1      25.851  -2.109  10.294  1.00  0.00     0.076 C 
HETATM   36  C25 UNL     1      25.455  -2.507  11.691  1.00  0.00     0.044 C 
HETATM   37  C24 UNL     1      24.008  -2.294  11.998  1.00  0.00     0.273 C 
BRANCH  35  38
HETATM   38  C1  UNL     1      26.441  -3.293   9.627  1.00  0.00     0.235 C 
HETATM   39  N1  UNL     1      27.836  -3.434   9.474  1.00  0.00    -0.062 NA
HETATM   40  O1  UNL     1      25.690  -4.196   9.186  1.00  0.00    -0.277 OA
ENDBRANCH  35  38
ENDBRANCH  30  31
ENDBRANCH  28  30
ENDBRANCH   1  27
TORSDOF 8
ENDMDL
