MODEL 1
REMARK VINA RESULT: -7.574847009      0.000      0.000
REMARK  8 active torsions:
REMARK  status: ('A' for Active; 'I' for Inactive)
REMARK    1  A    between atoms: C2_2  and  O1_3 
REMARK    2  A    between atoms: O1_3  and  C3_4 
REMARK    3  A    between atoms: C3_4  and  N1_5 
REMARK    4  A    between atoms: C3_4  and  C9_19 
REMARK       I    between atoms: N1_5  and  C4_7 
REMARK    5  A    between atoms: C4_7  and  C5_9 
REMARK    6  A    between atoms: C11_21  and  C12_22 
REMARK    7  A    between atoms: C12_22  and  O4_24 
REMARK    8  A    between atoms: C16_32  and  O7_33 
ROOT
HETATM    1  C3  UNL     1     -16.536  -9.315  15.902  1.00  0.00     0.260 C 
ENDROOT
BRANCH   1   2
HETATM    2  O1  UNL     1     -16.782  -8.927  14.623  1.00  0.00    -0.363 OA
BRANCH   2   3
HETATM    3  C2  UNL     1     -17.612  -7.804  14.620  1.00  0.00     0.166 C 
HETATM    4  C1  UNL     1     -16.848  -6.545  14.264  1.00  0.00     0.033 C 
ENDBRANCH   2   3
ENDBRANCH   1   2
BRANCH   1   5
HETATM    5  N1  UNL     1     -16.616 -10.786  15.996  1.00  0.00    -0.329 N 
HETATM    6  C4  UNL     1     -17.537 -11.475  16.794  1.00  0.00     0.252 C 
HETATM    7  O2  UNL     1     -18.357 -10.833  17.485  1.00  0.00    -0.271 OA
ATOM      8  H1  UNL     1     -15.958 -11.336  15.444  1.00  0.00     0.165 HD
BRANCH   6   9
HETATM    9  C5  UNL     1     -17.557 -12.948  16.836  1.00  0.00     0.302 C 
HETATM   10  C6  UNL     1     -17.603 -13.458  15.413  1.00  0.00     0.275 C 
HETATM   11  N2  UNL     1     -17.648 -14.884  15.347  1.00  0.00    -0.071 N 
HETATM   12  C7  UNL     1     -17.805 -15.512  16.640  1.00  0.00     0.260 C 
ATOM     13  H22 UNL     1     -18.376 -15.194  14.703  1.00  0.00     0.277 HD
ATOM     14  H21 UNL     1     -16.828 -15.250  14.863  1.00  0.00     0.277 HD
HETATM   15  C8  UNL     1     -18.952 -14.832  17.357  1.00  0.00     0.260 C 
HETATM   16  N3  UNL     1     -18.626 -13.470  17.646  1.00  0.00    -0.059 N 
ATOM     17  H32 UNL     1     -18.418 -13.353  18.637  1.00  0.00     0.278 HD
ATOM     18  H31 UNL     1     -19.454 -12.879  17.575  1.00  0.00     0.278 HD
ENDBRANCH   6   9
ENDBRANCH   1   5
BRANCH   1  19
HETATM   19  C9  UNL     1     -15.235  -8.963  16.485  1.00  0.00     0.030 C 
HETATM   20  C10 UNL     1     -14.155  -8.824  15.578  1.00  0.00     0.038 C 
HETATM   21  C11 UNL     1     -13.005  -8.088  15.738  1.00  0.00     0.108 C 
HETATM   22  C14 UNL     1     -12.686  -7.281  16.817  1.00  0.00     0.264 C 
HETATM   23  O5  UNL     1     -11.601  -6.695  16.752  1.00  0.00    -0.267 OA
HETATM   24  N4  UNL     1     -13.398  -7.034  17.955  1.00  0.00    -0.287 N 
HETATM   25  C15 UNL     1     -14.453  -7.715  18.459  1.00  0.00     0.282 C 
ATOM     26  H4  UNL     1     -13.094  -6.227  18.499  1.00  0.00     0.172 HD
HETATM   27  O6  UNL     1     -14.881  -7.407  19.595  1.00  0.00    -0.265 OA
HETATM   28  C16 UNL     1     -15.170  -8.780  17.840  1.00  0.00     0.145 C 
BRANCH  21  29
HETATM   29  C12 UNL     1     -12.038  -8.176  14.655  1.00  0.00     0.298 C 
HETATM   30  O3  UNL     1     -12.048  -7.355  13.704  1.00  0.00    -0.259 OA
BRANCH  29  31
HETATM   31  O4  UNL     1     -11.067  -9.166  14.626  1.00  0.00    -0.322 OA
HETATM   32  C13 UNL     1      -9.709  -8.892  14.318  1.00  0.00     0.213 C 
ENDBRANCH  29  31
ENDBRANCH  21  29
BRANCH  28  33
HETATM   33  O7  UNL     1     -15.806  -9.638  18.653  1.00  0.00    -0.355 OA
ATOM     34  H7  UNL     1     -16.677  -9.425  18.966  1.00  0.00     0.218 HD
ENDBRANCH  28  33
ENDBRANCH   1  19
TORSDOF 8
ENDMDL
MODEL 2
REMARK VINA RESULT: -7.461158321      4.245      9.183
REMARK  8 active torsions:
REMARK  status: ('A' for Active; 'I' for Inactive)
REMARK    1  A    between atoms: C2_2  and  O1_3 
REMARK    2  A    between atoms: O1_3  and  C3_4 
REMARK    3  A    between atoms: C3_4  and  N1_5 
REMARK    4  A    between atoms: C3_4  and  C9_19 
REMARK       I    between atoms: N1_5  and  C4_7 
REMARK    5  A    between atoms: C4_7  and  C5_9 
REMARK    6  A    between atoms: C11_21  and  C12_22 
REMARK    7  A    between atoms: C12_22  and  O4_24 
REMARK    8  A    between atoms: C16_32  and  O7_33 
ROOT
HETATM    1  C3  UNL     1     -19.772 -13.550  16.830  1.00  0.00     0.260 C 
ENDROOT
BRANCH   1   2
HETATM    2  O1  UNL     1     -21.131 -13.566  16.868  1.00  0.00    -0.363 OA
BRANCH   2   3
HETATM    3  C2  UNL     1     -21.645 -12.834  15.795  1.00  0.00     0.166 C 
HETATM    4  C1  UNL     1     -20.889 -13.116  14.513  1.00  0.00     0.033 C 
ENDBRANCH   2   3
ENDBRANCH   1   2
BRANCH   1   5
HETATM    5  N1  UNL     1     -19.268 -12.424  17.639  1.00  0.00    -0.329 N 
HETATM    6  C4  UNL     1     -18.473 -11.387  17.136  1.00  0.00     0.252 C 
HETATM    7  O2  UNL     1     -18.150 -11.386  15.930  1.00  0.00    -0.271 OA
ATOM      8  H1  UNL     1     -19.515 -12.399  18.628  1.00  0.00     0.165 HD
BRANCH   6   9
HETATM    9  C5  UNL     1     -18.007 -10.293  18.008  1.00  0.00     0.302 C 
HETATM   10  C6  UNL     1     -18.380  -8.981  17.354  1.00  0.00     0.275 C 
HETATM   11  N2  UNL     1     -17.948  -7.852  18.116  1.00  0.00    -0.071 N 
HETATM   12  C7  UNL     1     -17.116  -8.207  19.245  1.00  0.00     0.260 C 
ATOM     13  H22 UNL     1     -17.478  -7.171  17.520  1.00  0.00     0.277 HD
ATOM     14  H21 UNL     1     -18.746  -7.292  18.416  1.00  0.00     0.277 HD
HETATM   15  C8  UNL     1     -16.034  -9.146  18.755  1.00  0.00     0.260 C 
HETATM   16  N3  UNL     1     -16.603 -10.381  18.313  1.00  0.00    -0.059 N 
ATOM     17  H32 UNL     1     -16.428 -11.121  18.992  1.00  0.00     0.278 HD
ATOM     18  H31 UNL     1     -16.084 -10.752  17.519  1.00  0.00     0.278 HD
ENDBRANCH   6   9
ENDBRANCH   1   5
BRANCH   1  19
HETATM   19  C9  UNL     1     -19.060 -14.732  17.331  1.00  0.00     0.030 C 
HETATM   20  C10 UNL     1     -19.672 -15.428  18.403  1.00  0.00     0.038 C 
HETATM   21  C11 UNL     1     -19.514 -16.748  18.753  1.00  0.00     0.108 C 
HETATM   22  C14 UNL     1     -18.749 -17.692  18.090  1.00  0.00     0.264 C 
HETATM   23  O5  UNL     1     -18.758 -18.831  18.570  1.00  0.00    -0.267 OA
HETATM   24  N4  UNL     1     -17.979 -17.553  16.972  1.00  0.00    -0.287 N 
HETATM   25  C15 UNL     1     -17.533 -16.418  16.386  1.00  0.00     0.282 C 
ATOM     26  H4  UNL     1     -17.701 -18.422  16.517  1.00  0.00     0.172 HD
HETATM   27  O6  UNL     1     -16.717 -16.509  15.440  1.00  0.00    -0.265 OA
HETATM   28  C16 UNL     1     -17.886 -15.078  16.719  1.00  0.00     0.145 C 
BRANCH  21  29
HETATM   29  C12 UNL     1     -20.231 -17.180  19.943  1.00  0.00     0.298 C 
HETATM   30  O3  UNL     1     -19.650 -17.284  21.052  1.00  0.00    -0.259 OA
BRANCH  29  31
HETATM   31  O4  UNL     1     -21.582 -17.494  19.905  1.00  0.00    -0.322 OA
HETATM   32  C13 UNL     1     -22.476 -17.142  20.948  1.00  0.00     0.213 C 
ENDBRANCH  29  31
ENDBRANCH  21  29
BRANCH  28  33
HETATM   33  O7  UNL     1     -16.998 -14.121  16.408  1.00  0.00    -0.355 OA
ATOM     34  H7  UNL     1     -16.900 -13.851  15.502  1.00  0.00     0.218 HD
ENDBRANCH  28  33
ENDBRANCH   1  19
TORSDOF 8
ENDMDL
MODEL 3
REMARK VINA RESULT: -7.444215453      1.938      2.566
REMARK  8 active torsions:
REMARK  status: ('A' for Active; 'I' for Inactive)
REMARK    1  A    between atoms: C2_2  and  O1_3 
REMARK    2  A    between atoms: O1_3  and  C3_4 
REMARK    3  A    between atoms: C3_4  and  N1_5 
REMARK    4  A    between atoms: C3_4  and  C9_19 
REMARK       I    between atoms: N1_5  and  C4_7 
REMARK    5  A    between atoms: C4_7  and  C5_9 
REMARK    6  A    between atoms: C11_21  and  C12_22 
REMARK    7  A    between atoms: C12_22  and  O4_24 
REMARK    8  A    between atoms: C16_32  and  O7_33 
ROOT
HETATM    1  C3  UNL     1     -15.149  -7.784  15.364  1.00  0.00     0.260 C 
ENDROOT
BRANCH   1   2
HETATM    2  O1  UNL     1     -15.728  -7.136  14.319  1.00  0.00    -0.363 OA
BRANCH   2   3
HETATM    3  C2  UNL     1     -16.177  -5.879  14.729  1.00  0.00     0.166 C 
HETATM    4  C1  UNL     1     -17.176  -5.295  13.752  1.00  0.00     0.033 C 
ENDBRANCH   2   3
ENDBRANCH   1   2
BRANCH   1   5
HETATM    5  N1  UNL     1     -15.484  -9.220  15.303  1.00  0.00    -0.329 N 
HETATM    6  C4  UNL     1     -16.160  -9.914  16.314  1.00  0.00     0.252 C 
HETATM    7  O2  UNL     1     -16.515  -9.309  17.347  1.00  0.00    -0.271 OA
ATOM      8  H1  UNL     1     -15.206  -9.739  14.471  1.00  0.00     0.165 HD
BRANCH   6   9
HETATM    9  C5  UNL     1     -16.461 -11.351  16.180  1.00  0.00     0.302 C 
HETATM   10  C6  UNL     1     -16.995 -11.591  14.786  1.00  0.00     0.275 C 
HETATM   11  N2  UNL     1     -17.340 -12.960  14.564  1.00  0.00    -0.071 N 
HETATM   12  C7  UNL     1     -17.259 -13.772  15.759  1.00  0.00     0.260 C 
ATOM     13  H22 UNL     1     -18.263 -13.036  14.137  1.00  0.00     0.277 HD
ATOM     14  H21 UNL     1     -16.773 -13.359  13.816  1.00  0.00     0.277 HD
HETATM   15  C8  UNL     1     -18.006 -13.057  16.865  1.00  0.00     0.260 C 
HETATM   16  N3  UNL     1     -17.349 -11.834  17.205  1.00  0.00    -0.059 N 
ATOM     17  H32 UNL     1     -16.858 -11.924  18.094  1.00  0.00     0.278 HD
ATOM     18  H31 UNL     1     -18.029 -11.119  17.459  1.00  0.00     0.278 HD
ENDBRANCH   6   9
ENDBRANCH   1   5
BRANCH   1  19
HETATM   19  C9  UNL     1     -13.685  -7.735  15.473  1.00  0.00     0.030 C 
HETATM   20  C10 UNL     1     -12.964  -7.717  14.254  1.00  0.00     0.038 C 
HETATM   21  C11 UNL     1     -11.700  -7.226  14.026  1.00  0.00     0.108 C 
HETATM   22  C14 UNL     1     -10.882  -6.595  14.949  1.00  0.00     0.264 C 
HETATM   23  O5  UNL     1      -9.783  -6.217  14.528  1.00  0.00    -0.267 OA
HETATM   24  N4  UNL     1     -11.109  -6.325  16.267  1.00  0.00    -0.287 N 
HETATM   25  C15 UNL     1     -12.054  -6.841  17.087  1.00  0.00     0.282 C 
ATOM     26  H4  UNL     1     -10.482  -5.642  16.691  1.00  0.00     0.172 HD
HETATM   27  O6  UNL     1     -12.008  -6.564  18.308  1.00  0.00    -0.265 OA
HETATM   28  C16 UNL     1     -13.139  -7.692  16.727  1.00  0.00     0.145 C 
BRANCH  21  29
HETATM   29  C12 UNL     1     -11.187  -7.392  12.676  1.00  0.00     0.298 C 
HETATM   30  O3  UNL     1     -10.795  -8.511  12.261  1.00  0.00    -0.259 OA
BRANCH  29  31
HETATM   31  O4  UNL     1     -11.108  -6.327  11.791  1.00  0.00    -0.322 OA
HETATM   32  C13 UNL     1     -11.052  -6.506  10.385  1.00  0.00     0.213 C 
ENDBRANCH  29  31
ENDBRANCH  21  29
BRANCH  28  33
HETATM   33  O7  UNL     1     -13.632  -8.487  17.689  1.00  0.00    -0.355 OA
ATOM     34  H7  UNL     1     -13.729  -8.148  18.571  1.00  0.00     0.218 HD
ENDBRANCH  28  33
ENDBRANCH   1  19
TORSDOF 8
ENDMDL
MODEL 4
REMARK VINA RESULT: -7.300872779      3.390      5.478
REMARK  8 active torsions:
REMARK  status: ('A' for Active; 'I' for Inactive)
REMARK    1  A    between atoms: C2_2  and  O1_3 
REMARK    2  A    between atoms: O1_3  and  C3_4 
REMARK    3  A    between atoms: C3_4  and  N1_5 
REMARK    4  A    between atoms: C3_4  and  C9_19 
REMARK       I    between atoms: N1_5  and  C4_7 
REMARK    5  A    between atoms: C4_7  and  C5_9 
REMARK    6  A    between atoms: C11_21  and  C12_22 
REMARK    7  A    between atoms: C12_22  and  O4_24 
REMARK    8  A    between atoms: C16_32  and  O7_33 
ROOT
HETATM    1  C3  UNL     1     -19.415 -12.778  15.788  1.00  0.00     0.260 C 
ENDROOT
BRANCH   1   2
HETATM    2  O1  UNL     1     -20.159 -12.910  14.658  1.00  0.00    -0.363 OA
BRANCH   2   3
HETATM    3  C2  UNL     1     -21.340 -12.173  14.778  1.00  0.00     0.166 C 
HETATM    4  C1  UNL     1     -21.996 -12.386  16.126  1.00  0.00     0.033 C 
ENDBRANCH   2   3
ENDBRANCH   1   2
BRANCH   1   5
HETATM    5  N1  UNL     1     -18.743 -14.057  16.088  1.00  0.00    -0.329 N 
HETATM    6  C4  UNL     1     -18.766 -14.683  17.341  1.00  0.00     0.252 C 
HETATM    7  O2  UNL     1     -19.386 -14.151  18.285  1.00  0.00    -0.271 OA
ATOM      8  H1  UNL     1     -18.228 -14.513  15.336  1.00  0.00     0.165 HD
BRANCH   6   9
HETATM    9  C5  UNL     1     -18.069 -15.963  17.565  1.00  0.00     0.302 C 
HETATM   10  C6  UNL     1     -17.275 -16.290  16.320  1.00  0.00     0.275 C 
HETATM   11  N2  UNL     1     -16.578 -17.531  16.431  1.00  0.00    -0.071 N 
HETATM   12  C7  UNL     1     -16.913 -18.272  17.627  1.00  0.00     0.260 C 
ATOM     13  H22 UNL     1     -16.722 -18.103  15.599  1.00  0.00     0.277 HD
ATOM     14  H21 UNL     1     -15.570 -17.387  16.364  1.00  0.00     0.277 HD
HETATM   15  C8  UNL     1     -18.422 -18.332  17.736  1.00  0.00     0.260 C 
HETATM   16  N3  UNL     1     -18.961 -17.026  17.948  1.00  0.00    -0.059 N 
ATOM     17  H32 UNL     1     -19.262 -16.913  18.916  1.00  0.00     0.278 HD
ATOM     18  H31 UNL     1     -19.861 -16.927  17.478  1.00  0.00     0.278 HD
ENDBRANCH   6   9
ENDBRANCH   1   5
BRANCH   1  19
HETATM   19  C9  UNL     1     -18.346 -11.772  15.790  1.00  0.00     0.030 C 
HETATM   20  C10 UNL     1     -18.487 -10.705  16.712  1.00  0.00     0.038 C 
HETATM   21  C11 UNL     1     -17.497  -9.921  17.255  1.00  0.00     0.108 C 
HETATM   22  C14 UNL     1     -16.134 -10.048  17.043  1.00  0.00     0.264 C 
HETATM   23  O5  UNL     1     -15.416  -9.242  17.644  1.00  0.00    -0.267 OA
HETATM   24  N4  UNL     1     -15.458 -10.940  16.262  1.00  0.00    -0.287 N 
HETATM   25  C15 UNL     1     -15.936 -11.740  15.282  1.00  0.00     0.282 C 
ATOM     26  H4  UNL     1     -14.457 -11.012  16.442  1.00  0.00     0.172 HD
HETATM   27  O6  UNL     1     -15.123 -12.390  14.585  1.00  0.00    -0.265 OA
HETATM   28  C16 UNL     1     -17.300 -11.949  14.925  1.00  0.00     0.145 C 
BRANCH  21  29
HETATM   29  C12 UNL     1     -17.943  -8.856  18.140  1.00  0.00     0.298 C 
HETATM   30  O3  UNL     1     -18.504  -7.826  17.689  1.00  0.00    -0.259 OA
BRANCH  29  31
HETATM   31  O4  UNL     1     -17.770  -8.931  19.514  1.00  0.00    -0.322 OA
HETATM   32  C13 UNL     1     -18.827  -9.269  20.398  1.00  0.00     0.213 C 
ENDBRANCH  29  31
ENDBRANCH  21  29
BRANCH  28  33
HETATM   33  O7  UNL     1     -17.545 -12.338  13.664  1.00  0.00    -0.355 OA
ATOM     34  H7  UNL     1     -16.859 -12.265  13.011  1.00  0.00     0.218 HD
ENDBRANCH  28  33
ENDBRANCH   1  19
TORSDOF 8
ENDMDL
MODEL 5
REMARK VINA RESULT: -7.263497912      3.186      4.484
REMARK  8 active torsions:
REMARK  status: ('A' for Active; 'I' for Inactive)
REMARK    1  A    between atoms: C2_2  and  O1_3 
REMARK    2  A    between atoms: O1_3  and  C3_4 
REMARK    3  A    between atoms: C3_4  and  N1_5 
REMARK    4  A    between atoms: C3_4  and  C9_19 
REMARK       I    between atoms: N1_5  and  C4_7 
REMARK    5  A    between atoms: C4_7  and  C5_9 
REMARK    6  A    between atoms: C11_21  and  C12_22 
REMARK    7  A    between atoms: C12_22  and  O4_24 
REMARK    8  A    between atoms: C16_32  and  O7_33 
ROOT
HETATM    1  C3  UNL     1     -14.225  -6.753  15.712  1.00  0.00     0.260 C 
ENDROOT
BRANCH   1   2
HETATM    2  O1  UNL     1     -14.720  -5.869  14.805  1.00  0.00    -0.363 OA
BRANCH   2   3
HETATM    3  C2  UNL     1     -16.029  -5.520  15.149  1.00  0.00     0.166 C 
HETATM    4  C1  UNL     1     -16.949  -5.550  13.946  1.00  0.00     0.033 C 
ENDBRANCH   2   3
ENDBRANCH   1   2
BRANCH   1   5
HETATM    5  N1  UNL     1     -15.285  -7.125  16.668  1.00  0.00    -0.329 N 
HETATM    6  C4  UNL     1     -15.062  -7.392  18.025  1.00  0.00     0.252 C 
HETATM    7  O2  UNL     1     -13.904  -7.320  18.486  1.00  0.00    -0.271 OA
ATOM      8  H1  UNL     1     -16.241  -7.193  16.320  1.00  0.00     0.165 HD
BRANCH   6   9
HETATM    9  C5  UNL     1     -16.174  -7.758  18.921  1.00  0.00     0.302 C 
HETATM   10  C6  UNL     1     -16.495  -9.219  18.699  1.00  0.00     0.275 C 
HETATM   11  N2  UNL     1     -17.582  -9.667  19.511  1.00  0.00    -0.071 N 
HETATM   12  C7  UNL     1     -18.234  -8.598  20.235  1.00  0.00     0.260 C 
ATOM     13  H22 UNL     1     -18.257 -10.192  18.955  1.00  0.00     0.277 HD
ATOM     14  H21 UNL     1     -17.278 -10.403  20.147  1.00  0.00     0.277 HD
HETATM   15  C8  UNL     1     -18.536  -7.483  19.256  1.00  0.00     0.260 C 
HETATM   16  N3  UNL     1     -17.324  -6.908  18.762  1.00  0.00    -0.059 N 
ATOM     17  H32 UNL     1     -17.159  -5.995  19.187  1.00  0.00     0.278 HD
ATOM     18  H31 UNL     1     -17.431  -6.625  17.789  1.00  0.00     0.278 HD
ENDBRANCH   6   9
ENDBRANCH   1   5
BRANCH   1  19
HETATM   19  C9  UNL     1     -13.698  -8.027  15.207  1.00  0.00     0.030 C 
HETATM   20  C10 UNL     1     -12.349  -8.021  14.771  1.00  0.00     0.038 C 
HETATM   21  C11 UNL     1     -11.480  -9.084  14.699  1.00  0.00     0.108 C 
HETATM   22  C14 UNL     1     -11.736 -10.387  15.090  1.00  0.00     0.264 C 
HETATM   23  O5  UNL     1     -10.805 -11.187  14.951  1.00  0.00    -0.267 OA
HETATM   24  N4  UNL     1     -12.876 -10.928  15.612  1.00  0.00    -0.287 N 
HETATM   25  C15 UNL     1     -14.128 -10.416  15.623  1.00  0.00     0.282 C 
ATOM     26  H4  UNL     1     -12.768 -11.841  16.052  1.00  0.00     0.172 HD
HETATM   27  O6  UNL     1     -15.069 -11.135  16.031  1.00  0.00    -0.265 OA
HETATM   28  C16 UNL     1     -14.532  -9.112  15.215  1.00  0.00     0.145 C 
BRANCH  21  29
HETATM   29  C12 UNL     1     -10.162  -8.791  14.157  1.00  0.00     0.298 C 
HETATM   30  O3  UNL     1      -9.661  -9.498  13.247  1.00  0.00    -0.259 OA
BRANCH  29  31
HETATM   31  O4  UNL     1      -9.406  -7.725  14.619  1.00  0.00    -0.322 OA
HETATM   32  C13 UNL     1      -9.301  -6.501  13.910  1.00  0.00     0.213 C 
ENDBRANCH  29  31
ENDBRANCH  21  29
BRANCH  28  33
HETATM   33  O7  UNL     1     -15.806  -8.967  14.817  1.00  0.00    -0.355 OA
ATOM     34  H7  UNL     1     -16.458  -9.597  15.100  1.00  0.00     0.218 HD
ENDBRANCH  28  33
ENDBRANCH   1  19
TORSDOF 8
ENDMDL
