MODEL 1
REMARK VINA RESULT: -7.876185326      0.000      0.000
REMARK  2 active torsions:
REMARK  status: ('A' for Active; 'I' for Inactive)
REMARK    1  A    between atoms: C8_11  and  C9_12 
REMARK       I    between atoms: N2_14  and  C11_16 
REMARK    2  A    between atoms: C11_16  and  C12_18 
ROOT
HETATM    1  C1  UNL     1      -7.008  26.244  30.406  1.00  0.00     0.044 C 
HETATM    2  C2  UNL     1      -6.268  26.081  31.688  1.00  0.00    -0.067 C 
HETATM    3  C3  UNL     1      -5.515  27.057  32.194  1.00  0.00     0.007 C 
HETATM    4  C4  UNL     1      -4.755  26.946  33.471  1.00  0.00     0.044 C 
HETATM    5  C5  UNL     1      -3.667  28.004  33.430  1.00  0.00     0.042 C 
HETATM    6  C6  UNL     1      -5.600  27.180  34.683  1.00  0.00     0.042 C 
HETATM    7  N1  UNL     1      -4.185  25.609  33.505  1.00  0.00    -0.348 N 
ATOM      8  H1  UNL     1      -3.277  25.434  33.935  1.00  0.00     0.163 HD
HETATM    9  C7  UNL     1      -4.935  24.555  32.918  1.00  0.00     0.232 C 
HETATM   10  O1  UNL     1      -4.389  23.446  32.781  1.00  0.00    -0.272 OA
HETATM   11  C8  UNL     1      -6.320  24.811  32.494  1.00  0.00     0.151 C 
ENDROOT
BRANCH  11  12
HETATM   12  C9  UNL     1      -6.989  23.707  31.824  1.00  0.00     0.003 C 
HETATM   13  C10 UNL     1      -8.210  23.114  32.401  1.00  0.00     0.064 C 
HETATM   14  N2  UNL     1      -6.532  23.232  30.723  1.00  0.00    -0.333 N 
HETATM   15  C11 UNL     1      -7.133  22.155  30.013  1.00  0.00     0.225 C 
ATOM     16  H2  UNL     1      -5.687  23.652  30.333  1.00  0.00     0.168 HD
HETATM   17  O2  UNL     1      -8.049  22.465  29.208  1.00  0.00    -0.273 OA
BRANCH  15  18
HETATM   18  C12 UNL     1      -6.752  20.753  30.170  1.00  0.00     0.070 C 
HETATM   19  C13 UNL     1      -5.433  20.677  30.905  1.00  0.00     0.019 C 
HETATM   20  C14 UNL     1      -7.769  19.984  30.991  1.00  0.00     0.019 C 
ENDBRANCH  15  18
ENDBRANCH  11  12
TORSDOF 2
ENDMDL
MODEL 2
REMARK VINA RESULT: -6.686376871      2.824      5.827
REMARK  2 active torsions:
REMARK  status: ('A' for Active; 'I' for Inactive)
REMARK    1  A    between atoms: C8_11  and  C9_12 
REMARK       I    between atoms: N2_14  and  C11_16 
REMARK    2  A    between atoms: C11_16  and  C12_18 
ROOT
HETATM    1  C1  UNL     1      -4.887  25.221  33.226  1.00  0.00     0.044 C 
HETATM    2  C2  UNL     1      -5.756  24.193  32.588  1.00  0.00    -0.067 C 
HETATM    3  C3  UNL     1      -5.251  23.093  32.032  1.00  0.00     0.007 C 
HETATM    4  C4  UNL     1      -6.074  22.035  31.381  1.00  0.00     0.044 C 
HETATM    5  C5  UNL     1      -5.150  21.264  30.456  1.00  0.00     0.042 C 
HETATM    6  C6  UNL     1      -6.681  21.077  32.355  1.00  0.00     0.042 C 
HETATM    7  N1  UNL     1      -7.115  22.718  30.629  1.00  0.00    -0.348 N 
ATOM      8  H1  UNL     1      -7.463  22.340  29.748  1.00  0.00     0.163 HD
HETATM    9  C7  UNL     1      -7.633  23.928  31.165  1.00  0.00     0.232 C 
HETATM   10  O1  UNL     1      -8.391  24.612  30.455  1.00  0.00    -0.272 OA
HETATM   11  C8  UNL     1      -7.254  24.327  32.528  1.00  0.00     0.151 C 
ENDROOT
BRANCH  11  12
HETATM   12  C9  UNL     1      -7.755  25.619  32.970  1.00  0.00     0.003 C 
HETATM   13  C10 UNL     1      -8.386  25.762  34.296  1.00  0.00     0.064 C 
HETATM   14  N2  UNL     1      -7.656  26.654  32.217  1.00  0.00    -0.333 N 
HETATM   15  C11 UNL     1      -8.124  27.949  32.583  1.00  0.00     0.225 C 
ATOM     16  H2  UNL     1      -7.217  26.542  31.303  1.00  0.00     0.168 HD
HETATM   17  O2  UNL     1      -7.322  28.660  33.241  1.00  0.00    -0.273 OA
BRANCH  15  18
HETATM   18  C12 UNL     1      -9.445  28.471  32.243  1.00  0.00     0.070 C 
HETATM   19  C13 UNL     1      -9.759  29.647  33.141  1.00  0.00     0.019 C 
HETATM   20  C14 UNL     1      -9.500  28.971  30.812  1.00  0.00     0.019 C 
ENDBRANCH  15  18
ENDBRANCH  11  12
TORSDOF 2
ENDMDL
MODEL 3
REMARK VINA RESULT: -6.635321752      1.911      5.918
REMARK  2 active torsions:
REMARK  status: ('A' for Active; 'I' for Inactive)
REMARK    1  A    between atoms: C8_11  and  C9_12 
REMARK       I    between atoms: N2_14  and  C11_16 
REMARK    2  A    between atoms: C11_16  and  C12_18 
ROOT
HETATM    1  C1  UNL     1      -4.954  23.052  33.045  1.00  0.00     0.044 C 
HETATM    2  C2  UNL     1      -6.208  22.600  32.381  1.00  0.00    -0.067 C 
HETATM    3  C3  UNL     1      -6.290  21.424  31.759  1.00  0.00     0.007 C 
HETATM    4  C4  UNL     1      -7.518  20.925  31.079  1.00  0.00     0.044 C 
HETATM    5  C5  UNL     1      -7.074  19.858  30.095  1.00  0.00     0.042 C 
HETATM    6  C6  UNL     1      -8.510  20.320  32.022  1.00  0.00     0.042 C 
HETATM    7  N1  UNL     1      -8.106  22.062  30.389  1.00  0.00    -0.348 N 
ATOM      8  H1  UNL     1      -8.591  21.944  29.499  1.00  0.00     0.163 HD
HETATM    9  C7  UNL     1      -7.983  23.341  30.995  1.00  0.00     0.232 C 
HETATM   10  O1  UNL     1      -8.322  24.341  30.340  1.00  0.00    -0.272 OA
HETATM   11  C8  UNL     1      -7.460  23.435  32.367  1.00  0.00     0.151 C 
ENDROOT
BRANCH  11  12
HETATM   12  C9  UNL     1      -7.283  24.784  32.883  1.00  0.00     0.003 C 
HETATM   13  C10 UNL     1      -8.059  25.244  34.049  1.00  0.00     0.064 C 
HETATM   14  N2  UNL     1      -6.450  25.592  32.336  1.00  0.00    -0.333 N 
HETATM   15  C11 UNL     1      -6.224  26.924  32.786  1.00  0.00     0.225 C 
ATOM     16  H2  UNL     1      -5.917  25.261  31.531  1.00  0.00     0.168 HD
HETATM   17  O2  UNL     1      -5.372  27.061  33.702  1.00  0.00    -0.273 OA
BRANCH  15  18
HETATM   18  C12 UNL     1      -6.913  28.098  32.256  1.00  0.00     0.070 C 
HETATM   19  C13 UNL     1      -7.238  27.865  30.797  1.00  0.00     0.019 C 
HETATM   20  C14 UNL     1      -8.224  28.352  32.974  1.00  0.00     0.019 C 
ENDBRANCH  15  18
ENDBRANCH  11  12
TORSDOF 2
ENDMDL
MODEL 4
REMARK VINA RESULT: -6.477680002      2.450      3.197
REMARK  2 active torsions:
REMARK  status: ('A' for Active; 'I' for Inactive)
REMARK    1  A    between atoms: C8_11  and  C9_12 
REMARK       I    between atoms: N2_14  and  C11_16 
REMARK    2  A    between atoms: C11_16  and  C12_18 
ROOT
HETATM    1  C1  UNL     1      -8.885  24.411  34.435  1.00  0.00     0.044 C 
HETATM    2  C2  UNL     1      -8.250  25.516  33.665  1.00  0.00    -0.067 C 
HETATM    3  C3  UNL     1      -8.657  26.779  33.781  1.00  0.00     0.007 C 
HETATM    4  C4  UNL     1      -8.058  27.921  33.034  1.00  0.00     0.044 C 
HETATM    5  C5  UNL     1      -9.086  29.038  33.036  1.00  0.00     0.042 C 
HETATM    6  C6  UNL     1      -6.797  28.434  33.653  1.00  0.00     0.042 C 
HETATM    7  N1  UNL     1      -7.801  27.449  31.683  1.00  0.00    -0.348 N 
ATOM      8  H1  UNL     1      -7.889  28.073  30.881  1.00  0.00     0.163 HD
HETATM    9  C7  UNL     1      -7.424  26.089  31.517  1.00  0.00     0.232 C 
HETATM   10  O1  UNL     1      -7.373  25.625  30.365  1.00  0.00    -0.272 OA
HETATM   11  C8  UNL     1      -7.112  25.283  32.707  1.00  0.00     0.151 C 
ENDROOT
BRANCH  11  12
HETATM   12  C9  UNL     1      -6.819  23.879  32.460  1.00  0.00     0.003 C 
HETATM   13  C10 UNL     1      -5.531  23.300  32.882  1.00  0.00     0.064 C 
HETATM   14  N2  UNL     1      -7.675  23.124  31.873  1.00  0.00    -0.333 N 
HETATM   15  C11 UNL     1      -7.458  21.743  31.598  1.00  0.00     0.225 C 
ATOM     16  H2  UNL     1      -8.563  23.536  31.587  1.00  0.00     0.168 HD
HETATM   17  O2  UNL     1      -7.756  20.942  32.521  1.00  0.00    -0.273 OA
BRANCH  15  18
HETATM   18  C12 UNL     1      -6.921  21.231  30.340  1.00  0.00     0.070 C 
HETATM   19  C13 UNL     1      -7.292  22.178  29.220  1.00  0.00     0.019 C 
HETATM   20  C14 UNL     1      -5.408  21.142  30.370  1.00  0.00     0.019 C 
ENDBRANCH  15  18
ENDBRANCH  11  12
TORSDOF 2
ENDMDL
MODEL 5
REMARK VINA RESULT: -6.413894348      2.880      5.692
REMARK  2 active torsions:
REMARK  status: ('A' for Active; 'I' for Inactive)
REMARK    1  A    between atoms: C8_11  and  C9_12 
REMARK       I    between atoms: N2_14  and  C11_16 
REMARK    2  A    between atoms: C11_16  and  C12_18 
ROOT
HETATM    1  C1  UNL     1      -7.133  25.973  30.628  1.00  0.00     0.044 C 
HETATM    2  C2  UNL     1      -7.014  24.545  31.036  1.00  0.00    -0.067 C 
HETATM    3  C3  UNL     1      -6.919  23.564  30.141  1.00  0.00     0.007 C 
HETATM    4  C4  UNL     1      -6.798  22.121  30.494  1.00  0.00     0.044 C 
HETATM    5  C5  UNL     1      -7.230  21.330  29.273  1.00  0.00     0.042 C 
HETATM    6  C6  UNL     1      -5.404  21.717  30.855  1.00  0.00     0.042 C 
HETATM    7  N1  UNL     1      -7.697  21.887  31.613  1.00  0.00    -0.348 N 
ATOM      8  H1  UNL     1      -8.188  21.000  31.718  1.00  0.00     0.163 HD
HETATM    9  C7  UNL     1      -7.869  22.938  32.554  1.00  0.00     0.232 C 
HETATM   10  O1  UNL     1      -8.761  22.823  33.413  1.00  0.00    -0.272 OA
HETATM   11  C8  UNL     1      -6.993  24.117  32.479  1.00  0.00     0.151 C 
ENDROOT
BRANCH  11  12
HETATM   12  C9  UNL     1      -7.290  25.184  33.422  1.00  0.00     0.003 C 
HETATM   13  C10 UNL     1      -6.200  25.863  34.147  1.00  0.00     0.064 C 
HETATM   14  N2  UNL     1      -8.500  25.554  33.637  1.00  0.00    -0.333 N 
HETATM   15  C11 UNL     1      -8.865  26.589  34.543  1.00  0.00     0.225 C 
ATOM     16  H2  UNL     1      -9.245  25.077  33.127  1.00  0.00     0.168 HD
HETATM   17  O2  UNL     1      -8.854  27.759  34.080  1.00  0.00    -0.273 OA
BRANCH  15  18
HETATM   18  C12 UNL     1      -9.236  26.366  35.939  1.00  0.00     0.070 C 
HETATM   19  C13 UNL     1      -9.928  25.027  36.060  1.00  0.00     0.019 C 
HETATM   20  C14 UNL     1      -8.019  26.327  36.843  1.00  0.00     0.019 C 
ENDBRANCH  15  18
ENDBRANCH  11  12
TORSDOF 2
ENDMDL
