MODEL 1
REMARK VINA RESULT: -4.819116598      0.000      0.000
REMARK  3 active torsions:
REMARK  status: ('A' for Active; 'I' for Inactive)
REMARK    1  A    between atoms: C4_4  and  C5_5 
REMARK    2  A    between atoms: C5_5  and  C6_6 
REMARK    3  A    between atoms: C5_5  and  S1_8 
ROOT
HETATM    1  C5  UNL     1      58.967  28.873 104.335  1.00  0.00     0.106 C 
ENDROOT
BRANCH   1   2
HETATM    2  C4  UNL     1      59.436  28.346 105.621  1.00  0.00     0.010 C 
HETATM    3  C3  UNL     1      60.878  28.130 105.842  1.00  0.00     0.037 C 
HETATM    4  C2  UNL     1      61.238  27.852 107.276  1.00  0.00     0.118 C 
HETATM    5  C1  UNL     1      62.089  26.600 107.323  1.00  0.00     0.039 C 
HETATM    6  O3  UNL     1      60.168  27.644 108.105  1.00  0.00    -0.376 OA
HETATM    7  C11 UNL     1      59.095  28.456 108.013  1.00  0.00     0.054 C 
HETATM    8  C10 UNL     1      58.894  29.210 106.747  1.00  0.00     0.043 C 
HETATM    9  C12 UNL     1      59.189  29.493 109.139  1.00  0.00     0.045 C 
HETATM   10  C13 UNL     1      57.853  27.621 108.360  1.00  0.00     0.045 C 
ENDBRANCH   1   2
BRANCH   1  11
HETATM   11  C6  UNL     1      58.982  30.385 104.361  1.00  0.00     0.246 C 
HETATM   12  O1  UNL     1      59.956  31.048 104.113  1.00  0.00    -0.306 OA
ENDBRANCH   1  11
BRANCH   1  13
HETATM   13  S1  UNL     1      59.806  28.391 102.885  1.00  0.00    -0.163 SA
HETATM   14  C7  UNL     1      58.984  29.175 101.478  1.00  0.00     0.170 C 
HETATM   15  C8  UNL     1      59.048  28.118 100.470  1.00  0.00     0.228 C 
HETATM   16  O2  UNL     1      58.702  28.339  99.256  1.00  0.00    -0.273 OA
HETATM   17  N1  UNL     1      59.500  26.892 100.922  1.00  0.00    -0.335 N 
HETATM   18  C9  UNL     1      59.398  26.716 102.360  1.00  0.00     0.236 C 
ATOM     19  H1  UNL     1      59.872  26.175 100.300  1.00  0.00     0.164 HD
HETATM   20 CL1  UNL     1      57.745  26.384 102.872  1.00  0.00    -0.091 Cl
ENDBRANCH   1  13
TORSDOF 3
ENDMDL
MODEL 2
REMARK VINA RESULT: -4.775987332      0.739      2.199
REMARK  3 active torsions:
REMARK  status: ('A' for Active; 'I' for Inactive)
REMARK    1  A    between atoms: C4_4  and  C5_5 
REMARK    2  A    between atoms: C5_5  and  C6_6 
REMARK    3  A    between atoms: C5_5  and  S1_8 
ROOT
HETATM    1  C5  UNL     1      58.867  28.857 104.383  1.00  0.00     0.106 C 
ENDROOT
BRANCH   1   2
HETATM    2  C4  UNL     1      59.399  28.648 105.733  1.00  0.00     0.010 C 
HETATM    3  C3  UNL     1      58.521  28.116 106.793  1.00  0.00     0.037 C 
HETATM    4  C2  UNL     1      59.255  27.698 108.038  1.00  0.00     0.118 C 
HETATM    5  C1  UNL     1      58.585  28.346 109.231  1.00  0.00     0.039 C 
HETATM    6  O3  UNL     1      60.576  28.057 108.072  1.00  0.00    -0.376 OA
HETATM    7  C11 UNL     1      61.334  27.886 106.969  1.00  0.00     0.054 C 
HETATM    8  C10 UNL     1      60.645  27.782 105.655  1.00  0.00     0.043 C 
HETATM    9  C12 UNL     1      62.147  26.597 107.149  1.00  0.00     0.045 C 
HETATM   10  C13 UNL     1      62.385  29.006 106.953  1.00  0.00     0.045 C 
ENDBRANCH   1   2
BRANCH   1  11
HETATM   11  C6  UNL     1      58.646  30.333 104.139  1.00  0.00     0.246 C 
HETATM   12  O1  UNL     1      58.612  31.159 105.016  1.00  0.00    -0.306 OA
ENDBRANCH   1  11
BRANCH   1  13
HETATM   13  S1  UNL     1      59.786  28.261 103.028  1.00  0.00    -0.163 SA
HETATM   14  C7  UNL     1      59.152  29.053 101.531  1.00  0.00     0.170 C 
HETATM   15  C8  UNL     1      59.217  27.960 100.564  1.00  0.00     0.228 C 
HETATM   16  O2  UNL     1      58.995  28.162  99.318  1.00  0.00    -0.273 OA
HETATM   17  N1  UNL     1      59.530  26.720 101.090  1.00  0.00    -0.335 N 
HETATM   18  C9  UNL     1      59.293  26.604 102.518  1.00  0.00     0.236 C 
ATOM     19  H1  UNL     1      59.896  25.954 100.524  1.00  0.00     0.164 HD
HETATM   20 CL1  UNL     1      57.581  26.417 102.892  1.00  0.00    -0.091 Cl
ENDBRANCH   1  13
TORSDOF 3
ENDMDL
MODEL 3
REMARK VINA RESULT: -4.753325444      1.520      1.631
REMARK  3 active torsions:
REMARK  status: ('A' for Active; 'I' for Inactive)
REMARK    1  A    between atoms: C4_4  and  C5_5 
REMARK    2  A    between atoms: C5_5  and  C6_6 
REMARK    3  A    between atoms: C5_5  and  S1_8 
ROOT
HETATM    1  C5  UNL     1      60.572  29.459 105.118  1.00  0.00     0.106 C 
ENDROOT
BRANCH   1   2
HETATM    2  C4  UNL     1      60.436  28.902 106.468  1.00  0.00     0.010 C 
HETATM    3  C3  UNL     1      61.642  28.619 107.269  1.00  0.00     0.037 C 
HETATM    4  C2  UNL     1      61.355  28.314 108.713  1.00  0.00     0.118 C 
HETATM    5  C1  UNL     1      62.059  27.024 109.081  1.00  0.00     0.039 C 
HETATM    6  O3  UNL     1      60.028  28.149 109.011  1.00  0.00    -0.376 OA
HETATM    7  C11 UNL     1      59.126  29.009 108.498  1.00  0.00     0.054 C 
HETATM    8  C10 UNL     1      59.505  29.781 107.284  1.00  0.00     0.043 C 
HETATM    9  C12 UNL     1      58.777  30.033 109.586  1.00  0.00     0.045 C 
HETATM   10  C13 UNL     1      57.822  28.229 108.269  1.00  0.00     0.045 C 
ENDBRANCH   1   2
BRANCH   1  11
HETATM   11  C6  UNL     1      61.822  30.306 105.032  1.00  0.00     0.246 C 
HETATM   12  O1  UNL     1      62.585  30.280 104.101  1.00  0.00    -0.306 OA
ENDBRANCH   1  11
BRANCH   1  13
HETATM   13  S1  UNL     1      60.622  28.359 103.767  1.00  0.00    -0.163 SA
HETATM   14  C7  UNL     1      59.811  29.160 102.363  1.00  0.00     0.170 C 
HETATM   15  C8  UNL     1      59.100  28.039 101.752  1.00  0.00     0.228 C 
HETATM   16  O2  UNL     1      58.516  28.164 100.618  1.00  0.00    -0.273 OA
HETATM   17  N1  UNL     1      59.108  26.863 102.478  1.00  0.00    -0.335 N 
HETATM   18  C9  UNL     1      59.402  27.038 103.889  1.00  0.00     0.236 C 
ATOM     19  H1  UNL     1      58.924  25.951 102.059  1.00  0.00     0.164 HD
HETATM   20 CL1  UNL     1      58.019  27.670 104.780  1.00  0.00    -0.091 Cl
ENDBRANCH   1  13
TORSDOF 3
ENDMDL
MODEL 4
REMARK VINA RESULT: -4.741594904      2.552      3.554
REMARK  3 active torsions:
REMARK  status: ('A' for Active; 'I' for Inactive)
REMARK    1  A    between atoms: C4_4  and  C5_5 
REMARK    2  A    between atoms: C5_5  and  C6_6 
REMARK    3  A    between atoms: C5_5  and  S1_8 
ROOT
HETATM    1  C5  UNL     1      61.548  27.750 105.672  1.00  0.00     0.106 C 
ENDROOT
BRANCH   1   2
HETATM    2  C4  UNL     1      61.878  28.394 106.946  1.00  0.00     0.010 C 
HETATM    3  C3  UNL     1      62.271  29.816 106.969  1.00  0.00     0.037 C 
HETATM    4  C2  UNL     1      62.315  30.413 108.349  1.00  0.00     0.118 C 
HETATM    5  C1  UNL     1      63.652  31.100 108.533  1.00  0.00     0.039 C 
HETATM    6  O3  UNL     1      62.183  29.508 109.369  1.00  0.00    -0.376 OA
HETATM    7  C11 UNL     1      61.245  28.543 109.276  1.00  0.00     0.054 C 
HETATM    8  C10 UNL     1      60.734  28.190 107.925  1.00  0.00     0.043 C 
HETATM    9  C12 UNL     1      60.034  28.979 110.112  1.00  0.00     0.045 C 
HETATM   10  C13 UNL     1      61.787  27.302 110.001  1.00  0.00     0.045 C 
ENDBRANCH   1   2
BRANCH   1  11
HETATM   11  C6  UNL     1      61.807  26.263 105.763  1.00  0.00     0.246 C 
HETATM   12  O1  UNL     1      62.447  25.748 106.644  1.00  0.00    -0.306 OA
ENDBRANCH   1  11
BRANCH   1  13
HETATM   13  S1  UNL     1      59.933  27.936 105.042  1.00  0.00    -0.163 SA
HETATM   14  C7  UNL     1      59.851  27.076 103.452  1.00  0.00     0.170 C 
HETATM   15  C8  UNL     1      59.007  27.976 102.670  1.00  0.00     0.228 C 
HETATM   16  O2  UNL     1      58.575  27.641 101.511  1.00  0.00    -0.273 OA
HETATM   17  N1  UNL     1      58.719  29.190 103.268  1.00  0.00    -0.335 N 
HETATM   18  C9  UNL     1      59.640  29.563 104.326  1.00  0.00     0.236 C 
ATOM     19  H1  UNL     1      57.928  29.771 102.989  1.00  0.00     0.164 HD
HETATM   20 CL1  UNL     1      61.175  30.152 103.691  1.00  0.00    -0.091 Cl
ENDBRANCH   1  13
TORSDOF 3
ENDMDL
MODEL 5
REMARK VINA RESULT: -4.700148071      2.087      2.711
REMARK  3 active torsions:
REMARK  status: ('A' for Active; 'I' for Inactive)
REMARK    1  A    between atoms: C4_4  and  C5_5 
REMARK    2  A    between atoms: C5_5  and  C6_6 
REMARK    3  A    between atoms: C5_5  and  S1_8 
ROOT
HETATM    1  C5  UNL     1      60.521  27.594 105.384  1.00  0.00     0.106 C 
ENDROOT
BRANCH   1   2
HETATM    2  C4  UNL     1      60.240  27.853 106.800  1.00  0.00     0.010 C 
HETATM    3  C3  UNL     1      61.328  28.290 107.695  1.00  0.00     0.037 C 
HETATM    4  C2  UNL     1      60.853  28.778 109.036  1.00  0.00     0.118 C 
HETATM    5  C1  UNL     1      61.639  28.061 110.114  1.00  0.00     0.039 C 
HETATM    6  O3  UNL     1      59.525  28.555 109.289  1.00  0.00    -0.376 OA
HETATM    7  C11 UNL     1      58.619  28.804 108.322  1.00  0.00     0.054 C 
HETATM    8  C10 UNL     1      59.091  28.841 106.912  1.00  0.00     0.043 C 
HETATM    9  C12 UNL     1      57.980  30.168 108.614  1.00  0.00     0.045 C 
HETATM   10  C13 UNL     1      57.472  27.797 108.494  1.00  0.00     0.045 C 
ENDBRANCH   1   2
BRANCH   1  11
HETATM   11  C6  UNL     1      61.094  26.204 105.218  1.00  0.00     0.246 C 
HETATM   12  O1  UNL     1      61.998  25.769 105.886  1.00  0.00    -0.306 OA
ENDBRANCH   1  11
BRANCH   1  13
HETATM   13  S1  UNL     1      59.213  27.732 104.240  1.00  0.00    -0.163 SA
HETATM   14  C7  UNL     1      59.613  26.705 102.807  1.00  0.00     0.170 C 
HETATM   15  C8  UNL     1      59.118  27.526 101.704  1.00  0.00     0.228 C 
HETATM   16  O2  UNL     1      59.074  27.072 100.507  1.00  0.00    -0.273 OA
HETATM   17  N1  UNL     1      58.711  28.801 102.050  1.00  0.00    -0.335 N 
HETATM   18  C9  UNL     1      59.252  29.276 103.310  1.00  0.00     0.236 C 
ATOM     19  H1  UNL     1      58.085  29.360 101.469  1.00  0.00     0.164 HD
HETATM   20 CL1  UNL     1      60.937  29.769 103.165  1.00  0.00    -0.091 Cl
ENDBRANCH   1  13
TORSDOF 3
ENDMDL
