MODEL 1
REMARK VINA RESULT: -6.362174293      0.000      0.000
REMARK  4 active torsions:
REMARK  status: ('A' for Active; 'I' for Inactive)
REMARK    1  A    between atoms: N1_1  and  N2_4 
REMARK       I    between atoms: N2_4  and  C1_5 
REMARK    2  A    between atoms: C1_5  and  C2_7 
REMARK    3  A    between atoms: C6_13  and  N4_14 
REMARK    4  A    between atoms: N4_14  and  C7_16 
ROOT
HETATM    1  C2  UNL     1      17.195  13.019  19.406  1.00  0.00     0.144 A 
HETATM    2  N3  UNL     1      16.911  11.804  19.955  1.00  0.00    -0.359 N 
ATOM      3  H3  UNL     1      17.510  11.454  20.703  1.00  0.00     0.165 HD
HETATM    4  C3  UNL     1      15.883  11.052  19.556  1.00  0.00     0.088 A 
HETATM    5  C4  UNL     1      15.050  11.481  18.556  1.00  0.00     0.019 A 
HETATM    6  C5  UNL     1      15.296  12.700  17.973  1.00  0.00     0.033 A 
HETATM    7  C6  UNL     1      16.380  13.471  18.408  1.00  0.00     0.068 A 
ENDROOT
BRANCH   1   8
HETATM    8  C1  UNL     1      18.394  13.723  19.919  1.00  0.00     0.363 C 
HETATM    9  N2  UNL     1      19.190  14.436  19.004  1.00  0.00    -0.287 NA
HETATM   10  O1  UNL     1      18.651  13.649  21.141  1.00  0.00    -0.247 OA
BRANCH   9  11
HETATM   11  N1  UNL     1      19.911  15.080  18.177  1.00  0.00    -0.276 N 
ATOM     12  H12 UNL     1      19.389  14.546  18.873  1.00  0.00     0.191 HD
ATOM     13  H11 UNL     1      20.488  15.596  17.513  1.00  0.00     0.191 HD
ENDBRANCH   9  11
ENDBRANCH   1   8
BRANCH   7  14
HETATM   14  N4  UNL     1      16.596  14.748  17.878  1.00  0.00    -0.332 N 
ATOM     15  H4  UNL     1      17.133  14.841  17.015  1.00  0.00     0.168 HD
BRANCH  14  16
HETATM   16  C7  UNL     1      16.094  15.908  18.498  1.00  0.00     0.353 C 
HETATM   17  O2  UNL     1      14.991  16.274  18.828  1.00  0.00    -0.283 OA
ENDBRANCH  14  16
ENDBRANCH   7  14
TORSDOF 4
ENDMDL
MODEL 2
REMARK VINA RESULT: -5.899861072      4.548      6.344
REMARK  4 active torsions:
REMARK  status: ('A' for Active; 'I' for Inactive)
REMARK    1  A    between atoms: N1_1  and  N2_4 
REMARK       I    between atoms: N2_4  and  C1_5 
REMARK    2  A    between atoms: C1_5  and  C2_7 
REMARK    3  A    between atoms: C6_13  and  N4_14 
REMARK    4  A    between atoms: N4_14  and  C7_16 
ROOT
HETATM    1  C2  UNL     1      21.941  16.616  17.302  1.00  0.00     0.144 A 
HETATM    2  N3  UNL     1      22.337  17.662  16.522  1.00  0.00    -0.359 N 
ATOM      3  H3  UNL     1      23.327  17.752  16.292  1.00  0.00     0.165 HD
HETATM    4  C3  UNL     1      21.485  18.573  16.048  1.00  0.00     0.088 A 
HETATM    5  C4  UNL     1      20.147  18.492  16.330  1.00  0.00     0.019 A 
HETATM    6  C5  UNL     1      19.701  17.455  17.112  1.00  0.00     0.033 A 
HETATM    7  C6  UNL     1      20.613  16.512  17.597  1.00  0.00     0.068 A 
ENDROOT
BRANCH   1   8
HETATM    8  C1  UNL     1      23.003  15.706  17.794  1.00  0.00     0.363 C 
HETATM    9  N2  UNL     1      24.007  15.305  16.894  1.00  0.00    -0.287 NA
HETATM   10  O1  UNL     1      22.959  15.330  18.986  1.00  0.00    -0.247 OA
BRANCH   9  11
HETATM   11  N1  UNL     1      24.914  14.941  16.080  1.00  0.00    -0.276 N 
ATOM     12  H12 UNL     1      24.143  15.232  16.681  1.00  0.00     0.191 HD
ATOM     13  H11 UNL     1      25.643  14.649  15.428  1.00  0.00     0.191 HD
ENDBRANCH   9  11
ENDBRANCH   1   8
BRANCH   7  14
HETATM   14  N4  UNL     1      20.162  15.406  18.329  1.00  0.00    -0.332 N 
ATOM     15  H4  UNL     1      20.758  15.022  19.063  1.00  0.00     0.168 HD
BRANCH  14  16
HETATM   16  C7  UNL     1      18.911  14.809  18.083  1.00  0.00     0.353 C 
HETATM   17  O2  UNL     1      18.561  13.712  17.718  1.00  0.00    -0.283 OA
ENDBRANCH  14  16
ENDBRANCH   7  14
TORSDOF 4
ENDMDL
MODEL 3
REMARK VINA RESULT: -5.855009928      8.289      9.429
REMARK  4 active torsions:
REMARK  status: ('A' for Active; 'I' for Inactive)
REMARK    1  A    between atoms: N1_1  and  N2_4 
REMARK       I    between atoms: N2_4  and  C1_5 
REMARK    2  A    between atoms: C1_5  and  C2_7 
REMARK    3  A    between atoms: C6_13  and  N4_14 
REMARK    4  A    between atoms: N4_14  and  C7_16 
ROOT
HETATM    1  C2  UNL     1      17.233   6.020  15.858  1.00  0.00     0.144 A 
HETATM    2  N3  UNL     1      15.933   6.207  16.226  1.00  0.00    -0.359 N 
ATOM      3  H3  UNL     1      15.690   6.127  17.214  1.00  0.00     0.165 HD
HETATM    4  C3  UNL     1      14.966   6.488  15.351  1.00  0.00     0.088 A 
HETATM    5  C4  UNL     1      15.246   6.606  14.014  1.00  0.00     0.019 A 
HETATM    6  C5  UNL     1      16.542   6.427  13.595  1.00  0.00     0.033 A 
HETATM    7  C6  UNL     1      17.538   6.132  14.532  1.00  0.00     0.068 A 
ENDROOT
BRANCH   1   8
HETATM    8  C1  UNL     1      18.191   5.669  16.932  1.00  0.00     0.363 C 
HETATM    9  N2  UNL     1      18.967   4.506  16.779  1.00  0.00    -0.287 NA
HETATM   10  O1  UNL     1      18.264   6.418  17.932  1.00  0.00    -0.247 OA
BRANCH   9  11
HETATM   11  N1  UNL     1      19.669   3.454  16.642  1.00  0.00    -0.276 N 
ATOM     12  H12 UNL     1      19.063   4.262  16.788  1.00  0.00     0.191 HD
ATOM     13  H11 UNL     1      20.233   2.611  16.531  1.00  0.00     0.191 HD
ENDBRANCH   9  11
ENDBRANCH   1   8
BRANCH   7  14
HETATM   14  N4  UNL     1      18.875   6.025  14.129  1.00  0.00    -0.332 N 
ATOM     15  H4  UNL     1      19.516   6.792  14.332  1.00  0.00     0.168 HD
BRANCH  14  16
HETATM   16  C7  UNL     1      19.361   4.890  13.453  1.00  0.00     0.353 C 
HETATM   17  O2  UNL     1      19.204   3.700  13.589  1.00  0.00    -0.283 OA
ENDBRANCH  14  16
ENDBRANCH   7  14
TORSDOF 4
ENDMDL
MODEL 4
REMARK VINA RESULT: -5.751693084      9.171     10.330
REMARK  4 active torsions:
REMARK  status: ('A' for Active; 'I' for Inactive)
REMARK    1  A    between atoms: N1_1  and  N2_4 
REMARK       I    between atoms: N2_4  and  C1_5 
REMARK    2  A    between atoms: C1_5  and  C2_7 
REMARK    3  A    between atoms: C6_13  and  N4_14 
REMARK    4  A    between atoms: N4_14  and  C7_16 
ROOT
HETATM    1  C2  UNL     1      15.413   5.533  14.453  1.00  0.00     0.144 A 
HETATM    2  N3  UNL     1      15.601   6.648  13.691  1.00  0.00    -0.359 N 
ATOM      3  H3  UNL     1      14.782   7.120  13.307  1.00  0.00     0.165 HD
HETATM    4  C3  UNL     1      16.809   7.149  13.427  1.00  0.00     0.088 A 
HETATM    5  C4  UNL     1      17.938   6.550  13.923  1.00  0.00     0.019 A 
HETATM    6  C5  UNL     1      17.799   5.423  14.696  1.00  0.00     0.033 A 
HETATM    7  C6  UNL     1      16.521   4.917  14.959  1.00  0.00     0.068 A 
ENDROOT
BRANCH   1   8
HETATM    8  C1  UNL     1      14.017   5.066  14.626  1.00  0.00     0.363 C 
HETATM    9  N2  UNL     1      13.405   5.245  15.880  1.00  0.00    -0.287 NA
HETATM   10  O1  UNL     1      13.445   4.528  13.652  1.00  0.00    -0.247 OA
BRANCH   9  11
HETATM   11  N1  UNL     1      12.852   5.405  17.013  1.00  0.00    -0.276 N 
ATOM     12  H12 UNL     1      13.344   5.319  16.124  1.00  0.00     0.191 HD
ATOM     13  H11 UNL     1      12.406   5.532  17.922  1.00  0.00     0.191 HD
ENDBRANCH   9  11
ENDBRANCH   1   8
BRANCH   7  14
HETATM   14  N4  UNL     1      16.360   3.816  15.809  1.00  0.00    -0.332 N 
ATOM     15  H4  UNL     1      16.254   2.887  15.401  1.00  0.00     0.168 HD
BRANCH  14  16
HETATM   16  C7  UNL     1      16.340   3.953  17.210  1.00  0.00     0.353 C 
HETATM   17  O2  UNL     1      15.513   4.330  18.006  1.00  0.00    -0.283 OA
ENDBRANCH  14  16
ENDBRANCH   7  14
TORSDOF 4
ENDMDL
MODEL 5
REMARK VINA RESULT: -5.747218771      4.446      6.522
REMARK  4 active torsions:
REMARK  status: ('A' for Active; 'I' for Inactive)
REMARK    1  A    between atoms: N1_1  and  N2_4 
REMARK       I    between atoms: N2_4  and  C1_5 
REMARK    2  A    between atoms: C1_5  and  C2_7 
REMARK    3  A    between atoms: C6_13  and  N4_14 
REMARK    4  A    between atoms: N4_14  and  C7_16 
ROOT
HETATM    1  C2  UNL     1      20.203  16.136  17.584  1.00  0.00     0.144 A 
HETATM    2  N3  UNL     1      19.414  17.173  17.182  1.00  0.00    -0.359 N 
ATOM      3  H3  UNL     1      18.401  17.067  17.241  1.00  0.00     0.165 HD
HETATM    4  C3  UNL     1      19.910  18.321  16.716  1.00  0.00     0.088 A 
HETATM    5  C4  UNL     1      21.263  18.510  16.621  1.00  0.00     0.019 A 
HETATM    6  C5  UNL     1      22.099  17.493  17.013  1.00  0.00     0.033 A 
HETATM    7  C6  UNL     1      21.555  16.299  17.499  1.00  0.00     0.068 A 
ENDROOT
BRANCH   1   8
HETATM    8  C1  UNL     1      19.513  14.905  18.038  1.00  0.00     0.363 C 
HETATM    9  N2  UNL     1      18.771  14.171  17.095  1.00  0.00    -0.287 NA
HETATM   10  O1  UNL     1      19.616  14.575  19.240  1.00  0.00    -0.247 OA
BRANCH   9  11
HETATM   11  N1  UNL     1      18.098  13.507  16.244  1.00  0.00    -0.276 N 
ATOM     12  H12 UNL     1      18.611  14.096  16.901  1.00  0.00     0.191 HD
ATOM     13  H11 UNL     1      17.559  12.973  15.562  1.00  0.00     0.191 HD
ENDBRANCH   9  11
ENDBRANCH   1   8
BRANCH   7  14
HETATM   14  N4  UNL     1      22.395  15.285  17.976  1.00  0.00    -0.332 N 
ATOM     15  H4  UNL     1      22.010  14.579  18.605  1.00  0.00     0.168 HD
BRANCH  14  16
HETATM   16  C7  UNL     1      23.753  15.209  17.614  1.00  0.00     0.353 C 
HETATM   17  O2  UNL     1      24.348  14.724  16.681  1.00  0.00    -0.283 OA
ENDBRANCH  14  16
ENDBRANCH   7  14
TORSDOF 4
ENDMDL
