MODEL 1
REMARK VINA RESULT: -5.825107697      0.000      0.000
REMARK  5 active torsions:
REMARK  status: ('A' for Active; 'I' for Inactive)
REMARK    1  A    between atoms: C1_2  and  C2_4 
REMARK    2  A    between atoms: C2_4  and  C3_5 
REMARK    3  A    between atoms: C3_5  and  N2_6 
REMARK    4  A    between atoms: C3_5  and  C4_10 
REMARK    5  A    between atoms: C4_10  and  C5_12 
ROOT
HETATM    1  C3  UNL     1      16.634  12.897  19.046  1.00  0.00     0.267 C 
ENDROOT
BRANCH   1   2
HETATM    2  C2  UNL     1      15.742  11.772  18.589  1.00  0.00     0.140 C 
BRANCH   2   3
HETATM    3  C1  UNL     1      15.567  10.723  19.606  1.00  0.00     0.233 C 
HETATM    4  N1  UNL     1      14.425  10.809  20.450  1.00  0.00    -0.062 NA
HETATM    5  O1  UNL     1      16.341   9.759  19.790  1.00  0.00    -0.277 OA
ENDBRANCH   2   3
ENDBRANCH   1   2
BRANCH   1   6
HETATM    6  N2  UNL     1      17.166  12.695  20.358  1.00  0.00    -0.067 N 
ATOM      7  H23 UNL     1      16.800  11.837  20.771  1.00  0.00     0.275 HD
ATOM      8  H22 UNL     1      18.155  12.451  20.316  1.00  0.00     0.275 HD
ATOM      9  H21 UNL     1      17.014  13.490  20.979  1.00  0.00     0.275 HD
ENDBRANCH   1   6
BRANCH   1  10
HETATM   10  C4  UNL     1      17.673  13.225  18.041  1.00  0.00     0.207 C 
HETATM   11  O2  UNL     1      18.061  12.354  17.228  1.00  0.00    -0.288 OA
BRANCH  10  12
HETATM   12  C5  UNL     1      18.280  14.544  17.948  1.00  0.00     0.097 A 
HETATM   13  C6  UNL     1      17.804  15.743  18.431  1.00  0.00     0.122 A 
HETATM   14  N3  UNL     1      18.660  16.744  18.143  1.00  0.00    -0.360 N 
HETATM   15  C7  UNL     1      19.686  16.187  17.475  1.00  0.00     0.180 A 
ATOM     16  H3  UNL     1      18.551  17.728  18.385  1.00  0.00     0.166 HD
HETATM   17  N4  UNL     1      19.465  14.870  17.354  1.00  0.00    -0.348 N 
ATOM     18  H4  UNL     1      20.089  14.210  16.889  1.00  0.00     0.167 HD
ENDBRANCH  10  12
ENDBRANCH   1  10
TORSDOF 5
ENDMDL
MODEL 2
REMARK VINA RESULT: -5.819074894      5.919      7.012
REMARK  5 active torsions:
REMARK  status: ('A' for Active; 'I' for Inactive)
REMARK    1  A    between atoms: C1_2  and  C2_4 
REMARK    2  A    between atoms: C2_4  and  C3_5 
REMARK    3  A    between atoms: C3_5  and  N2_6 
REMARK    4  A    between atoms: C3_5  and  C4_10 
REMARK    5  A    between atoms: C4_10  and  C5_12 
ROOT
HETATM    1  C3  UNL     1      21.749  17.356  17.271  1.00  0.00     0.267 C 
ENDROOT
BRANCH   1   2
HETATM    2  C2  UNL     1      21.585  15.966  17.829  1.00  0.00     0.140 C 
BRANCH   2   3
HETATM    3  C1  UNL     1      22.723  15.536  18.657  1.00  0.00     0.233 C 
HETATM    4  N1  UNL     1      22.484  14.523  19.628  1.00  0.00    -0.062 NA
HETATM    5  O1  UNL     1      23.885  15.988  18.579  1.00  0.00    -0.277 OA
ENDBRANCH   2   3
ENDBRANCH   1   2
BRANCH   1   6
HETATM    6  N2  UNL     1      22.767  17.442  16.269  1.00  0.00    -0.067 N 
ATOM      7  H23 UNL     1      23.100  16.514  16.009  1.00  0.00     0.275 HD
ATOM      8  H22 UNL     1      22.373  17.735  15.376  1.00  0.00     0.275 HD
ATOM      9  H21 UNL     1      23.544  18.045  16.538  1.00  0.00     0.275 HD
ENDBRANCH   1   6
BRANCH   1  10
HETATM   10  C4  UNL     1      20.456  17.938  16.839  1.00  0.00     0.207 C 
HETATM   11  O2  UNL     1      19.378  17.391  17.169  1.00  0.00    -0.288 OA
BRANCH  10  12
HETATM   12  C5  UNL     1      20.374  19.145  16.031  1.00  0.00     0.097 A 
HETATM   13  C6  UNL     1      20.270  19.254  14.662  1.00  0.00     0.122 A 
HETATM   14  N3  UNL     1      20.219  20.549  14.292  1.00  0.00    -0.360 N 
HETATM   15  C7  UNL     1      20.292  21.271  15.424  1.00  0.00     0.180 A 
ATOM     16  H3  UNL     1      20.141  20.910  13.341  1.00  0.00     0.166 HD
HETATM   17  N4  UNL     1      20.385  20.437  16.470  1.00  0.00    -0.348 N 
ATOM     18  H4  UNL     1      20.453  20.725  17.446  1.00  0.00     0.167 HD
ENDBRANCH  10  12
ENDBRANCH   1  10
TORSDOF 5
ENDMDL
MODEL 3
REMARK VINA RESULT: -5.777067845      1.439      1.443
REMARK  5 active torsions:
REMARK  status: ('A' for Active; 'I' for Inactive)
REMARK    1  A    between atoms: C1_2  and  C2_4 
REMARK    2  A    between atoms: C2_4  and  C3_5 
REMARK    3  A    between atoms: C3_5  and  N2_6 
REMARK    4  A    between atoms: C3_5  and  C4_10 
REMARK    5  A    between atoms: C4_10  and  C5_12 
ROOT
HETATM    1  C3  UNL     1      17.035  12.315  18.395  1.00  0.00     0.267 C 
ENDROOT
BRANCH   1   2
HETATM    2  C2  UNL     1      15.630  11.992  18.835  1.00  0.00     0.140 C 
BRANCH   2   3
HETATM    3  C1  UNL     1      15.549  10.784  19.670  1.00  0.00     0.233 C 
HETATM    4  N1  UNL     1      14.452  10.679  20.570  1.00  0.00    -0.062 NA
HETATM    5  O1  UNL     1      16.366   9.838  19.655  1.00  0.00    -0.277 OA
ENDBRANCH   2   3
ENDBRANCH   1   2
BRANCH   1   6
HETATM    6  N2  UNL     1      17.131  12.619  17.000  1.00  0.00    -0.067 N 
ATOM      7  H23 UNL     1      16.560  13.430  16.765  1.00  0.00     0.275 HD
ATOM      8  H22 UNL     1      18.052  12.991  16.772  1.00  0.00     0.275 HD
ATOM      9  H21 UNL     1      16.901  11.826  16.401  1.00  0.00     0.275 HD
ENDBRANCH   1   6
BRANCH   1  10
HETATM   10  C4  UNL     1      17.665  13.341  19.259  1.00  0.00     0.207 C 
HETATM   11  O2  UNL     1      17.776  13.146  20.492  1.00  0.00    -0.288 OA
BRANCH  10  12
HETATM   12  C5  UNL     1      18.175  14.599  18.733  1.00  0.00     0.097 A 
HETATM   13  C6  UNL     1      17.524  15.807  18.617  1.00  0.00     0.122 A 
HETATM   14  N3  UNL     1      18.339  16.735  18.079  1.00  0.00    -0.360 N 
HETATM   15  C7  UNL     1      19.514  16.123  17.849  1.00  0.00     0.180 A 
ATOM     16  H3  UNL     1      18.110  17.710  17.885  1.00  0.00     0.166 HD
HETATM   17  N4  UNL     1      19.423  14.843  18.238  1.00  0.00    -0.348 N 
ATOM     18  H4  UNL     1      20.174  14.155  18.174  1.00  0.00     0.167 HD
ENDBRANCH  10  12
ENDBRANCH   1  10
TORSDOF 5
ENDMDL
MODEL 4
REMARK VINA RESULT: -5.718970002      1.749      1.941
REMARK  5 active torsions:
REMARK  status: ('A' for Active; 'I' for Inactive)
REMARK    1  A    between atoms: C1_2  and  C2_4 
REMARK    2  A    between atoms: C2_4  and  C3_5 
REMARK    3  A    between atoms: C3_5  and  N2_6 
REMARK    4  A    between atoms: C3_5  and  C4_10 
REMARK    5  A    between atoms: C4_10  and  C5_12 
ROOT
HETATM    1  C3  UNL     1      17.223  14.052  18.018  1.00  0.00     0.267 C 
ENDROOT
BRANCH   1   2
HETATM    2  C2  UNL     1      17.069  12.557  17.899  1.00  0.00     0.140 C 
BRANCH   2   3
HETATM    3  C1  UNL     1      16.093  11.999  18.848  1.00  0.00     0.233 C 
HETATM    4  N1  UNL     1      14.752  11.848  18.398  1.00  0.00    -0.062 NA
HETATM    5  O1  UNL     1      16.345  11.644  20.019  1.00  0.00    -0.277 OA
ENDBRANCH   2   3
ENDBRANCH   1   2
BRANCH   1   6
HETATM    6  N2  UNL     1      16.087  14.688  18.610  1.00  0.00    -0.067 N 
ATOM      7  H23 UNL     1      15.543  15.188  17.908  1.00  0.00     0.275 HD
ATOM      8  H22 UNL     1      15.394  13.998  18.898  1.00  0.00     0.275 HD
ATOM      9  H21 UNL     1      16.331  15.303  19.386  1.00  0.00     0.275 HD
ENDBRANCH   1   6
BRANCH   1  10
HETATM   10  C4  UNL     1      18.503  14.429  18.662  1.00  0.00     0.207 C 
HETATM   11  O2  UNL     1      18.909  13.805  19.671  1.00  0.00    -0.288 OA
BRANCH  10  12
HETATM   12  C5  UNL     1      19.335  15.516  18.169  1.00  0.00     0.097 A 
HETATM   13  C6  UNL     1      18.955  16.788  17.802  1.00  0.00     0.122 A 
HETATM   14  N3  UNL     1      20.022  17.504  17.397  1.00  0.00    -0.360 N 
HETATM   15  C7  UNL     1      21.088  16.690  17.502  1.00  0.00     0.180 A 
ATOM     16  H3  UNL     1      20.022  18.471  17.074  1.00  0.00     0.166 HD
HETATM   17  N4  UNL     1      20.684  15.498  17.964  1.00  0.00    -0.348 N 
ATOM     18  H4  UNL     1      21.294  14.698  18.137  1.00  0.00     0.167 HD
ENDBRANCH  10  12
ENDBRANCH   1  10
TORSDOF 5
ENDMDL
MODEL 5
REMARK VINA RESULT: -5.667249960      1.614      1.654
REMARK  5 active torsions:
REMARK  status: ('A' for Active; 'I' for Inactive)
REMARK    1  A    between atoms: C1_2  and  C2_4 
REMARK    2  A    between atoms: C2_4  and  C3_5 
REMARK    3  A    between atoms: C3_5  and  N2_6 
REMARK    4  A    between atoms: C3_5  and  C4_10 
REMARK    5  A    between atoms: C4_10  and  C5_12 
ROOT
HETATM    1  C3  UNL     1      17.358  13.210  19.592  1.00  0.00     0.267 C 
ENDROOT
BRANCH   1   2
HETATM    2  C2  UNL     1      17.019  12.022  18.729  1.00  0.00     0.140 C 
BRANCH   2   3
HETATM    3  C1  UNL     1      15.867  11.255  19.227  1.00  0.00     0.233 C 
HETATM    4  N1  UNL     1      16.132  10.014  19.872  1.00  0.00    -0.062 NA
HETATM    5  O1  UNL     1      14.671  11.603  19.131  1.00  0.00    -0.277 OA
ENDBRANCH   2   3
ENDBRANCH   1   2
BRANCH   1   6
HETATM    6  N2  UNL     1      18.682  13.153  20.130  1.00  0.00    -0.067 N 
ATOM      7  H23 UNL     1      19.289  12.583  19.543  1.00  0.00     0.275 HD
ATOM      8  H22 UNL     1      19.152  14.053  20.034  1.00  0.00     0.275 HD
ATOM      9  H21 UNL     1      18.707  12.832  21.098  1.00  0.00     0.275 HD
ENDBRANCH   1   6
BRANCH   1  10
HETATM   10  C4  UNL     1      17.060  14.493  18.912  1.00  0.00     0.207 C 
HETATM   11  O2  UNL     1      15.874  14.876  18.780  1.00  0.00    -0.288 OA
BRANCH  10  12
HETATM   12  C5  UNL     1      18.104  15.353  18.376  1.00  0.00     0.097 A 
HETATM   13  C6  UNL     1      18.117  16.727  18.279  1.00  0.00     0.122 A 
HETATM   14  N3  UNL     1      19.268  17.153  17.723  1.00  0.00    -0.360 N 
HETATM   15  C7  UNL     1      19.994  16.051  17.461  1.00  0.00     0.180 A 
ATOM     16  H3  UNL     1      19.536  18.119  17.537  1.00  0.00     0.166 HD
HETATM   17  N4  UNL     1      19.304  14.969  17.850  1.00  0.00    -0.348 N 
ATOM     18  H4  UNL     1      19.626  14.005  17.765  1.00  0.00     0.167 HD
ENDBRANCH  10  12
ENDBRANCH   1  10
TORSDOF 5
ENDMDL
