MODEL 1
REMARK VINA RESULT: -7.196569317      0.000      0.000
REMARK  5 active torsions:
REMARK  status: ('A' for Active; 'I' for Inactive)
REMARK    1  A    between atoms: C1_2  and  C2_4 
REMARK    2  A    between atoms: C4_6  and  N2_7 
REMARK    3  A    between atoms: N2_7  and  C5_9 
REMARK    4  A    between atoms: C5_9  and  N3_10 
REMARK    5  A    between atoms: N3_10  and  O2_12 
ROOT
HETATM    1  C2  UNL     1      16.842  12.591  19.197  1.00  0.00     0.116 A 
HETATM    2  C3  UNL     1      17.271  13.048  17.955  1.00  0.00     0.085 A 
HETATM    3  C4  UNL     1      18.216  14.023  18.174  1.00  0.00     0.119 A 
HETATM    4  N4  UNL     1      18.357  14.155  19.495  1.00  0.00    -0.285 N 
ATOM      5  H4  UNL     1      18.988  14.802  19.967  1.00  0.00     0.188 HD
HETATM    6  N5  UNL     1      17.524  13.289  20.095  1.00  0.00    -0.294 N 
ATOM      7  H5  UNL     1      17.430  13.182  21.105  1.00  0.00     0.187 HD
ENDROOT
BRANCH   3   8
HETATM    8  N2  UNL     1      18.832  14.669  17.252  1.00  0.00    -0.357 N 
ATOM      9  H2  UNL     1      18.633  14.446  16.277  1.00  0.00     0.162 HD
BRANCH   8  10
HETATM   10  C5  UNL     1      19.803  15.705  17.551  1.00  0.00     0.269 C 
BRANCH  10  11
HETATM   11  N3  UNL     1      19.167  16.997  17.719  1.00  0.00    -0.287 N 
ATOM     12  H3  UNL     1      18.154  17.096  17.771  1.00  0.00     0.189 HD
BRANCH  11  13
HETATM   13  O2  UNL     1      19.908  17.951  17.793  1.00  0.00    -0.293 OA
ATOM     14  H2  UNL     1      20.369  18.188  16.997  1.00  0.00     0.244 HD
ENDBRANCH  11  13
ENDBRANCH  10  11
ENDBRANCH   8  10
ENDBRANCH   3   8
BRANCH   1  15
HETATM   15  C1  UNL     1      15.842  11.557  19.350  1.00  0.00     0.282 C 
HETATM   16  N1  UNL     1      16.272  10.301  19.860  1.00  0.00    -0.056 NA
HETATM   17  O1  UNL     1      14.630  11.718  19.056  1.00  0.00    -0.269 OA
ENDBRANCH   1  15
TORSDOF 5
ENDMDL
MODEL 2
REMARK VINA RESULT: -6.907423766      1.069      1.250
REMARK  5 active torsions:
REMARK  status: ('A' for Active; 'I' for Inactive)
REMARK    1  A    between atoms: C1_2  and  C2_4 
REMARK    2  A    between atoms: C4_6  and  N2_7 
REMARK    3  A    between atoms: N2_7  and  C5_9 
REMARK    4  A    between atoms: C5_9  and  N3_10 
REMARK    5  A    between atoms: N3_10  and  O2_12 
ROOT
HETATM    1  C2  UNL     1      16.525  12.527  18.891  1.00  0.00     0.116 A 
HETATM    2  C3  UNL     1      17.548  13.239  19.511  1.00  0.00     0.085 A 
HETATM    3  C4  UNL     1      18.040  14.141  18.597  1.00  0.00     0.119 A 
HETATM    4  N4  UNL     1      17.347  13.984  17.467  1.00  0.00    -0.285 N 
ATOM      5  H4  UNL     1      17.482  14.513  16.605  1.00  0.00     0.188 HD
HETATM    6  N5  UNL     1      16.442  13.011  17.659  1.00  0.00    -0.294 N 
ATOM      7  H5  UNL     1      15.780  12.688  16.954  1.00  0.00     0.187 HD
ENDROOT
BRANCH   3   8
HETATM    8  N2  UNL     1      18.993  14.969  18.823  1.00  0.00    -0.357 N 
ATOM      9  H2  UNL     1      19.313  15.104  19.782  1.00  0.00     0.162 HD
BRANCH   8  10
HETATM   10  C5  UNL     1      19.632  15.722  17.759  1.00  0.00     0.269 C 
BRANCH  10  11
HETATM   11  N3  UNL     1      19.155  17.089  17.714  1.00  0.00    -0.287 N 
ATOM     12  H3  UNL     1      18.163  17.312  17.632  1.00  0.00     0.189 HD
BRANCH  11  13
HETATM   13  O2  UNL     1      20.001  17.952  17.781  1.00  0.00    -0.293 OA
ATOM     14  H2  UNL     1      19.764  18.800  17.424  1.00  0.00     0.244 HD
ENDBRANCH  11  13
ENDBRANCH  10  11
ENDBRANCH   8  10
ENDBRANCH   3   8
BRANCH   1  15
HETATM   15  C1  UNL     1      15.776  11.485  19.561  1.00  0.00     0.282 C 
HETATM   16  N1  UNL     1      16.469  10.287  19.886  1.00  0.00    -0.056 NA
HETATM   17  O1  UNL     1      14.561  11.593  19.862  1.00  0.00    -0.269 OA
ENDBRANCH   1  15
TORSDOF 5
ENDMDL
MODEL 3
REMARK VINA RESULT: -6.802117902      1.365      1.377
REMARK  5 active torsions:
REMARK  status: ('A' for Active; 'I' for Inactive)
REMARK    1  A    between atoms: C1_2  and  C2_4 
REMARK    2  A    between atoms: C4_6  and  N2_7 
REMARK    3  A    between atoms: N2_7  and  C5_9 
REMARK    4  A    between atoms: C5_9  and  N3_10 
REMARK    5  A    between atoms: N3_10  and  O2_12 
ROOT
HETATM    1  C2  UNL     1      17.126  13.121  19.386  1.00  0.00     0.116 A 
HETATM    2  C3  UNL     1      17.189  14.116  18.415  1.00  0.00     0.085 A 
HETATM    3  C4  UNL     1      18.098  15.055  18.840  1.00  0.00     0.119 A 
HETATM    4  N4  UNL     1      18.570  14.650  20.021  1.00  0.00    -0.285 N 
ATOM      5  H4  UNL     1      19.263  15.139  20.588  1.00  0.00     0.188 HD
HETATM    6  N5  UNL     1      17.976  13.487  20.335  1.00  0.00    -0.294 N 
ATOM      7  H5  UNL     1      18.154  12.958  21.188  1.00  0.00     0.187 HD
ENDROOT
BRANCH   3   8
HETATM    8  N2  UNL     1      18.414  16.118  18.194  1.00  0.00    -0.357 N 
ATOM      9  H2  UNL     1      17.705  16.837  18.052  1.00  0.00     0.162 HD
BRANCH   8  10
HETATM   10  C5  UNL     1      19.746  16.330  17.658  1.00  0.00     0.269 C 
BRANCH  10  11
HETATM   11  N3  UNL     1      20.093  17.736  17.636  1.00  0.00    -0.287 N 
ATOM     12  H3  UNL     1      19.433  18.449  17.326  1.00  0.00     0.189 HD
BRANCH  11  13
HETATM   13  O2  UNL     1      21.210  18.016  18.007  1.00  0.00    -0.293 OA
ATOM     14  H2  UNL     1      21.912  17.850  17.388  1.00  0.00     0.244 HD
ENDBRANCH  11  13
ENDBRANCH  10  11
ENDBRANCH   8  10
ENDBRANCH   3   8
BRANCH   1  15
HETATM   15  C1  UNL     1      16.263  11.965  19.270  1.00  0.00     0.282 C 
HETATM   16  N1  UNL     1      14.971  12.166  18.713  1.00  0.00    -0.056 NA
HETATM   17  O1  UNL     1      16.601  10.811  19.636  1.00  0.00    -0.269 OA
ENDBRANCH   1  15
TORSDOF 5
ENDMDL
MODEL 4
REMARK VINA RESULT: -6.762808875      1.592      1.643
REMARK  5 active torsions:
REMARK  status: ('A' for Active; 'I' for Inactive)
REMARK    1  A    between atoms: C1_2  and  C2_4 
REMARK    2  A    between atoms: C4_6  and  N2_7 
REMARK    3  A    between atoms: N2_7  and  C5_9 
REMARK    4  A    between atoms: C5_9  and  N3_10 
REMARK    5  A    between atoms: N3_10  and  O2_12 
ROOT
HETATM    1  C2  UNL     1      16.924  13.489  18.735  1.00  0.00     0.116 A 
HETATM    2  C3  UNL     1      18.314  13.547  18.766  1.00  0.00     0.085 A 
HETATM    3  C4  UNL     1      18.680  14.856  18.559  1.00  0.00     0.119 A 
HETATM    4  N4  UNL     1      17.559  15.566  18.408  1.00  0.00    -0.285 N 
ATOM      5  H4  UNL     1      17.507  16.572  18.240  1.00  0.00     0.188 HD
HETATM    6  N5  UNL     1      16.514  14.731  18.516  1.00  0.00    -0.294 N 
ATOM      7  H5  UNL     1      15.537  15.013  18.439  1.00  0.00     0.187 HD
ENDROOT
BRANCH   3   8
HETATM    8  N2  UNL     1      19.889  15.285  18.524  1.00  0.00    -0.357 N 
ATOM      9  H2  UNL     1      20.519  15.044  19.289  1.00  0.00     0.162 HD
BRANCH   8  10
HETATM   10  C5  UNL     1      20.389  16.100  17.433  1.00  0.00     0.269 C 
BRANCH  10  11
HETATM   11  N3  UNL     1      20.428  17.503  17.792  1.00  0.00    -0.287 N 
ATOM     12  H3  UNL     1      21.295  17.966  18.064  1.00  0.00     0.189 HD
BRANCH  11  13
HETATM   13  O2  UNL     1      19.373  18.094  17.751  1.00  0.00    -0.293 OA
ATOM     14  H2  UNL     1      19.314  18.885  18.274  1.00  0.00     0.244 HD
ENDBRANCH  11  13
ENDBRANCH  10  11
ENDBRANCH   8  10
ENDBRANCH   3   8
BRANCH   1  15
HETATM   15  C1  UNL     1      16.186  12.257  18.917  1.00  0.00     0.282 C 
HETATM   16  N1  UNL     1      14.825  12.242  18.503  1.00  0.00    -0.056 NA
HETATM   17  O1  UNL     1      16.687  11.219  19.417  1.00  0.00    -0.269 OA
ENDBRANCH   1  15
TORSDOF 5
ENDMDL
MODEL 5
REMARK VINA RESULT: -6.668354653      2.352      2.693
REMARK  5 active torsions:
REMARK  status: ('A' for Active; 'I' for Inactive)
REMARK    1  A    between atoms: C1_2  and  C2_4 
REMARK    2  A    between atoms: C4_6  and  N2_7 
REMARK    3  A    between atoms: N2_7  and  C5_9 
REMARK    4  A    between atoms: C5_9  and  N3_10 
REMARK    5  A    between atoms: N3_10  and  O2_12 
ROOT
HETATM    1  C2  UNL     1      15.403  11.180  19.431  1.00  0.00     0.116 A 
HETATM    2  C3  UNL     1      15.381  12.163  18.446  1.00  0.00     0.085 A 
HETATM    3  C4  UNL     1      16.359  13.080  18.750  1.00  0.00     0.119 A 
HETATM    4  N4  UNL     1      16.953  12.673  19.875  1.00  0.00    -0.285 N 
ATOM      5  H4  UNL     1      17.720  13.148  20.351  1.00  0.00     0.188 HD
HETATM    6  N5  UNL     1      16.367  11.532  20.271  1.00  0.00    -0.294 N 
ATOM      7  H5  UNL     1      16.629  11.006  21.105  1.00  0.00     0.187 HD
ENDROOT
BRANCH   3   8
HETATM    8  N2  UNL     1      16.627  14.126  18.057  1.00  0.00    -0.357 N 
ATOM      9  H2  UNL     1      16.417  14.122  17.059  1.00  0.00     0.162 HD
BRANCH   8  10
HETATM   10  C5  UNL     1      17.220  15.312  18.646  1.00  0.00     0.269 C 
BRANCH  10  11
HETATM   11  N3  UNL     1      16.348  16.462  18.515  1.00  0.00    -0.287 N 
ATOM     12  H3  UNL     1      16.629  17.296  17.999  1.00  0.00     0.189 HD
BRANCH  11  13
HETATM   13  O2  UNL     1      15.268  16.378  19.054  1.00  0.00    -0.293 OA
ATOM     14  H2  UNL     1      15.256  16.520  19.994  1.00  0.00     0.244 HD
ENDBRANCH  11  13
ENDBRANCH  10  11
ENDBRANCH   8  10
ENDBRANCH   3   8
BRANCH   1  15
HETATM   15  C1  UNL     1      14.502  10.048  19.431  1.00  0.00     0.282 C 
HETATM   16  N1  UNL     1      13.932   9.666  20.677  1.00  0.00    -0.056 NA
HETATM   17  O1  UNL     1      14.207   9.399  18.396  1.00  0.00    -0.269 OA
ENDBRANCH   1  15
TORSDOF 5
ENDMDL
