MODEL 1
REMARK VINA RESULT: -8.925466372      0.000      0.000
REMARK  18 active torsions:
REMARK  status: ('A' for Active; 'I' for Inactive)
REMARK    1  A    between atoms: C2_2  and  C3_3 
REMARK    2  A    between atoms: C3_3  and  N1_4 
REMARK    3  A    between atoms: C5_6  and  C6_7 
REMARK       I    between atoms: C6_7  and  N2_9 
REMARK    4  A    between atoms: N2_9  and  C7_11 
REMARK    5  A    between atoms: C8_12  and  C9_13 
REMARK    6  A    between atoms: C9_13  and  C10_14 
REMARK    7  A    between atoms: C10_14  and  N3_15 
REMARK    8  A    between atoms: C10_14  and  N4_19 
REMARK    9  A    between atoms: C11_24  and  O3_25 
REMARK   10  A    between atoms: O3_25  and  C12_26 
REMARK   11  A    between atoms: C12_26  and  C13_27 
REMARK   12  A    between atoms: N5_29  and  C15_30 
REMARK   13  A    between atoms: C16_31  and  N6_32 
REMARK   14  A    between atoms: C18_37  and  N7_38 
REMARK   15  A    between atoms: C19_42  and  O4_43 
REMARK   16  A    between atoms: C20_45  and  O5_46 
REMARK   17  A    between atoms: C22_57  and  N13_58 
REMARK   18  A    between atoms: C23_63  and  N15_64 
ROOT
HETATM    1  C7  UNL     1      82.738   4.891 129.741  1.00  0.00     0.169 C 
HETATM    2  C8  UNL     1      81.799   4.783 130.850  1.00  0.00     0.155 C 
HETATM    3  O2  UNL     1      80.988   5.763 130.251  1.00  0.00    -0.351 OA
HETATM    4  C11 UNL     1      81.578   5.550 129.008  1.00  0.00     0.285 C 
ENDROOT
BRANCH   1   5
HETATM    5  N2  UNL     1      83.262   3.726 129.084  1.00  0.00    -0.344 N 
HETATM    6  C6  UNL     1      84.129   3.725 127.997  1.00  0.00     0.271 C 
HETATM    7  O1  UNL     1      84.515   4.810 127.515  1.00  0.00    -0.266 OA
ATOM      8  H2  UNL     1      82.971   2.819 129.447  1.00  0.00     0.163 HD
BRANCH   6   9
HETATM    9  C5  UNL     1      84.600   2.485 127.404  1.00  0.00     0.134 A 
HETATM   10  C4  UNL     1      84.475   1.332 128.014  1.00  0.00     0.151 A 
HETATM   11  N1  UNL     1      84.908   0.063 127.509  1.00  0.00    -0.164 N 
HETATM   12  C21 UNL     1      85.523   0.049 126.251  1.00  0.00     0.739 A 
HETATM   13  N11 UNL     1      85.688   1.225 125.555  1.00  0.00     0.092 N 
HETATM   14  N12 UNL     1      85.951  -1.105 125.752  1.00  0.00    -0.019 N 
HETATM   15  N10 UNL     1      85.237   2.425 126.115  1.00  0.00    -0.258 N 
HETATM   16  C23 UNL     1      86.287   1.186 124.361  1.00  0.00     0.727 A 
ATOM     17  H10 UNL     1      85.364   3.290 125.590  1.00  0.00     0.189 HD
HETATM   18  N14 UNL     1      86.714  -0.021 123.878  1.00  0.00    -0.020 N 
HETATM   19  C22 UNL     1      86.551  -1.161 124.563  1.00  0.00     0.705 A 
ATOM     20  H14 UNL     1      87.171  -0.054 122.967  1.00  0.00     0.203 HD
ATOM     21  H12 UNL     1      85.820  -1.962 126.287  1.00  0.00     0.203 HD
BRANCH  11  22
HETATM   22  C3  UNL     1      84.710  -1.128 128.305  1.00  0.00     0.114 C 
BRANCH  22  23
HETATM   23  C2  UNL     1      85.453  -1.240 129.539  1.00  0.00     0.008 C 
HETATM   24  C1  UNL     1      85.467  -2.394 130.193  1.00  0.00     0.013 C 
ENDBRANCH  22  23
ENDBRANCH  11  22
BRANCH  16  25
HETATM   25  N15 UNL     1      86.494   2.213 123.622  1.00  0.00    -0.232 N 
ATOM     26 2H15 UNL     1      85.882   3.017 123.766  1.00  0.00     0.174 HD
ATOM     27 1H15 UNL     1      87.223   2.273 122.911  1.00  0.00     0.174 HD
ENDBRANCH  16  25
BRANCH  19  28
HETATM   28  N13 UNL     1      86.971  -2.306 124.080  1.00  0.00    -0.234 N 
ATOM     29 2H13 UNL     1      87.127  -3.108 124.690  1.00  0.00     0.174 HD
ATOM     30 1H13 UNL     1      87.149  -2.414 123.081  1.00  0.00     0.174 HD
ENDBRANCH  19  28
ENDBRANCH   6   9
ENDBRANCH   1   5
BRANCH   2  31
HETATM   31  C9  UNL     1      81.017   3.542 131.072  1.00  0.00     0.096 C 
BRANCH  31  32
HETATM   32  C10 UNL     1      79.577   3.933 131.345  1.00  0.00     0.380 C 
BRANCH  32  33
HETATM   33  N3  UNL     1      78.727   3.781 130.186  1.00  0.00    -0.050 N 
ATOM     34  H33 UNL     1      79.218   4.052 129.335  1.00  0.00     0.276 HD
ATOM     35  H32 UNL     1      78.565   2.797 129.978  1.00  0.00     0.276 HD
ATOM     36  H31 UNL     1      77.844   4.286 130.275  1.00  0.00     0.276 HD
ENDBRANCH  32  33
BRANCH  32  37
HETATM   37  N4  UNL     1      79.042   3.214 132.499  1.00  0.00    -0.050 N 
ATOM     38  H43 UNL     1      79.348   2.241 132.508  1.00  0.00     0.276 HD
ATOM     39  H42 UNL     1      79.477   3.524 133.368  1.00  0.00     0.276 HD
ATOM     40  H41 UNL     1      78.025   3.288 132.542  1.00  0.00     0.276 HD
ENDBRANCH  32  37
ENDBRANCH  31  32
ENDBRANCH   2  31
BRANCH   4  41
HETATM   41  O3  UNL     1      80.901   4.712 128.151  1.00  0.00    -0.353 OA
BRANCH  41  42
HETATM   42  C12 UNL     1      80.535   5.254 126.950  1.00  0.00     0.230 C 
BRANCH  42  43
HETATM   43  C13 UNL     1      81.514   5.121 125.864  1.00  0.00     0.064 A 
HETATM   44  C14 UNL     1      82.086   6.143 125.171  1.00  0.00     0.137 A 
HETATM   45  N5  UNL     1      82.905   5.583 124.275  1.00  0.00    -0.276 N 
HETATM   46  N8  UNL     1      82.852   4.252 124.399  1.00  0.00    -0.020 NA
HETATM   47  N9  UNL     1      81.999   3.970 125.376  1.00  0.00    -0.285 N 
ATOM     48  H9  UNL     1      81.753   3.034 125.700  1.00  0.00     0.184 HD
BRANCH  45  49
HETATM   49  C15 UNL     1      83.754   6.245 123.284  1.00  0.00     0.167 C 
HETATM   50  C16 UNL     1      83.286   5.914 121.905  1.00  0.00     0.212 C 
HETATM   51  C17 UNL     1      83.874   4.690 121.298  1.00  0.00     0.070 C 
HETATM   52  C18 UNL     1      85.344   4.486 121.572  1.00  0.00     0.216 C 
HETATM   53  C19 UNL     1      85.974   5.578 122.365  1.00  0.00     0.179 C 
HETATM   54  C20 UNL     1      85.174   5.910 123.584  1.00  0.00     0.175 C 
BRANCH  50  55
HETATM   55  N6  UNL     1      83.354   7.091 121.025  1.00  0.00    -0.073 N 
ATOM     56  H63 UNL     1      82.625   7.068 120.311  1.00  0.00     0.274 HD
ATOM     57  H62 UNL     1      83.068   7.940 121.511  1.00  0.00     0.274 HD
ATOM     58  H61 UNL     1      84.281   7.189 120.612  1.00  0.00     0.274 HD
ENDBRANCH  50  55
BRANCH  52  59
HETATM   59  N7  UNL     1      86.102   4.223 120.390  1.00  0.00    -0.072 N 
ATOM     60  H73 UNL     1      86.889   3.606 120.591  1.00  0.00     0.274 HD
ATOM     61  H72 UNL     1      85.581   3.625 119.749  1.00  0.00     0.274 HD
ATOM     62  H71 UNL     1      86.417   5.072 119.921  1.00  0.00     0.274 HD
ENDBRANCH  52  59
BRANCH  53  63
HETATM   63  O4  UNL     1      86.285   6.701 121.615  1.00  0.00    -0.391 OA
ATOM     64  H4  UNL     1      86.966   7.240 121.999  1.00  0.00     0.210 HD
ENDBRANCH  53  63
BRANCH  54  65
HETATM   65  O5  UNL     1      85.303   4.911 124.551  1.00  0.00    -0.391 OA
ATOM     66  H5  UNL     1      84.764   5.068 125.317  1.00  0.00     0.210 HD
ENDBRANCH  54  65
ENDBRANCH  45  49
ENDBRANCH  42  43
ENDBRANCH  41  42
ENDBRANCH   4  41
TORSDOF 18
ENDMDL
MODEL 2
REMARK VINA RESULT: -8.915224467      5.350      9.627
REMARK  18 active torsions:
REMARK  status: ('A' for Active; 'I' for Inactive)
REMARK    1  A    between atoms: C2_2  and  C3_3 
REMARK    2  A    between atoms: C3_3  and  N1_4 
REMARK    3  A    between atoms: C5_6  and  C6_7 
REMARK       I    between atoms: C6_7  and  N2_9 
REMARK    4  A    between atoms: N2_9  and  C7_11 
REMARK    5  A    between atoms: C8_12  and  C9_13 
REMARK    6  A    between atoms: C9_13  and  C10_14 
REMARK    7  A    between atoms: C10_14  and  N3_15 
REMARK    8  A    between atoms: C10_14  and  N4_19 
REMARK    9  A    between atoms: C11_24  and  O3_25 
REMARK   10  A    between atoms: O3_25  and  C12_26 
REMARK   11  A    between atoms: C12_26  and  C13_27 
REMARK   12  A    between atoms: N5_29  and  C15_30 
REMARK   13  A    between atoms: C16_31  and  N6_32 
REMARK   14  A    between atoms: C18_37  and  N7_38 
REMARK   15  A    between atoms: C19_42  and  O4_43 
REMARK   16  A    between atoms: C20_45  and  O5_46 
REMARK   17  A    between atoms: C22_57  and  N13_58 
REMARK   18  A    between atoms: C23_63  and  N15_64 
ROOT
HETATM    1  C7  UNL     1      85.248   1.760 119.220  1.00  0.00     0.169 C 
HETATM    2  C8  UNL     1      86.095   1.224 120.277  1.00  0.00     0.155 C 
HETATM    3  O2  UNL     1      86.487   2.530 120.618  1.00  0.00    -0.351 OA
HETATM    4  C11 UNL     1      85.377   3.074 119.978  1.00  0.00     0.285 C 
ENDROOT
BRANCH   1   5
HETATM    5  N2  UNL     1      83.894   1.315 119.043  1.00  0.00    -0.344 N 
HETATM    6  C6  UNL     1      82.968   1.856 118.158  1.00  0.00     0.271 C 
HETATM    7  O1  UNL     1      83.298   2.816 117.431  1.00  0.00    -0.266 OA
ATOM      8  H2  UNL     1      83.584   0.532 119.618  1.00  0.00     0.163 HD
BRANCH   6   9
HETATM    9  C5  UNL     1      81.618   1.329 118.057  1.00  0.00     0.134 A 
HETATM   10  C4  UNL     1      80.659   1.989 117.454  1.00  0.00     0.151 A 
HETATM   11  N1  UNL     1      79.303   1.552 117.306  1.00  0.00    -0.164 N 
HETATM   12  C21 UNL     1      78.966   0.309 117.856  1.00  0.00     0.739 A 
HETATM   13  N11 UNL     1      79.924  -0.437 118.504  1.00  0.00     0.092 N 
HETATM   14  N12 UNL     1      77.716  -0.129 117.753  1.00  0.00    -0.019 N 
HETATM   15  N10 UNL     1      81.228   0.058 118.606  1.00  0.00    -0.258 N 
HETATM   16  C23 UNL     1      79.574  -1.616 119.028  1.00  0.00     0.727 A 
ATOM     17  H10 UNL     1      81.930  -0.504 119.088  1.00  0.00     0.189 HD
HETATM   18  N14 UNL     1      78.278  -2.034 118.901  1.00  0.00    -0.020 N 
HETATM   19  C22 UNL     1      77.351  -1.301 118.270  1.00  0.00     0.705 A 
ATOM     20  H14 UNL     1      78.008  -2.933 119.300  1.00  0.00     0.203 HD
ATOM     21  H12 UNL     1      77.024   0.443 117.270  1.00  0.00     0.203 HD
BRANCH  11  22
HETATM   22  C3  UNL     1      78.350   2.398 116.622  1.00  0.00     0.114 C 
BRANCH  22  23
HETATM   23  C2  UNL     1      78.735   2.937 115.339  1.00  0.00     0.008 C 
HETATM   24  C1  UNL     1      78.022   2.635 114.260  1.00  0.00     0.013 C 
ENDBRANCH  22  23
ENDBRANCH  11  22
BRANCH  16  25
HETATM   25  N15 UNL     1      80.379  -2.397 119.651  1.00  0.00    -0.232 N 
ATOM     26 2H15 UNL     1      81.286  -2.568 119.217  1.00  0.00     0.174 HD
ATOM     27 1H15 UNL     1      80.168  -2.848 120.541  1.00  0.00     0.174 HD
ENDBRANCH  16  25
BRANCH  19  28
HETATM   28  N13 UNL     1      76.114  -1.723 118.163  1.00  0.00    -0.234 N 
ATOM     29 2H13 UNL     1      75.551  -1.914 118.992  1.00  0.00     0.174 HD
ATOM     30 1H13 UNL     1      75.691  -1.868 117.246  1.00  0.00     0.174 HD
ENDBRANCH  19  28
ENDBRANCH   6   9
ENDBRANCH   1   5
BRANCH   2  31
HETATM   31  C9  UNL     1      85.507   0.544 121.457  1.00  0.00     0.096 C 
BRANCH  31  32
HETATM   32  C10 UNL     1      86.424   0.775 122.642  1.00  0.00     0.380 C 
BRANCH  32  33
HETATM   33  N3  UNL     1      87.824   0.735 122.284  1.00  0.00    -0.050 N 
ATOM     34  H33 UNL     1      88.373   0.268 123.005  1.00  0.00     0.276 HD
ATOM     35  H32 UNL     1      87.985   0.090 121.511  1.00  0.00     0.276 HD
ATOM     36  H31 UNL     1      88.205   1.658 122.074  1.00  0.00     0.276 HD
ENDBRANCH  32  33
BRANCH  32  37
HETATM   37  N4  UNL     1      86.087   2.013 123.341  1.00  0.00    -0.050 N 
ATOM     38  H43 UNL     1      85.088   2.212 123.287  1.00  0.00     0.276 HD
ATOM     39  H42 UNL     1      86.172   1.907 124.352  1.00  0.00     0.276 HD
ATOM     40  H41 UNL     1      86.644   2.796 122.999  1.00  0.00     0.276 HD
ENDBRANCH  32  37
ENDBRANCH  31  32
ENDBRANCH   2  31
BRANCH   4  41
HETATM   41  O3  UNL     1      84.299   3.372 120.782  1.00  0.00    -0.353 OA
BRANCH  41  42
HETATM   42  C12 UNL     1      83.869   4.669 120.748  1.00  0.00     0.230 C 
BRANCH  42  43
HETATM   43  C13 UNL     1      84.092   5.448 121.972  1.00  0.00     0.064 A 
HETATM   44  C14 UNL     1      83.962   4.992 123.248  1.00  0.00     0.137 A 
HETATM   45  N5  UNL     1      84.249   6.022 124.050  1.00  0.00    -0.276 N 
HETATM   46  N8  UNL     1      84.550   7.092 123.307  1.00  0.00    -0.020 NA
HETATM   47  N9  UNL     1      84.454   6.739 122.031  1.00  0.00    -0.285 N 
ATOM     48  H9  UNL     1      84.627   7.346 121.229  1.00  0.00     0.184 HD
BRANCH  45  49
HETATM   49  C15 UNL     1      84.254   6.059 125.514  1.00  0.00     0.167 C 
HETATM   50  C16 UNL     1      84.113   4.678 126.061  1.00  0.00     0.212 C 
HETATM   51  C17 UNL     1      82.719   4.205 126.277  1.00  0.00     0.070 C 
HETATM   52  C18 UNL     1      81.773   5.244 126.830  1.00  0.00     0.216 C 
HETATM   53  C19 UNL     1      82.411   6.558 127.117  1.00  0.00     0.179 C 
HETATM   54  C20 UNL     1      83.228   7.042 125.962  1.00  0.00     0.175 C 
BRANCH  50  55
HETATM   55  N6  UNL     1      84.983   4.479 127.232  1.00  0.00    -0.073 N 
ATOM     56  H63 UNL     1      85.946   4.291 126.955  1.00  0.00     0.274 HD
ATOM     57  H62 UNL     1      85.133   5.351 127.739  1.00  0.00     0.274 HD
ATOM     58  H61 UNL     1      84.618   3.747 127.842  1.00  0.00     0.274 HD
ENDBRANCH  50  55
BRANCH  52  59
HETATM   59  N7  UNL     1      81.039   4.783 127.965  1.00  0.00    -0.072 N 
ATOM     60  H73 UNL     1      81.125   3.771 128.069  1.00  0.00     0.274 HD
ATOM     61  H72 UNL     1      81.487   5.078 128.832  1.00  0.00     0.274 HD
ATOM     62  H71 UNL     1      80.059   5.065 127.948  1.00  0.00     0.274 HD
ENDBRANCH  52  59
BRANCH  53  63
HETATM   63  O4  UNL     1      83.114   6.586 128.311  1.00  0.00    -0.391 OA
ATOM     64  H4  UNL     1      83.955   7.022 128.248  1.00  0.00     0.210 HD
ENDBRANCH  53  63
BRANCH  54  65
HETATM   65  O5  UNL     1      82.408   7.482 124.921  1.00  0.00    -0.391 OA
ATOM     66  H5  UNL     1      81.778   8.137 125.200  1.00  0.00     0.210 HD
ENDBRANCH  54  65
ENDBRANCH  45  49
ENDBRANCH  42  43
ENDBRANCH  41  42
ENDBRANCH   4  41
TORSDOF 18
ENDMDL
MODEL 3
REMARK VINA RESULT: -8.875392411      2.924      4.812
REMARK  18 active torsions:
REMARK  status: ('A' for Active; 'I' for Inactive)
REMARK    1  A    between atoms: C2_2  and  C3_3 
REMARK    2  A    between atoms: C3_3  and  N1_4 
REMARK    3  A    between atoms: C5_6  and  C6_7 
REMARK       I    between atoms: C6_7  and  N2_9 
REMARK    4  A    between atoms: N2_9  and  C7_11 
REMARK    5  A    between atoms: C8_12  and  C9_13 
REMARK    6  A    between atoms: C9_13  and  C10_14 
REMARK    7  A    between atoms: C10_14  and  N3_15 
REMARK    8  A    between atoms: C10_14  and  N4_19 
REMARK    9  A    between atoms: C11_24  and  O3_25 
REMARK   10  A    between atoms: O3_25  and  C12_26 
REMARK   11  A    between atoms: C12_26  and  C13_27 
REMARK   12  A    between atoms: N5_29  and  C15_30 
REMARK   13  A    between atoms: C16_31  and  N6_32 
REMARK   14  A    between atoms: C18_37  and  N7_38 
REMARK   15  A    between atoms: C19_42  and  O4_43 
REMARK   16  A    between atoms: C20_45  and  O5_46 
REMARK   17  A    between atoms: C22_57  and  N13_58 
REMARK   18  A    between atoms: C23_63  and  N15_64 
ROOT
HETATM    1  C7  UNL     1      84.224   6.538 124.792  1.00  0.00     0.169 C 
HETATM    2  C8  UNL     1      82.879   6.978 125.136  1.00  0.00     0.155 C 
HETATM    3  O2  UNL     1      82.861   7.799 123.995  1.00  0.00    -0.351 OA
HETATM    4  C11 UNL     1      83.891   7.072 123.405  1.00  0.00     0.285 C 
ENDROOT
BRANCH   1   5
HETATM    5  N2  UNL     1      84.589   5.149 124.813  1.00  0.00    -0.344 N 
HETATM    6  C6  UNL     1      84.754   4.367 125.951  1.00  0.00     0.271 C 
HETATM    7  O1  UNL     1      84.579   4.875 127.079  1.00  0.00    -0.266 OA
ATOM      8  H2  UNL     1      84.742   4.696 123.913  1.00  0.00     0.163 HD
BRANCH   6   9
HETATM    9  C5  UNL     1      85.128   2.966 125.862  1.00  0.00     0.134 A 
HETATM   10  C4  UNL     1      84.808   2.102 126.794  1.00  0.00     0.151 A 
HETATM   11  N1  UNL     1      85.131   0.707 126.792  1.00  0.00    -0.164 N 
HETATM   12  C21 UNL     1      85.857   0.217 125.699  1.00  0.00     0.739 A 
HETATM   13  N11 UNL     1      86.226   1.071 124.684  1.00  0.00     0.092 N 
HETATM   14  N12 UNL     1      86.189  -1.068 125.664  1.00  0.00    -0.019 N 
HETATM   15  N10 UNL     1      85.871   2.421 124.758  1.00  0.00    -0.258 N 
HETATM   16  C23 UNL     1      86.927   0.580 123.656  1.00  0.00     0.727 A 
ATOM     17  H10 UNL     1      86.150   3.044 124.000  1.00  0.00     0.189 HD
HETATM   18  N14 UNL     1      87.249  -0.749 123.654  1.00  0.00    -0.020 N 
HETATM   19  C22 UNL     1      86.887  -1.572 124.647  1.00  0.00     0.705 A 
ATOM     20  H14 UNL     1      87.784  -1.126 122.871  1.00  0.00     0.203 HD
ATOM     21  H12 UNL     1      85.906  -1.680 126.429  1.00  0.00     0.203 HD
BRANCH  11  22
HETATM   22  C3  UNL     1      84.718  -0.125 127.902  1.00  0.00     0.114 C 
BRANCH  22  23
HETATM   23  C2  UNL     1      85.484  -0.040 129.123  1.00  0.00     0.008 C 
HETATM   24  C1  UNL     1      85.511  -1.076 129.952  1.00  0.00     0.013 C 
ENDBRANCH  22  23
ENDBRANCH  11  22
BRANCH  16  25
HETATM   25  N15 UNL     1      87.324   1.277 122.655  1.00  0.00    -0.232 N 
ATOM     26 2H15 UNL     1      86.663   1.952 122.270  1.00  0.00     0.174 HD
ATOM     27 1H15 UNL     1      88.248   1.197 122.230  1.00  0.00     0.174 HD
ENDBRANCH  16  25
BRANCH  19  28
HETATM   28  N13 UNL     1      87.211  -2.843 124.623  1.00  0.00    -0.234 N 
ATOM     29 2H13 UNL     1      87.746  -3.263 125.383  1.00  0.00     0.174 HD
ATOM     30 1H13 UNL     1      86.932  -3.436 123.841  1.00  0.00     0.174 HD
ENDBRANCH  19  28
ENDBRANCH   6   9
ENDBRANCH   1   5
BRANCH   2  31
HETATM   31  C9  UNL     1      81.734   6.035 125.101  1.00  0.00     0.096 C 
BRANCH  31  32
HETATM   32  C10 UNL     1      81.230   5.850 126.520  1.00  0.00     0.380 C 
BRANCH  32  33
HETATM   33  N3  UNL     1      81.409   4.500 127.006  1.00  0.00    -0.050 N 
ATOM     34  H33 UNL     1      80.836   3.843 126.477  1.00  0.00     0.276 HD
ATOM     35  H32 UNL     1      82.333   4.144 126.765  1.00  0.00     0.276 HD
ATOM     36  H31 UNL     1      81.234   4.414 128.007  1.00  0.00     0.276 HD
ENDBRANCH  32  33
BRANCH  32  37
HETATM   37  N4  UNL     1      81.827   6.828 127.427  1.00  0.00    -0.050 N 
ATOM     38  H43 UNL     1      82.090   7.682 126.935  1.00  0.00     0.276 HD
ATOM     39  H42 UNL     1      81.133   7.220 128.063  1.00  0.00     0.276 HD
ATOM     40  H41 UNL     1      82.617   6.429 127.934  1.00  0.00     0.276 HD
ENDBRANCH  32  37
ENDBRANCH  31  32
ENDBRANCH   2  31
BRANCH   4  41
HETATM   41  O3  UNL     1      83.510   6.105 122.502  1.00  0.00    -0.353 OA
BRANCH  41  42
HETATM   42  C12 UNL     1      84.107   6.164 121.274  1.00  0.00     0.230 C 
BRANCH  42  43
HETATM   43  C13 UNL     1      84.740   4.923 120.811  1.00  0.00     0.064 A 
HETATM   44  C14 UNL     1      84.140   3.938 120.087  1.00  0.00     0.137 A 
HETATM   45  N5  UNL     1      85.066   2.995 119.889  1.00  0.00    -0.276 N 
HETATM   46  N8  UNL     1      86.212   3.371 120.466  1.00  0.00    -0.020 NA
HETATM   47  N9  UNL     1      86.011   4.556 121.031  1.00  0.00    -0.285 N 
ATOM     48  H9  UNL     1      86.707   5.096 121.547  1.00  0.00     0.184 HD
BRANCH  45  49
HETATM   49  C15 UNL     1      84.931   1.727 119.170  1.00  0.00     0.167 C 
HETATM   50  C16 UNL     1      83.894   1.851 118.103  1.00  0.00     0.212 C 
HETATM   51  C17 UNL     1      82.500   1.536 118.516  1.00  0.00     0.070 C 
HETATM   52  C18 UNL     1      82.362   0.358 119.450  1.00  0.00     0.216 C 
HETATM   53  C19 UNL     1      83.647  -0.327 119.760  1.00  0.00     0.179 C 
HETATM   54  C20 UNL     1      84.708   0.644 120.168  1.00  0.00     0.175 C 
BRANCH  50  55
HETATM   55  N6  UNL     1      84.310   1.154 116.876  1.00  0.00    -0.073 N 
ATOM     56  H63 UNL     1      85.069   0.497 117.057  1.00  0.00     0.274 HD
ATOM     57  H62 UNL     1      83.601   0.490 116.563  1.00  0.00     0.274 HD
ATOM     58  H61 UNL     1      84.554   1.817 116.141  1.00  0.00     0.274 HD
ENDBRANCH  50  55
BRANCH  52  59
HETATM   59  N7  UNL     1      81.381  -0.586 119.016  1.00  0.00    -0.072 N 
ATOM     60  H73 UNL     1      81.095  -0.399 118.055  1.00  0.00     0.274 HD
ATOM     61  H72 UNL     1      81.795  -1.509 118.891  1.00  0.00     0.274 HD
ATOM     62  H71 UNL     1      80.571  -0.631 119.634  1.00  0.00     0.274 HD
ENDBRANCH  52  59
BRANCH  53  63
HETATM   63  O4  UNL     1      84.074  -1.188 118.761  1.00  0.00    -0.391 OA
ATOM     64  H4  UNL     1      84.864  -1.666 118.982  1.00  0.00     0.210 HD
ENDBRANCH  53  63
BRANCH  54  65
HETATM   65  O5  UNL     1      84.468   1.133 121.454  1.00  0.00    -0.391 OA
ATOM     66  H5  UNL     1      83.889   0.574 121.959  1.00  0.00     0.210 HD
ENDBRANCH  54  65
ENDBRANCH  45  49
ENDBRANCH  42  43
ENDBRANCH  41  42
ENDBRANCH   4  41
TORSDOF 18
ENDMDL
MODEL 4
REMARK VINA RESULT: -8.828219762      5.184      9.178
REMARK  18 active torsions:
REMARK  status: ('A' for Active; 'I' for Inactive)
REMARK    1  A    between atoms: C2_2  and  C3_3 
REMARK    2  A    between atoms: C3_3  and  N1_4 
REMARK    3  A    between atoms: C5_6  and  C6_7 
REMARK       I    between atoms: C6_7  and  N2_9 
REMARK    4  A    between atoms: N2_9  and  C7_11 
REMARK    5  A    between atoms: C8_12  and  C9_13 
REMARK    6  A    between atoms: C9_13  and  C10_14 
REMARK    7  A    between atoms: C10_14  and  N3_15 
REMARK    8  A    between atoms: C10_14  and  N4_19 
REMARK    9  A    between atoms: C11_24  and  O3_25 
REMARK   10  A    between atoms: O3_25  and  C12_26 
REMARK   11  A    between atoms: C12_26  and  C13_27 
REMARK   12  A    between atoms: N5_29  and  C15_30 
REMARK   13  A    between atoms: C16_31  and  N6_32 
REMARK   14  A    between atoms: C18_37  and  N7_38 
REMARK   15  A    between atoms: C19_42  and  O4_43 
REMARK   16  A    between atoms: C20_45  and  O5_46 
REMARK   17  A    between atoms: C22_57  and  N13_58 
REMARK   18  A    between atoms: C23_63  and  N15_64 
ROOT
HETATM    1  C7  UNL     1      84.901   3.061 119.706  1.00  0.00     0.169 C 
HETATM    2  C8  UNL     1      85.683   2.701 120.882  1.00  0.00     0.155 C 
HETATM    3  O2  UNL     1      85.758   4.059 121.241  1.00  0.00    -0.351 OA
HETATM    4  C11 UNL     1      84.662   4.373 120.442  1.00  0.00     0.285 C 
ENDROOT
BRANCH   1   5
HETATM    5  N2  UNL     1      83.700   2.356 119.358  1.00  0.00    -0.344 N 
HETATM    6  C6  UNL     1      83.078   2.371 118.114  1.00  0.00     0.271 C 
HETATM    7  O1  UNL     1      83.573   3.044 117.186  1.00  0.00    -0.266 OA
ATOM      8  H2  UNL     1      83.264   1.793 120.088  1.00  0.00     0.163 HD
BRANCH   6   9
HETATM    9  C5  UNL     1      81.860   1.619 117.866  1.00  0.00     0.134 A 
HETATM   10  C4  UNL     1      81.501   0.609 118.620  1.00  0.00     0.151 A 
HETATM   11  N1  UNL     1      80.323  -0.187 118.453  1.00  0.00    -0.164 N 
HETATM   12  C21 UNL     1      79.475   0.137 117.386  1.00  0.00     0.739 A 
HETATM   13  N11 UNL     1      79.791   1.186 116.553  1.00  0.00     0.092 N 
HETATM   14  N12 UNL     1      78.378  -0.585 117.187  1.00  0.00    -0.019 N 
HETATM   15  N10 UNL     1      80.961   1.918 116.783  1.00  0.00    -0.258 N 
HETATM   16  C23 UNL     1      78.971   1.469 115.537  1.00  0.00     0.727 A 
ATOM     17  H10 UNL     1      81.185   2.693 116.160  1.00  0.00     0.189 HD
HETATM   18  N14 UNL     1      77.850   0.704 115.364  1.00  0.00    -0.020 N 
HETATM   19  C22 UNL     1      77.550  -0.316 116.178  1.00  0.00     0.705 A 
ATOM     20  H14 UNL     1      77.222   0.918 114.589  1.00  0.00     0.203 HD
ATOM     21  H12 UNL     1      78.166  -1.358 117.817  1.00  0.00     0.203 HD
BRANCH  11  22
HETATM   22  C3  UNL     1      80.064  -1.281 119.363  1.00  0.00     0.114 C 
BRANCH  22  23
HETATM   23  C2  UNL     1      81.138  -1.694 120.236  1.00  0.00     0.008 C 
HETATM   24  C1  UNL     1      80.989  -1.593 121.551  1.00  0.00     0.013 C 
ENDBRANCH  22  23
ENDBRANCH  11  22
BRANCH  16  25
HETATM   25  N15 UNL     1      79.161   2.421 114.698  1.00  0.00    -0.232 N 
ATOM     26 2H15 UNL     1      78.716   3.315 114.906  1.00  0.00     0.174 HD
ATOM     27 1H15 UNL     1      79.722   2.337 113.851  1.00  0.00     0.174 HD
ENDBRANCH  16  25
BRANCH  19  28
HETATM   28  N13 UNL     1      76.470  -1.036 115.990  1.00  0.00    -0.234 N 
ATOM     29 2H13 UNL     1      76.409  -1.993 116.336  1.00  0.00     0.174 HD
ATOM     30 1H13 UNL     1      75.667  -0.649 115.492  1.00  0.00     0.174 HD
ENDBRANCH  19  28
ENDBRANCH   6   9
ENDBRANCH   1   5
BRANCH   2  31
HETATM   31  C9  UNL     1      85.083   1.915 121.988  1.00  0.00     0.096 C 
BRANCH  31  32
HETATM   32  C10 UNL     1      86.043   1.939 123.161  1.00  0.00     0.380 C 
BRANCH  32  33
HETATM   33  N3  UNL     1      87.427   1.848 122.754  1.00  0.00    -0.050 N 
ATOM     34  H33 UNL     1      87.646   0.913 122.410  1.00  0.00     0.276 HD
ATOM     35  H32 UNL     1      87.593   2.380 121.901  1.00  0.00     0.276 HD
ATOM     36  H31 UNL     1      88.075   2.127 123.491  1.00  0.00     0.276 HD
ENDBRANCH  32  33
BRANCH  32  37
HETATM   37  N4  UNL     1      85.813   3.103 124.012  1.00  0.00    -0.050 N 
ATOM     38  H43 UNL     1      86.675   3.421 124.454  1.00  0.00     0.276 HD
ATOM     39  H42 UNL     1      85.603   3.935 123.461  1.00  0.00     0.276 HD
ATOM     40  H41 UNL     1      85.085   2.919 124.703  1.00  0.00     0.276 HD
ENDBRANCH  32  37
ENDBRANCH  31  32
ENDBRANCH   2  31
BRANCH   4  41
HETATM   41  O3  UNL     1      83.446   4.448 121.083  1.00  0.00    -0.353 OA
BRANCH  41  42
HETATM   42  C12 UNL     1      83.154   5.646 121.674  1.00  0.00     0.230 C 
BRANCH  42  43
HETATM   43  C13 UNL     1      83.560   5.780 123.079  1.00  0.00     0.064 A 
HETATM   44  C14 UNL     1      82.840   5.383 124.163  1.00  0.00     0.137 A 
HETATM   45  N5  UNL     1      83.568   5.698 125.239  1.00  0.00    -0.276 N 
HETATM   46  N8  UNL     1      84.710   6.274 124.847  1.00  0.00    -0.020 NA
HETATM   47  N9  UNL     1      84.705   6.323 123.521  1.00  0.00    -0.285 N 
ATOM     48  H9  UNL     1      85.446   6.709 122.936  1.00  0.00     0.184 HD
BRANCH  45  49
HETATM   49  C15 UNL     1      83.243   5.484 126.650  1.00  0.00     0.167 C 
HETATM   50  C16 UNL     1      82.178   4.446 126.779  1.00  0.00     0.212 C 
HETATM   51  C17 UNL     1      80.777   4.945 126.738  1.00  0.00     0.070 C 
HETATM   52  C18 UNL     1      80.541   6.241 127.476  1.00  0.00     0.216 C 
HETATM   53  C19 UNL     1      81.746   6.775 128.169  1.00  0.00     0.179 C 
HETATM   54  C20 UNL     1      82.937   6.805 127.267  1.00  0.00     0.175 C 
BRANCH  50  55
HETATM   55  N6  UNL     1      82.444   3.551 127.916  1.00  0.00    -0.073 N 
ATOM     56  H63 UNL     1      82.327   4.033 128.807  1.00  0.00     0.274 HD
ATOM     57  H62 UNL     1      81.711   2.850 128.021  1.00  0.00     0.274 HD
ATOM     58  H61 UNL     1      83.366   3.122 127.839  1.00  0.00     0.274 HD
ENDBRANCH  50  55
BRANCH  52  59
HETATM   59  N7  UNL     1      79.432   6.178 128.374  1.00  0.00    -0.072 N 
ATOM     60  H73 UNL     1      79.574   5.454 129.079  1.00  0.00     0.274 HD
ATOM     61  H72 UNL     1      79.406   6.998 128.979  1.00  0.00     0.274 HD
ATOM     62  H71 UNL     1      78.540   6.049 127.896  1.00  0.00     0.274 HD
ENDBRANCH  52  59
BRANCH  53  63
HETATM   63  O4  UNL     1      82.014   6.153 129.378  1.00  0.00    -0.391 OA
ATOM     64  H4  UNL     1      82.507   6.693 129.984  1.00  0.00     0.210 HD
ENDBRANCH  53  63
BRANCH  54  65
HETATM   65  O5  UNL     1      82.823   7.830 126.324  1.00  0.00    -0.391 OA
ATOM     66  H5  UNL     1      83.663   8.114 125.984  1.00  0.00     0.210 HD
ENDBRANCH  54  65
ENDBRANCH  45  49
ENDBRANCH  42  43
ENDBRANCH  41  42
ENDBRANCH   4  41
TORSDOF 18
ENDMDL
MODEL 5
REMARK VINA RESULT: -8.785793000      1.213      2.652
REMARK  18 active torsions:
REMARK  status: ('A' for Active; 'I' for Inactive)
REMARK    1  A    between atoms: C2_2  and  C3_3 
REMARK    2  A    between atoms: C3_3  and  N1_4 
REMARK    3  A    between atoms: C5_6  and  C6_7 
REMARK       I    between atoms: C6_7  and  N2_9 
REMARK    4  A    between atoms: N2_9  and  C7_11 
REMARK    5  A    between atoms: C8_12  and  C9_13 
REMARK    6  A    between atoms: C9_13  and  C10_14 
REMARK    7  A    between atoms: C10_14  and  N3_15 
REMARK    8  A    between atoms: C10_14  and  N4_19 
REMARK    9  A    between atoms: C11_24  and  O3_25 
REMARK   10  A    between atoms: O3_25  and  C12_26 
REMARK   11  A    between atoms: C12_26  and  C13_27 
REMARK   12  A    between atoms: N5_29  and  C15_30 
REMARK   13  A    between atoms: C16_31  and  N6_32 
REMARK   14  A    between atoms: C18_37  and  N7_38 
REMARK   15  A    between atoms: C19_42  and  O4_43 
REMARK   16  A    between atoms: C20_45  and  O5_46 
REMARK   17  A    between atoms: C22_57  and  N13_58 
REMARK   18  A    between atoms: C23_63  and  N15_64 
ROOT
HETATM    1  C7  UNL     1      83.189   4.717 129.392  1.00  0.00     0.169 C 
HETATM    2  C8  UNL     1      82.238   4.596 130.488  1.00  0.00     0.155 C 
HETATM    3  O2  UNL     1      81.453   5.611 129.912  1.00  0.00    -0.351 OA
HETATM    4  C11 UNL     1      82.050   5.422 128.668  1.00  0.00     0.285 C 
ENDROOT
BRANCH   1   5
HETATM    5  N2  UNL     1      83.695   3.562 128.705  1.00  0.00    -0.344 N 
HETATM    6  C6  UNL     1      84.614   3.572 127.662  1.00  0.00     0.271 C 
HETATM    7  O1  UNL     1      85.070   4.660 127.251  1.00  0.00    -0.266 OA
ATOM      8  H2  UNL     1      83.349   2.652 129.009  1.00  0.00     0.163 HD
BRANCH   6   9
HETATM    9  C5  UNL     1      85.061   2.341 127.032  1.00  0.00     0.134 A 
HETATM   10  C4  UNL     1      85.206   2.239 125.733  1.00  0.00     0.151 A 
HETATM   11  N1  UNL     1      85.640   1.071 125.026  1.00  0.00    -0.164 N 
HETATM   12  C21 UNL     1      85.935  -0.067 125.787  1.00  0.00     0.739 A 
HETATM   13  N11 UNL     1      85.804  -0.030 127.157  1.00  0.00     0.092 N 
HETATM   14  N12 UNL     1      86.328  -1.176 125.170  1.00  0.00    -0.019 N 
HETATM   15  N10 UNL     1      85.375   1.150 127.774  1.00  0.00    -0.258 N 
HETATM   16  C23 UNL     1      86.082  -1.133 127.859  1.00  0.00     0.727 A 
ATOM     17  H10 UNL     1      85.283   1.166 128.790  1.00  0.00     0.189 HD
HETATM   18  N14 UNL     1      86.485  -2.255 127.188  1.00  0.00    -0.020 N 
HETATM   19  C22 UNL     1      86.609  -2.283 125.855  1.00  0.00     0.705 A 
ATOM     20  H14 UNL     1      86.699  -3.098 127.721  1.00  0.00     0.203 HD
ATOM     21  H12 UNL     1      86.416  -1.180 124.154  1.00  0.00     0.203 HD
BRANCH  11  22
HETATM   22  C3  UNL     1      85.742   1.106 123.584  1.00  0.00     0.114 C 
BRANCH  22  23
HETATM   23  C2  UNL     1      86.869   1.803 123.010  1.00  0.00     0.008 C 
HETATM   24  C1  UNL     1      87.779   1.123 122.322  1.00  0.00     0.013 C 
ENDBRANCH  22  23
ENDBRANCH  11  22
BRANCH  16  25
HETATM   25  N15 UNL     1      85.999  -1.217 129.135  1.00  0.00    -0.232 N 
ATOM     26 2H15 UNL     1      86.186  -0.367 129.668  1.00  0.00     0.174 HD
ATOM     27 1H15 UNL     1      85.759  -2.070 129.641  1.00  0.00     0.174 HD
ENDBRANCH  16  25
BRANCH  19  28
HETATM   28  N13 UNL     1      86.995  -3.373 125.235  1.00  0.00    -0.234 N 
ATOM     29 2H13 UNL     1      87.707  -3.339 124.506  1.00  0.00     0.174 HD
ATOM     30 1H13 UNL     1      86.589  -4.278 125.473  1.00  0.00     0.174 HD
ENDBRANCH  19  28
ENDBRANCH   6   9
ENDBRANCH   1   5
BRANCH   2  31
HETATM   31  C9  UNL     1      81.429   3.366 130.666  1.00  0.00     0.096 C 
BRANCH  31  32
HETATM   32  C10 UNL     1      79.999   3.778 130.962  1.00  0.00     0.380 C 
BRANCH  32  33
HETATM   33  N3  UNL     1      79.130   3.651 129.814  1.00  0.00    -0.050 N 
ATOM     34  H33 UNL     1      79.578   3.106 129.077  1.00  0.00     0.276 HD
ATOM     35  H32 UNL     1      78.343   3.036 130.019  1.00  0.00     0.276 HD
ATOM     36  H31 UNL     1      78.809   4.552 129.460  1.00  0.00     0.276 HD
ENDBRANCH  32  33
BRANCH  32  37
HETATM   37  N4  UNL     1      79.468   3.060 132.118  1.00  0.00    -0.050 N 
ATOM     38  H43 UNL     1      78.468   2.883 132.021  1.00  0.00     0.276 HD
ATOM     39  H42 UNL     1      79.796   2.095 132.142  1.00  0.00     0.276 HD
ATOM     40  H41 UNL     1      79.679   3.549 132.988  1.00  0.00     0.276 HD
ENDBRANCH  32  37
ENDBRANCH  31  32
ENDBRANCH   2  31
BRANCH   4  41
HETATM   41  O3  UNL     1      81.363   4.624 127.781  1.00  0.00    -0.353 OA
BRANCH  41  42
HETATM   42  C12 UNL     1      80.946   5.232 126.629  1.00  0.00     0.230 C 
BRANCH  42  43
HETATM   43  C13 UNL     1      81.977   5.968 125.886  1.00  0.00     0.064 A 
HETATM   44  C14 UNL     1      82.321   5.772 124.584  1.00  0.00     0.137 A 
HETATM   45  N5  UNL     1      83.299   6.642 124.315  1.00  0.00    -0.276 N 
HETATM   46  N8  UNL     1      83.563   7.364 125.409  1.00  0.00    -0.020 NA
HETATM   47  N9  UNL     1      82.750   6.950 126.373  1.00  0.00    -0.285 N 
ATOM     48  H9  UNL     1      82.719   7.317 127.325  1.00  0.00     0.184 HD
BRANCH  45  49
HETATM   49  C15 UNL     1      84.019   6.837 123.055  1.00  0.00     0.167 C 
HETATM   50  C16 UNL     1      83.133   6.504 121.901  1.00  0.00     0.212 C 
HETATM   51  C17 UNL     1      83.151   5.083 121.460  1.00  0.00     0.070 C 
HETATM   52  C18 UNL     1      84.512   4.430 121.469  1.00  0.00     0.216 C 
HETATM   53  C19 UNL     1      85.621   5.340 121.869  1.00  0.00     0.179 C 
HETATM   54  C20 UNL     1      85.302   6.084 123.126  1.00  0.00     0.175 C 
BRANCH  50  55
HETATM   55  N6  UNL     1      83.316   7.458 120.797  1.00  0.00    -0.073 N 
ATOM     56  H63 UNL     1      82.663   7.280 120.034  1.00  0.00     0.274 HD
ATOM     57  H62 UNL     1      83.004   8.394 121.054  1.00  0.00     0.274 HD
ATOM     58  H61 UNL     1      84.283   7.462 120.470  1.00  0.00     0.274 HD
ENDBRANCH  50  55
BRANCH  52  59
HETATM   59  N7  UNL     1      84.822   3.770 120.241  1.00  0.00    -0.072 N 
ATOM     60  H73 UNL     1      84.170   3.006 120.063  1.00  0.00     0.274 HD
ATOM     61  H72 UNL     1      84.605   4.365 119.442  1.00  0.00     0.274 HD
ATOM     62  H71 UNL     1      85.787   3.441 120.198  1.00  0.00     0.274 HD
ENDBRANCH  52  59
BRANCH  53  63
HETATM   63  O4  UNL     1      86.047   6.179 120.852  1.00  0.00    -0.391 OA
ATOM     64  H4  UNL     1      86.142   7.085 121.119  1.00  0.00     0.210 HD
ENDBRANCH  53  63
BRANCH  54  65
HETATM   65  O5  UNL     1      85.373   5.239 124.236  1.00  0.00    -0.391 OA
ATOM     66  H5  UNL     1      85.242   4.325 124.013  1.00  0.00     0.210 HD
ENDBRANCH  54  65
ENDBRANCH  45  49
ENDBRANCH  42  43
ENDBRANCH  41  42
ENDBRANCH   4  41
TORSDOF 18
ENDMDL
