MODEL 1
REMARK VINA RESULT: -4.543939411      0.000      0.000
REMARK  1 active torsions:
REMARK  status: ('A' for Active; 'I' for Inactive)
REMARK    1  A    between atoms: C4_5  and  C5_6 
ROOT
HETATM    1  C1  UNL     1       9.278  -5.214  22.886  1.00  0.00     0.020 C 
HETATM    2  C2  UNL     1       7.963  -5.860  22.473  1.00  0.00     0.012 C 
HETATM    3  C3  UNL     1       7.598  -6.899  23.527  1.00  0.00     0.076 C 
HETATM    4  S1  UNL     1       8.418  -6.510  25.080  1.00  0.00    -0.144 SA
HETATM    5  C4  UNL     1       8.235  -4.816  25.597  1.00  0.00     0.143 C 
HETATM    6  N1  UNL     1       9.102  -3.890  24.951  1.00  0.00    -0.408 N 
ATOM      7  H1  UNL     1       9.734  -3.278  25.467  1.00  0.00     0.154 HD
HETATM    8  C8  UNL     1       9.019  -3.885  23.519  1.00  0.00     0.115 C 
ENDROOT
BRANCH   5   9
HETATM    9  C5  UNL     1       8.592  -4.748  27.095  1.00  0.00     0.018 A 
HETATM   10  C6  UNL     1       7.399  -4.625  28.055  1.00  0.00     0.008 A 
HETATM   11  C7  UNL     1       8.358  -3.466  27.807  1.00  0.00     0.008 A 
ENDBRANCH   5   9
TORSDOF 1
ENDMDL
MODEL 2
REMARK VINA RESULT: -4.411857719      7.977      9.992
REMARK  1 active torsions:
REMARK  status: ('A' for Active; 'I' for Inactive)
REMARK    1  A    between atoms: C4_5  and  C5_6 
ROOT
HETATM    1  C1  UNL     1       2.541  -2.991  33.902  1.00  0.00     0.020 C 
HETATM    2  C2  UNL     1       2.562  -3.554  35.316  1.00  0.00     0.012 C 
HETATM    3  C3  UNL     1       3.150  -4.959  35.254  1.00  0.00     0.076 C 
HETATM    4  S1  UNL     1       4.157  -5.136  33.774  1.00  0.00    -0.144 SA
HETATM    5  C4  UNL     1       5.329  -3.817  33.528  1.00  0.00     0.143 C 
HETATM    6  N1  UNL     1       4.787  -2.625  32.971  1.00  0.00    -0.408 N 
ATOM      7  H1  UNL     1       5.149  -2.205  32.114  1.00  0.00     0.154 HD
HETATM    8  C8  UNL     1       3.692  -2.059  33.706  1.00  0.00     0.115 C 
ENDROOT
BRANCH   5   9
HETATM    9  C5  UNL     1       6.378  -4.313  32.513  1.00  0.00     0.018 A 
HETATM   10  C6  UNL     1       7.822  -4.383  33.035  1.00  0.00     0.008 A 
HETATM   11  C7  UNL     1       7.380  -3.336  32.017  1.00  0.00     0.008 A 
ENDBRANCH   5   9
TORSDOF 1
ENDMDL
MODEL 3
REMARK VINA RESULT: -4.378103244      1.705      4.709
REMARK  1 active torsions:
REMARK  status: ('A' for Active; 'I' for Inactive)
REMARK    1  A    between atoms: C4_5  and  C5_6 
ROOT
HETATM    1  C1  UNL     1       7.351  -5.830  28.435  1.00  0.00     0.020 C 
HETATM    2  C2  UNL     1       7.117  -4.327  28.462  1.00  0.00     0.012 C 
HETATM    3  C3  UNL     1       8.245  -3.661  27.682  1.00  0.00     0.076 C 
HETATM    4  S1  UNL     1       8.972  -4.838  26.533  1.00  0.00    -0.144 SA
HETATM    5  C4  UNL     1       7.784  -5.715  25.537  1.00  0.00     0.143 C 
HETATM    6  N1  UNL     1       7.140  -6.805  26.187  1.00  0.00    -0.408 N 
ATOM      7  H1  UNL     1       7.154  -7.754  25.812  1.00  0.00     0.154 HD
HETATM    8  C8  UNL     1       6.470  -6.467  27.410  1.00  0.00     0.115 C 
ENDROOT
BRANCH   5   9
HETATM    9  C5  UNL     1       8.543  -6.329  24.345  1.00  0.00     0.018 A 
HETATM   10  C6  UNL     1       8.196  -5.742  22.967  1.00  0.00     0.008 A 
HETATM   11  C7  UNL     1       7.770  -7.149  23.378  1.00  0.00     0.008 A 
ENDBRANCH   5   9
TORSDOF 1
ENDMDL
MODEL 4
REMARK VINA RESULT: -4.336620061      4.125      6.854
REMARK  1 active torsions:
REMARK  status: ('A' for Active; 'I' for Inactive)
REMARK    1  A    between atoms: C4_5  and  C5_6 
ROOT
HETATM    1  C1  UNL     1       7.915  -2.328  32.149  1.00  0.00     0.020 C 
HETATM    2  C2  UNL     1       8.442  -3.414  33.076  1.00  0.00     0.012 C 
HETATM    3  C3  UNL     1       7.496  -4.607  32.986  1.00  0.00     0.076 C 
HETATM    4  S1  UNL     1       6.593  -4.556  31.432  1.00  0.00    -0.144 SA
HETATM    5  C4  UNL     1       7.619  -4.300  29.999  1.00  0.00     0.143 C 
HETATM    6  N1  UNL     1       8.011  -2.950  29.772  1.00  0.00    -0.408 N 
ATOM      7  H1  UNL     1       7.823  -2.464  28.895  1.00  0.00     0.154 HD
HETATM    8  C8  UNL     1       8.690  -2.326  30.871  1.00  0.00     0.115 C 
ENDROOT
BRANCH   5   9
HETATM    9  C5  UNL     1       6.798  -4.710  28.762  1.00  0.00     0.018 A 
HETATM   10  C6  UNL     1       7.116  -6.100  28.188  1.00  0.00     0.008 A 
HETATM   11  C7  UNL     1       7.508  -4.817  27.462  1.00  0.00     0.008 A 
ENDBRANCH   5   9
TORSDOF 1
ENDMDL
MODEL 5
REMARK VINA RESULT: -4.313599785      7.634     10.208
REMARK  1 active torsions:
REMARK  status: ('A' for Active; 'I' for Inactive)
REMARK    1  A    between atoms: C4_5  and  C5_6 
ROOT
HETATM    1  C1  UNL     1       3.640  -4.101  35.702  1.00  0.00     0.020 C 
HETATM    2  C2  UNL     1       2.324  -4.001  34.944  1.00  0.00     0.012 C 
HETATM    3  C3  UNL     1       2.456  -2.880  33.919  1.00  0.00     0.076 C 
HETATM    4  S1  UNL     1       4.192  -2.595  33.544  1.00  0.00    -0.144 SA
HETATM    5  C4  UNL     1       5.108  -4.074  33.164  1.00  0.00     0.143 C 
HETATM    6  N1  UNL     1       5.517  -4.837  34.294  1.00  0.00    -0.408 N 
ATOM      7  H1  UNL     1       6.492  -5.082  34.468  1.00  0.00     0.154 HD
HETATM    8  C8  UNL     1       4.452  -5.236  35.169  1.00  0.00     0.115 C 
ENDROOT
BRANCH   5   9
HETATM    9  C5  UNL     1       6.408  -3.645  32.457  1.00  0.00     0.018 A 
HETATM   10  C6  UNL     1       6.917  -4.603  31.368  1.00  0.00     0.008 A 
HETATM   11  C7  UNL     1       7.632  -4.449  32.707  1.00  0.00     0.008 A 
ENDBRANCH   5   9
TORSDOF 1
ENDMDL
