MODEL 1
REMARK VINA RESULT: -5.900961645      0.000      0.000
REMARK  4 active torsions:
REMARK  status: ('A' for Active; 'I' for Inactive)
REMARK    1  A    between atoms: C2_2  and  C3_4 
REMARK    2  A    between atoms: C4_7  and  N2_8 
REMARK    3  A    between atoms: N2_8  and  N3_10 
REMARK    4  A    between atoms: C5_15  and  N5_16 
ROOT
HETATM    1  C3  UNL     1       8.043   1.851  20.730  1.00  0.00     0.068 A 
HETATM    2  N1  UNL     1       7.501   0.764  20.299  1.00  0.00    -0.193 N 
ATOM      3  H1  UNL     1       7.765  -0.172  20.605  1.00  0.00     0.184 HD
HETATM    4  C4  UNL     1       6.498   1.035  19.351  1.00  0.00     0.699 A 
HETATM    5  N4  UNL     1       6.408   2.291  19.186  1.00  0.00    -0.190 N 
ATOM      6  H4  UNL     1       5.758   2.758  18.553  1.00  0.00     0.180 HD
HETATM    7  C5  UNL     1       7.366   2.954  20.032  1.00  0.00     0.344 A 
ENDROOT
BRANCH   4   8
HETATM    8  N2  UNL     1       5.723   0.015  18.699  1.00  0.00    -0.072 N 
ATOM      9  H2  UNL     1       5.400  -0.789  19.239  1.00  0.00     0.212 HD
BRANCH   8  10
HETATM   10  N3  UNL     1       5.404   0.099  17.355  1.00  0.00    -0.024 N 
HETATM   11  O1  UNL     1       5.833   1.085  16.719  1.00  0.00    -0.516 OA
HETATM   12  O2  UNL     1       4.654  -0.818  16.672  1.00  0.00    -0.516 OA
ENDBRANCH   8  10
ENDBRANCH   4   8
BRANCH   1  13
HETATM   13  C2  UNL     1       9.136   1.931  21.738  1.00  0.00     0.104 C 
HETATM   14  C1  UNL     1      10.093   3.081  21.411  1.00  0.00     0.028 C 
HETATM   15 BR1  UNL     1       8.449   2.096  23.533  1.00  0.00    -0.085 Br
ENDBRANCH   1  13
BRANCH   7  16
HETATM   16  N5  UNL     1       6.736   3.889  20.943  1.00  0.00    -0.052 N 
ATOM     17  H53 UNL     1       5.805   4.147  20.617  1.00  0.00     0.277 HD
ATOM     18  H52 UNL     1       6.484   3.432  21.819  1.00  0.00     0.277 HD
ATOM     19  H51 UNL     1       7.308   4.717  21.112  1.00  0.00     0.277 HD
ENDBRANCH   7  16
TORSDOF 4
ENDMDL
MODEL 2
REMARK VINA RESULT: -5.766611547      4.742      6.062
REMARK  4 active torsions:
REMARK  status: ('A' for Active; 'I' for Inactive)
REMARK    1  A    between atoms: C2_2  and  C3_4 
REMARK    2  A    between atoms: C4_7  and  N2_8 
REMARK    3  A    between atoms: N2_8  and  N3_10 
REMARK    4  A    between atoms: C5_15  and  N5_16 
ROOT
HETATM    1  C3  UNL     1       7.935   2.706  21.662  1.00  0.00     0.068 A 
HETATM    2  N1  UNL     1       7.564   3.765  22.297  1.00  0.00    -0.193 N 
ATOM      3  H1  UNL     1       7.275   4.633  21.848  1.00  0.00     0.184 HD
HETATM    4  C4  UNL     1       7.609   3.568  23.689  1.00  0.00     0.699 A 
HETATM    5  N4  UNL     1       8.008   2.387  23.930  1.00  0.00    -0.190 N 
ATOM      6  H4  UNL     1       8.131   1.984  24.860  1.00  0.00     0.180 HD
HETATM    7  C5  UNL     1       8.259   1.704  22.688  1.00  0.00     0.344 A 
ENDROOT
BRANCH   4   8
HETATM    8  N2  UNL     1       7.250   4.578  24.647  1.00  0.00    -0.072 N 
ATOM      9  H2  UNL     1       7.843   5.402  24.750  1.00  0.00     0.212 HD
BRANCH   8  10
HETATM   10  N3  UNL     1       6.117   4.456  25.433  1.00  0.00    -0.024 N 
HETATM   11  O1  UNL     1       5.745   3.304  25.738  1.00  0.00    -0.516 OA
HETATM   12  O2  UNL     1       5.376   5.505  25.900  1.00  0.00    -0.516 OA
ENDBRANCH   8  10
ENDBRANCH   4   8
BRANCH   1  13
HETATM   13  C2  UNL     1       8.006   2.567  20.181  1.00  0.00     0.104 C 
HETATM   14  C1  UNL     1       8.994   1.464  19.787  1.00  0.00     0.028 C 
HETATM   15 BR1  UNL     1       6.270   2.246  19.405  1.00  0.00    -0.085 Br
ENDBRANCH   1  13
BRANCH   7  16
HETATM   16  N5  UNL     1       7.469   0.496  22.559  1.00  0.00    -0.052 N 
ATOM     17  H53 UNL     1       6.662   0.650  21.955  1.00  0.00     0.277 HD
ATOM     18  H52 UNL     1       7.960  -0.204  22.004  1.00  0.00     0.277 HD
ATOM     19  H51 UNL     1       7.184   0.115  23.461  1.00  0.00     0.277 HD
ENDBRANCH   7  16
TORSDOF 4
ENDMDL
MODEL 3
REMARK VINA RESULT: -5.679043550      1.046      1.157
REMARK  4 active torsions:
REMARK  status: ('A' for Active; 'I' for Inactive)
REMARK    1  A    between atoms: C2_2  and  C3_4 
REMARK    2  A    between atoms: C4_7  and  N2_8 
REMARK    3  A    between atoms: N2_8  and  N3_10 
REMARK    4  A    between atoms: C5_15  and  N5_16 
ROOT
HETATM    1  C3  UNL     1       7.966   1.587  20.369  1.00  0.00     0.068 A 
HETATM    2  N1  UNL     1       7.442   0.737  19.554  1.00  0.00    -0.193 N 
ATOM      3  H1  UNL     1       7.541  -0.275  19.635  1.00  0.00     0.184 HD
HETATM    4  C4  UNL     1       6.717   1.383  18.537  1.00  0.00     0.699 A 
HETATM    5  N4  UNL     1       6.784   2.640  18.711  1.00  0.00    -0.190 N 
ATOM      6  H4  UNL     1       6.345   3.342  18.115  1.00  0.00     0.180 HD
HETATM    7  C5  UNL     1       7.573   2.918  19.882  1.00  0.00     0.344 A 
ENDROOT
BRANCH   4   8
HETATM    8  N2  UNL     1       6.026   0.686  17.486  1.00  0.00    -0.072 N 
ATOM      9  H2  UNL     1       6.125   1.009  16.523  1.00  0.00     0.212 HD
BRANCH   8  10
HETATM   10  N3  UNL     1       5.229  -0.413  17.753  1.00  0.00    -0.024 N 
HETATM   11  O1  UNL     1       5.234  -0.863  18.918  1.00  0.00    -0.516 OA
HETATM   12  O2  UNL     1       4.437  -1.044  16.835  1.00  0.00    -0.516 OA
ENDBRANCH   8  10
ENDBRANCH   4   8
BRANCH   1  13
HETATM   13  C2  UNL     1       8.796   1.247  21.557  1.00  0.00     0.104 C 
HETATM   14  C1  UNL     1       9.808   2.360  21.848  1.00  0.00     0.028 C 
HETATM   15 BR1  UNL     1       7.712   0.879  23.110  1.00  0.00    -0.085 Br
ENDBRANCH   1  13
BRANCH   7  16
HETATM   16  N5  UNL     1       6.836   3.679  20.870  1.00  0.00    -0.052 N 
ATOM     17  H53 UNL     1       5.849   3.427  20.865  1.00  0.00     0.277 HD
ATOM     18  H52 UNL     1       7.078   3.383  21.816  1.00  0.00     0.277 HD
ATOM     19  H51 UNL     1       6.957   4.686  20.760  1.00  0.00     0.277 HD
ENDBRANCH   7  16
TORSDOF 4
ENDMDL
MODEL 4
REMARK VINA RESULT: -5.647789632      4.203      5.351
REMARK  4 active torsions:
REMARK  status: ('A' for Active; 'I' for Inactive)
REMARK    1  A    between atoms: C2_2  and  C3_4 
REMARK    2  A    between atoms: C4_7  and  N2_8 
REMARK    3  A    between atoms: N2_8  and  N3_10 
REMARK    4  A    between atoms: C5_15  and  N5_16 
ROOT
HETATM    1  C3  UNL     1       6.803   2.208  19.211  1.00  0.00     0.068 A 
HETATM    2  N1  UNL     1       6.321   2.880  20.199  1.00  0.00    -0.193 N 
ATOM      3  H1  UNL     1       5.326   2.973  20.401  1.00  0.00     0.184 HD
HETATM    4  C4  UNL     1       7.344   3.468  20.964  1.00  0.00     0.699 A 
HETATM    5  N4  UNL     1       8.469   3.167  20.458  1.00  0.00    -0.190 N 
ATOM      6  H4  UNL     1       9.376   3.465  20.818  1.00  0.00     0.180 HD
HETATM    7  C5  UNL     1       8.265   2.340  19.299  1.00  0.00     0.344 A 
ENDROOT
BRANCH   4   8
HETATM    8  N2  UNL     1       7.102   4.277  22.129  1.00  0.00    -0.072 N 
ATOM      9  H2  UNL     1       6.638   5.179  22.023  1.00  0.00     0.212 HD
BRANCH   8  10
HETATM   10  N3  UNL     1       7.484   3.856  23.391  1.00  0.00    -0.024 N 
HETATM   11  O1  UNL     1       6.740   4.148  24.350  1.00  0.00    -0.516 OA
HETATM   12  O2  UNL     1       8.618   3.143  23.664  1.00  0.00    -0.516 OA
ENDBRANCH   8  10
ENDBRANCH   4   8
BRANCH   1  13
HETATM   13  C2  UNL     1       6.003   1.459  18.203  1.00  0.00     0.104 C 
HETATM   14  C1  UNL     1       6.683   1.502  16.831  1.00  0.00     0.028 C 
HETATM   15 BR1  UNL     1       5.676  -0.361  18.752  1.00  0.00    -0.085 Br
ENDBRANCH   1  13
BRANCH   7  16
HETATM   16  N5  UNL     1       8.935   1.060  19.416  1.00  0.00    -0.052 N 
ATOM     17  H53 UNL     1       9.529   1.032  20.244  1.00  0.00     0.277 HD
ATOM     18  H52 UNL     1       8.275   0.322  19.661  1.00  0.00     0.277 HD
ATOM     19  H51 UNL     1       9.464   0.815  18.578  1.00  0.00     0.277 HD
ENDBRANCH   7  16
TORSDOF 4
ENDMDL
MODEL 5
REMARK VINA RESULT: -5.646237901      4.454      5.535
REMARK  4 active torsions:
REMARK  status: ('A' for Active; 'I' for Inactive)
REMARK    1  A    between atoms: C2_2  and  C3_4 
REMARK    2  A    between atoms: C4_7  and  N2_8 
REMARK    3  A    between atoms: N2_8  and  N3_10 
REMARK    4  A    between atoms: C5_15  and  N5_16 
ROOT
HETATM    1  C3  UNL     1       7.449   2.623  19.960  1.00  0.00     0.068 A 
HETATM    2  N1  UNL     1       6.890   3.269  20.925  1.00  0.00    -0.193 N 
ATOM      3  H1  UNL     1       5.917   3.573  20.927  1.00  0.00     0.184 HD
HETATM    4  C4  UNL     1       7.795   3.501  21.977  1.00  0.00     0.699 A 
HETATM    5  N4  UNL     1       8.923   3.001  21.674  1.00  0.00    -0.190 N 
ATOM      6  H4  UNL     1       9.757   3.028  22.261  1.00  0.00     0.180 HD
HETATM    7  C5  UNL     1       8.841   2.390  20.373  1.00  0.00     0.344 A 
ENDROOT
BRANCH   4   8
HETATM    8  N2  UNL     1       7.449   4.199  23.185  1.00  0.00    -0.072 N 
ATOM      9  H2  UNL     1       7.184   5.183  23.135  1.00  0.00     0.212 HD
BRANCH   8  10
HETATM   10  N3  UNL     1       7.468   3.565  24.415  1.00  0.00    -0.024 N 
HETATM   11  O1  UNL     1       8.557   3.100  24.811  1.00  0.00    -0.516 OA
HETATM   12  O2  UNL     1       6.380   3.409  25.228  1.00  0.00    -0.516 OA
ENDBRANCH   8  10
ENDBRANCH   4   8
BRANCH   1  13
HETATM   13  C2  UNL     1       6.782   2.213  18.694  1.00  0.00     0.104 C 
HETATM   14  C1  UNL     1       7.751   2.313  17.512  1.00  0.00     0.028 C 
HETATM   15 BR1  UNL     1       6.029   0.441  18.819  1.00  0.00    -0.085 Br
ENDBRANCH   1  13
BRANCH   7  16
HETATM   16  N5  UNL     1       9.185   0.982  20.408  1.00  0.00    -0.052 N 
ATOM     17  H53 UNL     1      10.185   0.846  20.263  1.00  0.00     0.277 HD
ATOM     18  H52 UNL     1       9.103   0.609  21.353  1.00  0.00     0.277 HD
ATOM     19  H51 UNL     1       8.640   0.429  19.747  1.00  0.00     0.277 HD
ENDBRANCH   7  16
TORSDOF 4
ENDMDL
