MODEL 1
REMARK VINA RESULT: -4.168135535      0.000      0.000
REMARK  1 active torsions:
REMARK  status: ('A' for Active; 'I' for Inactive)
REMARK    1  A    between atoms: C6_6  and  N1_7 
ROOT
HETATM    1  C1  UNL     1       5.296  38.454 -13.841  1.00  0.00     0.045 C 
HETATM    2  C2  UNL     1       5.717  37.061 -14.259  1.00  0.00     0.056 C 
HETATM    3  C3  UNL     1       6.907  36.650 -13.405  1.00  0.00     0.045 C 
HETATM    4  C4  UNL     1       4.562  36.105 -14.110  1.00  0.00     0.041 C 
HETATM    5  C5  UNL     1       4.191  35.835 -15.558  1.00  0.00     0.064 C 
HETATM    6  C6  UNL     1       4.839  37.056 -16.229  1.00  0.00     0.319 C 
HETATM    7  O1  UNL     1       6.087  37.022 -15.618  1.00  0.00    -0.349 OA
ENDROOT
BRANCH   6   8
HETATM    8  N1  UNL     1       4.859  36.810 -17.627  1.00  0.00    -0.053 N 
ATOM      9  H13 UNL     1       5.784  36.932 -18.040  1.00  0.00     0.277 HD
ATOM     10  H12 UNL     1       4.740  35.824 -17.859  1.00  0.00     0.277 HD
ATOM     11  H11 UNL     1       4.150  37.407 -18.051  1.00  0.00     0.277 HD
ENDBRANCH   6   8
TORSDOF 1
ENDMDL
MODEL 2
REMARK VINA RESULT: -4.063828815      2.227      2.763
REMARK  1 active torsions:
REMARK  status: ('A' for Active; 'I' for Inactive)
REMARK    1  A    between atoms: C6_6  and  N1_7 
ROOT
HETATM    1  C1  UNL     1       6.125  36.397 -13.460  1.00  0.00     0.045 C 
HETATM    2  C2  UNL     1       4.872  36.935 -14.116  1.00  0.00     0.056 C 
HETATM    3  C3  UNL     1       4.841  38.442 -13.911  1.00  0.00     0.045 C 
HETATM    4  C4  UNL     1       4.854  36.566 -15.577  1.00  0.00     0.041 C 
HETATM    5  C5  UNL     1       3.765  35.510 -15.620  1.00  0.00     0.064 C 
HETATM    6  C6  UNL     1       3.730  35.106 -14.138  1.00  0.00     0.319 C 
HETATM    7  O1  UNL     1       3.712  36.367 -13.553  1.00  0.00    -0.349 OA
ENDROOT
BRANCH   6   8
HETATM    8  N1  UNL     1       2.550  34.344 -13.934  1.00  0.00    -0.053 N 
ATOM      9  H13 UNL     1       2.576  33.788 -13.079  1.00  0.00     0.277 HD
ATOM     10  H12 UNL     1       1.742  34.918 -13.693  1.00  0.00     0.277 HD
ATOM     11  H11 UNL     1       2.403  33.781 -14.771  1.00  0.00     0.277 HD
ENDBRANCH   6   8
TORSDOF 1
ENDMDL
MODEL 3
REMARK VINA RESULT: -4.058277137      2.235      2.823
REMARK  1 active torsions:
REMARK  status: ('A' for Active; 'I' for Inactive)
REMARK    1  A    between atoms: C6_6  and  N1_7 
ROOT
HETATM    1  C1  UNL     1       5.194  37.079 -15.927  1.00  0.00     0.045 C 
HETATM    2  C2  UNL     1       5.487  37.057 -14.442  1.00  0.00     0.056 C 
HETATM    3  C3  UNL     1       6.996  37.026 -14.258  1.00  0.00     0.045 C 
HETATM    4  C4  UNL     1       4.863  38.255 -13.774  1.00  0.00     0.041 C 
HETATM    5  C5  UNL     1       3.718  37.622 -13.003  1.00  0.00     0.064 C 
HETATM    6  C6  UNL     1       3.584  36.297 -13.769  1.00  0.00     0.319 C 
HETATM    7  O1  UNL     1       4.921  35.923 -13.825  1.00  0.00    -0.349 OA
ENDROOT
BRANCH   6   8
HETATM    8  N1  UNL     1       2.763  35.439 -12.990  1.00  0.00    -0.053 N 
ATOM      9  H13 UNL     1       2.212  34.793 -13.555  1.00  0.00     0.277 HD
ATOM     10  H12 UNL     1       3.296  34.740 -12.472  1.00  0.00     0.277 HD
ATOM     11  H11 UNL     1       2.191  36.030 -12.388  1.00  0.00     0.277 HD
ENDBRANCH   6   8
TORSDOF 1
ENDMDL
MODEL 4
REMARK VINA RESULT: -3.988017894      1.564      2.469
REMARK  1 active torsions:
REMARK  status: ('A' for Active; 'I' for Inactive)
REMARK    1  A    between atoms: C6_6  and  N1_7 
ROOT
HETATM    1  C1  UNL     1       4.363  35.980 -14.613  1.00  0.00     0.045 C 
HETATM    2  C2  UNL     1       4.926  37.295 -14.117  1.00  0.00     0.056 C 
HETATM    3  C3  UNL     1       3.972  37.853 -13.071  1.00  0.00     0.045 C 
HETATM    4  C4  UNL     1       6.311  37.088 -13.562  1.00  0.00     0.041 C 
HETATM    5  C5  UNL     1       7.175  37.745 -14.623  1.00  0.00     0.064 C 
HETATM    6  C6  UNL     1       6.193  37.739 -15.805  1.00  0.00     0.319 C 
HETATM    7  O1  UNL     1       5.058  38.226 -15.167  1.00  0.00    -0.349 OA
ENDROOT
BRANCH   6   8
HETATM    8  N1  UNL     1       6.724  38.599 -16.802  1.00  0.00    -0.053 N 
ATOM      9  H13 UNL     1       6.241  39.496 -16.853  1.00  0.00     0.277 HD
ATOM     10  H12 UNL     1       7.648  38.960 -16.565  1.00  0.00     0.277 HD
ATOM     11  H11 UNL     1       6.710  38.088 -17.683  1.00  0.00     0.277 HD
ENDBRANCH   6   8
TORSDOF 1
ENDMDL
MODEL 5
REMARK VINA RESULT: -3.917942912      2.228      3.251
REMARK  1 active torsions:
REMARK  status: ('A' for Active; 'I' for Inactive)
REMARK    1  A    between atoms: C6_6  and  N1_7 
ROOT
HETATM    1  C1  UNL     1       4.846  36.639 -16.032  1.00  0.00     0.045 C 
HETATM    2  C2  UNL     1       5.850  37.647 -15.515  1.00  0.00     0.056 C 
HETATM    3  C3  UNL     1       6.296  38.513 -16.683  1.00  0.00     0.045 C 
HETATM    4  C4  UNL     1       5.237  38.466 -14.409  1.00  0.00     0.041 C 
HETATM    5  C5  UNL     1       5.962  37.934 -13.186  1.00  0.00     0.064 C 
HETATM    6  C6  UNL     1       6.456  36.587 -13.736  1.00  0.00     0.319 C 
HETATM    7  O1  UNL     1       6.975  37.010 -14.954  1.00  0.00    -0.349 OA
ENDROOT
BRANCH   6   8
HETATM    8  N1  UNL     1       7.422  36.086 -12.825  1.00  0.00    -0.053 N 
ATOM      9  H13 UNL     1       8.134  35.511 -13.275  1.00  0.00     0.277 HD
ATOM     10  H12 UNL     1       8.044  36.810 -12.465  1.00  0.00     0.277 HD
ATOM     11  H11 UNL     1       6.918  35.592 -12.089  1.00  0.00     0.277 HD
ENDBRANCH   6   8
TORSDOF 1
ENDMDL
