MODEL 1
REMARK VINA RESULT: -5.812050877      0.000      0.000
REMARK  13 active torsions:
REMARK  status: ('A' for Active; 'I' for Inactive)
REMARK    1  A    between atoms: S1_2  and  C2_3 
REMARK    2  A    between atoms: C2_3  and  C3_4 
REMARK    3  A    between atoms: C3_4  and  C4_5 
REMARK    4  A    between atoms: C3_4  and  C9_10 
REMARK    5  A    between atoms: C4_5  and  C5_6 
REMARK    6  A    between atoms: C5_6  and  C6_7 
REMARK    7  A    between atoms: C9_10  and  N1_11 
REMARK    8  A    between atoms: C11_13  and  C12_14 
REMARK    9  A    between atoms: C12_14  and  O1_15 
REMARK   10  A    between atoms: O1_15  and  C13_16 
REMARK   11  A    between atoms: C13_16  and  C14_17 
REMARK   12  A    between atoms: C14_17  and  O2_18 
REMARK   13  A    between atoms: O2_18  and  C15_19 
ROOT
HETATM    1  N1  UNL     1     -14.777  24.247   5.914  1.00  0.00    -0.287 N 
HETATM    2  C10 UNL     1     -16.076  23.912   6.016  1.00  0.00     0.140 A 
HETATM    3  C11 UNL     1     -16.829  24.973   5.618  1.00  0.00     0.068 A 
HETATM    4  N2  UNL     1     -15.974  25.954   5.273  1.00  0.00    -0.287 N 
ATOM      5  H2  UNL     1     -16.228  26.880   4.931  1.00  0.00     0.188 HD
HETATM    6  N3  UNL     1     -14.763  25.507   5.455  1.00  0.00    -0.241 N 
ATOM      7  H3  UNL     1     -13.916  26.045   5.272  1.00  0.00     0.208 HD
ENDROOT
BRANCH   3   8
HETATM    8  C12 UNL     1     -18.303  25.027   5.577  1.00  0.00     0.227 C 
BRANCH   8   9
HETATM    9  O1  UNL     1     -18.778  26.279   5.920  1.00  0.00    -0.383 OA
BRANCH   9  10
HETATM   10  C13 UNL     1     -19.054  26.310   7.264  1.00  0.00     0.194 C 
BRANCH  10  11
HETATM   11  C14 UNL     1     -18.538  27.572   7.927  1.00  0.00     0.201 C 
BRANCH  11  12
HETATM   12  O2  UNL     1     -17.160  27.774   7.624  1.00  0.00    -0.349 OA
BRANCH  12  13
HETATM   13  C15 UNL     1     -16.775  28.977   7.036  1.00  0.00     0.068 A 
HETATM   14  C16 UNL     1     -15.451  29.261   6.840  1.00  0.00     0.037 A 
HETATM   15  C17 UNL     1     -15.095  30.467   6.251  1.00  0.00     0.003 A 
HETATM   16  C18 UNL     1     -16.051  31.378   5.865  1.00  0.00     0.000 A 
HETATM   17  C19 UNL     1     -17.390  31.108   6.057  1.00  0.00     0.003 A 
HETATM   18  C20 UNL     1     -17.720  29.906   6.642  1.00  0.00     0.037 A 
ENDBRANCH  12  13
ENDBRANCH  11  12
ENDBRANCH  10  11
ENDBRANCH   9  10
ENDBRANCH   8   9
ENDBRANCH   3   8
BRANCH   1  19
HETATM   19  C9  UNL     1     -13.687  23.389   6.232  1.00  0.00     0.155 C 
BRANCH  19  20
HETATM   20  C3  UNL     1     -12.661  23.247   5.093  1.00  0.00     0.015 C 
BRANCH  20  21
HETATM   21  C2  UNL     1     -12.603  21.819   4.728  1.00  0.00     0.079 C 
BRANCH  21  22
HETATM   22  S1  UNL     1     -14.024  21.156   3.861  1.00  0.00    -0.173 SA
HETATM   23  C1  UNL     1     -13.540  19.615   3.044  1.00  0.00     0.089 C 
ENDBRANCH  21  22
ENDBRANCH  20  21
BRANCH  20  24
HETATM   24  C4  UNL     1     -11.441  23.911   5.586  1.00  0.00     0.007 C 
BRANCH  24  25
HETATM   25  C5  UNL     1     -11.054  25.224   5.029  1.00  0.00     0.004 C 
BRANCH  25  26
HETATM   26  C6  UNL     1     -11.457  26.256   6.112  1.00  0.00    -0.023 C 
HETATM   27  C7  UNL     1     -11.043  25.788   7.470  1.00  0.00     0.009 C 
HETATM   28  C8  UNL     1     -10.934  27.606   5.747  1.00  0.00     0.009 C 
ENDBRANCH  25  26
ENDBRANCH  24  25
ENDBRANCH  20  24
ENDBRANCH  19  20
ENDBRANCH   1  19
TORSDOF 13
ENDMDL
MODEL 2
REMARK VINA RESULT: -5.645915668      5.622      9.441
REMARK  13 active torsions:
REMARK  status: ('A' for Active; 'I' for Inactive)
REMARK    1  A    between atoms: S1_2  and  C2_3 
REMARK    2  A    between atoms: C2_3  and  C3_4 
REMARK    3  A    between atoms: C3_4  and  C4_5 
REMARK    4  A    between atoms: C3_4  and  C9_10 
REMARK    5  A    between atoms: C4_5  and  C5_6 
REMARK    6  A    between atoms: C5_6  and  C6_7 
REMARK    7  A    between atoms: C9_10  and  N1_11 
REMARK    8  A    between atoms: C11_13  and  C12_14 
REMARK    9  A    between atoms: C12_14  and  O1_15 
REMARK   10  A    between atoms: O1_15  and  C13_16 
REMARK   11  A    between atoms: C13_16  and  C14_17 
REMARK   12  A    between atoms: C14_17  and  O2_18 
REMARK   13  A    between atoms: O2_18  and  C15_19 
ROOT
HETATM    1  N1  UNL     1     -12.176  21.072   6.738  1.00  0.00    -0.287 N 
HETATM    2  C10 UNL     1     -12.600  21.636   7.883  1.00  0.00     0.140 A 
HETATM    3  C11 UNL     1     -12.125  20.904   8.927  1.00  0.00     0.068 A 
HETATM    4  N2  UNL     1     -11.408  19.892   8.403  1.00  0.00    -0.287 N 
ATOM      5  H2  UNL     1     -10.921  19.166   8.928  1.00  0.00     0.188 HD
HETATM    6  N3  UNL     1     -11.449  20.007   7.106  1.00  0.00    -0.241 N 
ATOM      7  H3  UNL     1     -10.989  19.370   6.455  1.00  0.00     0.208 HD
ENDROOT
BRANCH   3   8
HETATM    8  C12 UNL     1     -12.358  21.178  10.358  1.00  0.00     0.227 C 
BRANCH   8   9
HETATM    9  O1  UNL     1     -13.466  20.501  10.834  1.00  0.00    -0.383 OA
BRANCH   9  10
HETATM   10  C13 UNL     1     -13.061  19.499  11.680  1.00  0.00     0.194 C 
BRANCH  10  11
HETATM   11  C14 UNL     1     -13.278  18.122  11.083  1.00  0.00     0.201 C 
BRANCH  11  12
HETATM   12  O2  UNL     1     -12.134  17.708  10.341  1.00  0.00    -0.349 OA
BRANCH  12  13
HETATM   13  C15 UNL     1     -12.146  16.451   9.740  1.00  0.00     0.068 A 
HETATM   14  C16 UNL     1     -10.975  15.791   9.487  1.00  0.00     0.037 A 
HETATM   15  C17 UNL     1     -11.016  14.539   8.888  1.00  0.00     0.003 A 
HETATM   16  C18 UNL     1     -12.214  13.955   8.546  1.00  0.00     0.000 A 
HETATM   17  C19 UNL     1     -13.404  14.606   8.793  1.00  0.00     0.003 A 
HETATM   18  C20 UNL     1     -13.339  15.847   9.388  1.00  0.00     0.037 A 
ENDBRANCH  12  13
ENDBRANCH  11  12
ENDBRANCH  10  11
ENDBRANCH   9  10
ENDBRANCH   8   9
ENDBRANCH   3   8
BRANCH   1  19
HETATM   19  C9  UNL     1     -12.464  21.563   5.433  1.00  0.00     0.155 C 
BRANCH  19  20
HETATM   20  C3  UNL     1     -12.976  23.015   5.419  1.00  0.00     0.015 C 
BRANCH  20  21
HETATM   21  C2  UNL     1     -14.427  22.966   5.156  1.00  0.00     0.079 C 
BRANCH  21  22
HETATM   22  S1  UNL     1     -15.472  23.930   6.246  1.00  0.00    -0.173 SA
HETATM   23  C1  UNL     1     -15.496  25.643   5.664  1.00  0.00     0.089 C 
ENDBRANCH  21  22
ENDBRANCH  20  21
BRANCH  20  24
HETATM   24  C4  UNL     1     -12.099  23.726   4.473  1.00  0.00     0.007 C 
BRANCH  24  25
HETATM   25  C5  UNL     1     -11.005  24.573   4.994  1.00  0.00     0.004 C 
BRANCH  25  26
HETATM   26  C6  UNL     1     -11.535  25.133   6.338  1.00  0.00    -0.023 C 
HETATM   27  C7  UNL     1     -10.629  24.753   7.464  1.00  0.00     0.009 C 
HETATM   28  C8  UNL     1     -11.774  26.602   6.216  1.00  0.00     0.009 C 
ENDBRANCH  25  26
ENDBRANCH  24  25
ENDBRANCH  20  24
ENDBRANCH  19  20
ENDBRANCH   1  19
TORSDOF 13
ENDMDL
MODEL 3
REMARK VINA RESULT: -5.543034466      5.290      7.629
REMARK  13 active torsions:
REMARK  status: ('A' for Active; 'I' for Inactive)
REMARK    1  A    between atoms: S1_2  and  C2_3 
REMARK    2  A    between atoms: C2_3  and  C3_4 
REMARK    3  A    between atoms: C3_4  and  C4_5 
REMARK    4  A    between atoms: C3_4  and  C9_10 
REMARK    5  A    between atoms: C4_5  and  C5_6 
REMARK    6  A    between atoms: C5_6  and  C6_7 
REMARK    7  A    between atoms: C9_10  and  N1_11 
REMARK    8  A    between atoms: C11_13  and  C12_14 
REMARK    9  A    between atoms: C12_14  and  O1_15 
REMARK   10  A    between atoms: O1_15  and  C13_16 
REMARK   11  A    between atoms: C13_16  and  C14_17 
REMARK   12  A    between atoms: C14_17  and  O2_18 
REMARK   13  A    between atoms: O2_18  and  C15_19 
ROOT
HETATM    1  N1  UNL     1     -12.382  20.323   7.049  1.00  0.00    -0.287 N 
HETATM    2  C10 UNL     1     -13.457  19.603   7.417  1.00  0.00     0.140 A 
HETATM    3  C11 UNL     1     -13.087  18.747   8.407  1.00  0.00     0.068 A 
HETATM    4  N2  UNL     1     -11.777  18.955   8.636  1.00  0.00    -0.287 N 
ATOM      5  H2  UNL     1     -11.201  18.467   9.322  1.00  0.00     0.188 HD
HETATM    6  N3  UNL     1     -11.376  19.891   7.823  1.00  0.00    -0.241 N 
ATOM      7  H3  UNL     1     -10.421  20.248   7.780  1.00  0.00     0.208 HD
ENDROOT
BRANCH   3   8
HETATM    8  C12 UNL     1     -13.964  17.778   9.092  1.00  0.00     0.227 C 
BRANCH   8   9
HETATM    9  O1  UNL     1     -13.256  16.987   9.979  1.00  0.00    -0.383 OA
BRANCH   9  10
HETATM   10  C13 UNL     1     -13.739  17.182  11.249  1.00  0.00     0.194 C 
BRANCH  10  11
HETATM   11  C14 UNL     1     -12.835  18.075  12.076  1.00  0.00     0.201 C 
BRANCH  11  12
HETATM   12  O2  UNL     1     -13.557  19.196  12.579  1.00  0.00    -0.349 OA
BRANCH  12  13
HETATM   13  C15 UNL     1     -13.830  20.256  11.718  1.00  0.00     0.068 A 
HETATM   14  C16 UNL     1     -15.122  20.612  11.441  1.00  0.00     0.037 A 
HETATM   15  C17 UNL     1     -15.364  21.674  10.579  1.00  0.00     0.003 A 
HETATM   16  C18 UNL     1     -14.328  22.369  10.001  1.00  0.00     0.000 A 
HETATM   17  C19 UNL     1     -13.021  22.024  10.268  1.00  0.00     0.003 A 
HETATM   18  C20 UNL     1     -12.803  20.969  11.125  1.00  0.00     0.037 A 
ENDBRANCH  12  13
ENDBRANCH  11  12
ENDBRANCH  10  11
ENDBRANCH   9  10
ENDBRANCH   8   9
ENDBRANCH   3   8
BRANCH   1  19
HETATM   19  C9  UNL     1     -12.382  21.332   6.045  1.00  0.00     0.155 C 
BRANCH  19  20
HETATM   20  C3  UNL     1     -13.468  22.403   6.247  1.00  0.00     0.015 C 
BRANCH  20  21
HETATM   21  C2  UNL     1     -14.162  22.575   4.957  1.00  0.00     0.079 C 
BRANCH  21  22
HETATM   22  S1  UNL     1     -15.156  21.196   4.392  1.00  0.00    -0.173 SA
HETATM   23  C1  UNL     1     -14.366  20.467   2.936  1.00  0.00     0.089 C 
ENDBRANCH  21  22
ENDBRANCH  20  21
BRANCH  20  24
HETATM   24  C4  UNL     1     -12.770  23.556   6.844  1.00  0.00     0.007 C 
BRANCH  24  25
HETATM   25  C5  UNL     1     -12.626  24.802   6.062  1.00  0.00     0.004 C 
BRANCH  25  26
HETATM   26  C6  UNL     1     -11.224  25.348   6.429  1.00  0.00    -0.023 C 
HETATM   27  C7  UNL     1     -11.282  26.815   6.705  1.00  0.00     0.009 C 
HETATM   28  C8  UNL     1     -10.640  24.541   7.542  1.00  0.00     0.009 C 
ENDBRANCH  25  26
ENDBRANCH  24  25
ENDBRANCH  20  24
ENDBRANCH  19  20
ENDBRANCH   1  19
TORSDOF 13
ENDMDL
MODEL 4
REMARK VINA RESULT: -5.508710401      2.115      4.450
REMARK  13 active torsions:
REMARK  status: ('A' for Active; 'I' for Inactive)
REMARK    1  A    between atoms: S1_2  and  C2_3 
REMARK    2  A    between atoms: C2_3  and  C3_4 
REMARK    3  A    between atoms: C3_4  and  C4_5 
REMARK    4  A    between atoms: C3_4  and  C9_10 
REMARK    5  A    between atoms: C4_5  and  C5_6 
REMARK    6  A    between atoms: C5_6  and  C6_7 
REMARK    7  A    between atoms: C9_10  and  N1_11 
REMARK    8  A    between atoms: C11_13  and  C12_14 
REMARK    9  A    between atoms: C12_14  and  O1_15 
REMARK   10  A    between atoms: O1_15  and  C13_16 
REMARK   11  A    between atoms: C13_16  and  C14_17 
REMARK   12  A    between atoms: C14_17  and  O2_18 
REMARK   13  A    between atoms: O2_18  and  C15_19 
ROOT
HETATM    1  N1  UNL     1     -14.793  26.428   5.879  1.00  0.00    -0.287 N 
HETATM    2  C10 UNL     1     -15.821  27.254   6.147  1.00  0.00     0.140 A 
HETATM    3  C11 UNL     1     -15.324  28.495   6.398  1.00  0.00     0.068 A 
HETATM    4  N2  UNL     1     -13.986  28.414   6.279  1.00  0.00    -0.287 N 
ATOM      5  H2  UNL     1     -13.323  29.178   6.407  1.00  0.00     0.188 HD
HETATM    6  N3  UNL     1     -13.689  27.182   5.972  1.00  0.00    -0.241 N 
ATOM      7  H3  UNL     1     -12.741  26.838   5.823  1.00  0.00     0.208 HD
ENDROOT
BRANCH   3   8
HETATM    8  C12 UNL     1     -16.113  29.695   6.736  1.00  0.00     0.227 C 
BRANCH   8   9
HETATM    9  O1  UNL     1     -17.283  29.760   6.001  1.00  0.00    -0.383 OA
BRANCH   9  10
HETATM   10  C13 UNL     1     -18.305  30.196   6.809  1.00  0.00     0.194 C 
BRANCH  10  11
HETATM   11  C14 UNL     1     -19.491  29.251   6.794  1.00  0.00     0.201 C 
BRANCH  11  12
HETATM   12  O2  UNL     1     -19.492  28.426   7.956  1.00  0.00    -0.349 OA
BRANCH  12  13
HETATM   13  C15 UNL     1     -19.010  27.123   7.850  1.00  0.00     0.068 A 
HETATM   14  C16 UNL     1     -19.335  26.348   6.770  1.00  0.00     0.037 A 
HETATM   15  C17 UNL     1     -18.841  25.053   6.690  1.00  0.00     0.003 A 
HETATM   16  C18 UNL     1     -18.033  24.540   7.678  1.00  0.00     0.000 A 
HETATM   17  C19 UNL     1     -17.695  25.306   8.773  1.00  0.00     0.003 A 
HETATM   18  C20 UNL     1     -18.196  26.587   8.832  1.00  0.00     0.037 A 
ENDBRANCH  12  13
ENDBRANCH  11  12
ENDBRANCH  10  11
ENDBRANCH   9  10
ENDBRANCH   8   9
ENDBRANCH   3   8
BRANCH   1  19
HETATM   19  C9  UNL     1     -14.920  25.047   5.558  1.00  0.00     0.155 C 
BRANCH  19  20
HETATM   20  C3  UNL     1     -13.877  24.153   6.253  1.00  0.00     0.015 C 
BRANCH  20  21
HETATM   21  C2  UNL     1     -12.940  23.682   5.215  1.00  0.00     0.079 C 
BRANCH  21  22
HETATM   22  S1  UNL     1     -11.316  24.437   5.201  1.00  0.00    -0.173 SA
HETATM   23  C1  UNL     1     -10.899  24.953   6.884  1.00  0.00     0.089 C 
ENDBRANCH  21  22
ENDBRANCH  20  21
BRANCH  20  24
HETATM   24  C4  UNL     1     -14.661  23.164   7.014  1.00  0.00     0.007 C 
BRANCH  24  25
HETATM   25  C5  UNL     1     -13.978  21.985   7.589  1.00  0.00     0.004 C 
BRANCH  25  26
HETATM   26  C6  UNL     1     -13.077  22.552   8.715  1.00  0.00    -0.023 C 
HETATM   27  C7  UNL     1     -13.804  22.563  10.020  1.00  0.00     0.009 C 
HETATM   28  C8  UNL     1     -11.779  21.813   8.746  1.00  0.00     0.009 C 
ENDBRANCH  25  26
ENDBRANCH  24  25
ENDBRANCH  20  24
ENDBRANCH  19  20
ENDBRANCH   1  19
TORSDOF 13
ENDMDL
MODEL 5
REMARK VINA RESULT: -5.485064203      3.453      7.933
REMARK  13 active torsions:
REMARK  status: ('A' for Active; 'I' for Inactive)
REMARK    1  A    between atoms: S1_2  and  C2_3 
REMARK    2  A    between atoms: C2_3  and  C3_4 
REMARK    3  A    between atoms: C3_4  and  C4_5 
REMARK    4  A    between atoms: C3_4  and  C9_10 
REMARK    5  A    between atoms: C4_5  and  C5_6 
REMARK    6  A    between atoms: C5_6  and  C6_7 
REMARK    7  A    between atoms: C9_10  and  N1_11 
REMARK    8  A    between atoms: C11_13  and  C12_14 
REMARK    9  A    between atoms: C12_14  and  O1_15 
REMARK   10  A    between atoms: O1_15  and  C13_16 
REMARK   11  A    between atoms: C13_16  and  C14_17 
REMARK   12  A    between atoms: C14_17  and  O2_18 
REMARK   13  A    between atoms: O2_18  and  C15_19 
ROOT
HETATM    1  N1  UNL     1     -14.912  27.711   6.174  1.00  0.00    -0.287 N 
HETATM    2  C10 UNL     1     -13.946  26.783   6.049  1.00  0.00     0.140 A 
HETATM    3  C11 UNL     1     -12.738  27.399   6.152  1.00  0.00     0.068 A 
HETATM    4  N2  UNL     1     -12.981  28.709   6.343  1.00  0.00    -0.287 N 
ATOM      5  H2  UNL     1     -12.279  29.440   6.458  1.00  0.00     0.188 HD
HETATM    6  N3  UNL     1     -14.274  28.876   6.353  1.00  0.00    -0.241 N 
ATOM      7  H3  UNL     1     -14.738  29.775   6.479  1.00  0.00     0.208 HD
ENDROOT
BRANCH   3   8
HETATM    8  C12 UNL     1     -11.418  26.745   6.070  1.00  0.00     0.227 C 
BRANCH   8   9
HETATM    9  O1  UNL     1     -11.216  25.870   7.121  1.00  0.00    -0.383 OA
BRANCH   9  10
HETATM   10  C13 UNL     1     -10.830  24.647   6.629  1.00  0.00     0.194 C 
BRANCH  10  11
HETATM   11  C14 UNL     1     -12.016  23.755   6.314  1.00  0.00     0.201 C 
BRANCH  11  12
HETATM   12  O2  UNL     1     -11.833  22.458   6.875  1.00  0.00    -0.349 OA
BRANCH  12  13
HETATM   13  C15 UNL     1     -12.342  22.202   8.147  1.00  0.00     0.068 A 
HETATM   14  C16 UNL     1     -11.602  21.507   9.064  1.00  0.00     0.037 A 
HETATM   15  C17 UNL     1     -12.135  21.267  10.324  1.00  0.00     0.003 A 
HETATM   16  C18 UNL     1     -13.390  21.716  10.661  1.00  0.00     0.000 A 
HETATM   17  C19 UNL     1     -14.149  22.418   9.749  1.00  0.00     0.003 A 
HETATM   18  C20 UNL     1     -13.602  22.644   8.506  1.00  0.00     0.037 A 
ENDBRANCH  12  13
ENDBRANCH  11  12
ENDBRANCH  10  11
ENDBRANCH   9  10
ENDBRANCH   8   9
ENDBRANCH   3   8
BRANCH   1  19
HETATM   19  C9  UNL     1     -16.310  27.443   6.131  1.00  0.00     0.155 C 
BRANCH  19  20
HETATM   20  C3  UNL     1     -17.108  28.150   7.241  1.00  0.00     0.015 C 
BRANCH  20  21
HETATM   21  C2  UNL     1     -17.679  27.100   8.107  1.00  0.00     0.079 C 
BRANCH  21  22
HETATM   22  S1  UNL     1     -17.680  25.433   7.452  1.00  0.00    -0.173 SA
HETATM   23  C1  UNL     1     -19.384  24.958   7.074  1.00  0.00     0.089 C 
ENDBRANCH  21  22
ENDBRANCH  20  21
BRANCH  20  24
HETATM   24  C4  UNL     1     -18.017  29.072   6.539  1.00  0.00     0.007 C 
BRANCH  24  25
HETATM   25  C5  UNL     1     -19.279  29.483   7.190  1.00  0.00     0.004 C 
BRANCH  25  26
HETATM   26  C6  UNL     1     -20.402  28.941   6.271  1.00  0.00    -0.023 C 
HETATM   27  C7  UNL     1     -19.824  28.212   5.102  1.00  0.00     0.009 C 
HETATM   28  C8  UNL     1     -21.371  28.136   7.074  1.00  0.00     0.009 C 
ENDBRANCH  25  26
ENDBRANCH  24  25
ENDBRANCH  20  24
ENDBRANCH  19  20
ENDBRANCH   1  19
TORSDOF 13
ENDMDL
