MODEL 1
REMARK VINA RESULT: -9.248677267      0.000      0.000
REMARK  8 active torsions:
REMARK  status: ('A' for Active; 'I' for Inactive)
REMARK    1  A    between atoms: C5_5  and  N1_6 
REMARK    2  A    between atoms: N1_6  and  C6_8 
REMARK    3  A    between atoms: C7_10  and  C8_11 
REMARK    4  A    between atoms: C9_12  and  C11_15 
REMARK    5  A    between atoms: C11_15  and  O3_17 
REMARK    6  A    between atoms: O3_17  and  C12_18 
REMARK    7  A    between atoms: C17_23  and  C18_24 
REMARK    8  A    between atoms: C19_25  and  C20_26 
ROOT
HETATM    1  C8  UNL     1      11.988  15.829  63.141  1.00  0.00     0.067 C 
HETATM    2  C9  UNL     1      11.349  15.422  64.184  1.00  0.00     0.122 C 
HETATM    3  C10 UNL     1      11.964  15.036  65.419  1.00  0.00     0.105 C 
HETATM    4  N2  UNL     1      12.447  14.691  66.440  1.00  0.00    -0.191 NA
ENDROOT
BRANCH   2   5
HETATM    5  C11 UNL     1       9.864  15.350  64.087  1.00  0.00     0.304 C 
HETATM    6  O2  UNL     1       9.275  15.225  63.000  1.00  0.00    -0.258 OA
BRANCH   5   7
HETATM    7  O3  UNL     1       9.111  15.424  65.234  1.00  0.00    -0.312 OA
BRANCH   7   8
HETATM    8  C12 UNL     1       8.211  14.414  65.641  1.00  0.00     0.124 C 
HETATM    9  C13 UNL     1       8.756  13.694  66.840  1.00  0.00     0.040 C 
HETATM   10  C14 UNL     1       6.817  14.931  65.881  1.00  0.00     0.040 C 
ENDBRANCH   7   8
ENDBRANCH   5   7
ENDBRANCH   2   5
BRANCH   1  11
HETATM   11  C7  UNL     1      13.414  16.004  62.941  1.00  0.00     0.087 A 
HETATM   12  O1  UNL     1      14.046  17.167  62.817  1.00  0.00    -0.292 OA
HETATM   13  C6  UNL     1      15.332  16.967  62.653  1.00  0.00     0.169 A 
HETATM   14  C17 UNL     1      15.583  15.594  62.668  1.00  0.00     0.077 A 
HETATM   15  C15 UNL     1      14.349  15.007  62.853  1.00  0.00    -0.005 A 
HETATM   16  C16 UNL     1      14.210  13.525  62.960  1.00  0.00     0.052 C 
BRANCH  13  17
HETATM   17  N1  UNL     1      16.328  17.966  62.486  1.00  0.00    -0.322 N 
ATOM     18  H1  UNL     1      16.289  18.837  63.017  1.00  0.00     0.169 HD
BRANCH  17  19
HETATM   19  C5  UNL     1      17.381  17.723  61.559  1.00  0.00     0.109 A 
HETATM   20  C4  UNL     1      17.131  17.355  60.255  1.00  0.00     0.049 A 
HETATM   21  C3  UNL     1      18.193  17.137  59.413  1.00  0.00     0.015 A 
HETATM   22  C2  UNL     1      19.497  17.272  59.826  1.00  0.00    -0.006 A 
HETATM   23  C1  UNL     1      20.669  17.043  58.940  1.00  0.00     0.053 C 
HETATM   24  C25 UNL     1      19.675  17.646  61.153  1.00  0.00     0.195 A 
HETATM   25  N3  UNL     1      18.643  17.859  61.974  1.00  0.00    -0.319 N 
HETATM   26  F1  UNL     1      20.973  17.781  61.563  1.00  0.00    -0.186 F 
ATOM     27  H3  UNL     1      18.823  18.132  62.940  1.00  0.00     0.169 HD
ENDBRANCH  17  19
ENDBRANCH  13  17
BRANCH  14  28
HETATM   28  C18 UNL     1      16.832  14.908  62.526  1.00  0.00    -0.061 C 
HETATM   29  C19 UNL     1      17.888  14.316  62.388  1.00  0.00    -0.096 C 
BRANCH  29  30
HETATM   30  C20 UNL     1      19.174  13.617  62.238  1.00  0.00     0.065 C 
HETATM   31  C21 UNL     1      20.225  14.530  62.828  1.00  0.00     0.017 C 
HETATM   32  C22 UNL     1      21.438  14.363  61.946  1.00  0.00     0.001 C 
HETATM   33  C23 UNL     1      20.929  13.908  60.601  1.00  0.00     0.001 C 
HETATM   34  C24 UNL     1      19.528  13.423  60.780  1.00  0.00     0.017 C 
ENDBRANCH  29  30
ENDBRANCH  14  28
ENDBRANCH   1  11
TORSDOF 8
ENDMDL
MODEL 2
REMARK VINA RESULT: -9.109752310      5.329     12.311
REMARK  8 active torsions:
REMARK  status: ('A' for Active; 'I' for Inactive)
REMARK    1  A    between atoms: C5_5  and  N1_6 
REMARK    2  A    between atoms: N1_6  and  C6_8 
REMARK    3  A    between atoms: C7_10  and  C8_11 
REMARK    4  A    between atoms: C9_12  and  C11_15 
REMARK    5  A    between atoms: C11_15  and  O3_17 
REMARK    6  A    between atoms: O3_17  and  C12_18 
REMARK    7  A    between atoms: C17_23  and  C18_24 
REMARK    8  A    between atoms: C19_25  and  C20_26 
ROOT
HETATM    1  C8  UNL     1      10.236  15.437  63.703  1.00  0.00     0.067 C 
HETATM    2  C9  UNL     1      11.147  15.037  64.523  1.00  0.00     0.122 C 
HETATM    3  C10 UNL     1      10.901  14.257  65.699  1.00  0.00     0.105 C 
HETATM    4  N2  UNL     1      10.722  13.634  66.686  1.00  0.00    -0.191 NA
ENDROOT
BRANCH   2   5
HETATM    5  C11 UNL     1      12.554  15.419  64.216  1.00  0.00     0.304 C 
HETATM    6  O2  UNL     1      12.859  16.548  63.799  1.00  0.00    -0.258 OA
BRANCH   5   7
HETATM    7  O3  UNL     1      13.556  14.496  64.399  1.00  0.00    -0.312 OA
BRANCH   7   8
HETATM    8  C12 UNL     1      14.253  13.882  63.335  1.00  0.00     0.124 C 
HETATM    9  C13 UNL     1      15.733  13.988  63.562  1.00  0.00     0.040 C 
HETATM   10  C14 UNL     1      13.822  12.460  63.091  1.00  0.00     0.040 C 
ENDBRANCH   7   8
ENDBRANCH   5   7
ENDBRANCH   2   5
BRANCH   1  11
HETATM   11  C7  UNL     1       8.802  15.220  63.736  1.00  0.00     0.087 A 
HETATM   12  O1  UNL     1       8.079  14.651  62.778  1.00  0.00    -0.292 OA
HETATM   13  C6  UNL     1       6.816  14.607  63.131  1.00  0.00     0.169 A 
HETATM   14  C17 UNL     1       6.680  15.176  64.398  1.00  0.00     0.077 A 
HETATM   15  C15 UNL     1       7.955  15.555  64.759  1.00  0.00    -0.005 A 
HETATM   16  C16 UNL     1       8.226  16.179  66.087  1.00  0.00     0.052 C 
BRANCH  13  17
HETATM   17  N1  UNL     1       5.743  14.073  62.368  1.00  0.00    -0.322 N 
ATOM     18  H1  UNL     1       5.307  14.620  61.625  1.00  0.00     0.169 HD
BRANCH  17  19
HETATM   19  C5  UNL     1       5.291  12.756  62.666  1.00  0.00     0.109 A 
HETATM   20  C4  UNL     1       5.196  12.297  63.962  1.00  0.00     0.049 A 
HETATM   21  C3  UNL     1       4.751  11.017  64.179  1.00  0.00     0.015 A 
HETATM   22  C2  UNL     1       4.398  10.176  63.149  1.00  0.00    -0.006 A 
HETATM   23  C1  UNL     1       3.914   8.785  63.351  1.00  0.00     0.053 C 
HETATM   24  C25 UNL     1       4.519  10.706  61.870  1.00  0.00     0.195 A 
HETATM   25  N3  UNL     1       4.951  11.951  61.656  1.00  0.00    -0.319 N 
HETATM   26  F1  UNL     1       4.168   9.870  60.846  1.00  0.00    -0.186 F 
ATOM     27  H3  UNL     1       5.024  12.296  60.699  1.00  0.00     0.169 HD
ENDBRANCH  17  19
ENDBRANCH  13  17
BRANCH  14  28
HETATM   28  C18 UNL     1       5.495  15.345  65.183  1.00  0.00    -0.061 C 
HETATM   29  C19 UNL     1       4.474  15.488  65.834  1.00  0.00    -0.096 C 
BRANCH  29  30
HETATM   30  C20 UNL     1       3.255  15.655  66.640  1.00  0.00     0.065 C 
HETATM   31  C21 UNL     1       2.365  16.608  65.873  1.00  0.00     0.017 C 
HETATM   32  C22 UNL     1       1.692  17.456  66.923  1.00  0.00     0.001 C 
HETATM   33  C23 UNL     1       2.597  17.442  68.129  1.00  0.00     0.001 C 
HETATM   34  C24 UNL     1       3.558  16.311  67.968  1.00  0.00     0.017 C 
ENDBRANCH  29  30
ENDBRANCH  14  28
ENDBRANCH   1  11
TORSDOF 8
ENDMDL
MODEL 3
REMARK VINA RESULT: -8.935644119      3.541      8.738
REMARK  8 active torsions:
REMARK  status: ('A' for Active; 'I' for Inactive)
REMARK    1  A    between atoms: C5_5  and  N1_6 
REMARK    2  A    between atoms: N1_6  and  C6_8 
REMARK    3  A    between atoms: C7_10  and  C8_11 
REMARK    4  A    between atoms: C9_12  and  C11_15 
REMARK    5  A    between atoms: C11_15  and  O3_17 
REMARK    6  A    between atoms: O3_17  and  C12_18 
REMARK    7  A    between atoms: C17_23  and  C18_24 
REMARK    8  A    between atoms: C19_25  and  C20_26 
ROOT
HETATM    1  C8  UNL     1      20.556  14.781  61.999  1.00  0.00     0.067 C 
HETATM    2  C9  UNL     1      21.147  14.777  60.853  1.00  0.00     0.122 C 
HETATM    3  C10 UNL     1      20.586  15.304  59.644  1.00  0.00     0.105 C 
HETATM    4  N2  UNL     1      20.137  15.711  58.631  1.00  0.00    -0.191 NA
ENDROOT
BRANCH   2   5
HETATM    5  C11 UNL     1      22.510  14.178  60.791  1.00  0.00     0.304 C 
HETATM    6  O2  UNL     1      23.283  14.385  59.842  1.00  0.00    -0.258 OA
BRANCH   5   7
HETATM    7  O3  UNL     1      22.934  13.369  61.817  1.00  0.00    -0.312 OA
BRANCH   7   8
HETATM    8  C12 UNL     1      22.924  11.958  61.751  1.00  0.00     0.124 C 
HETATM    9  C13 UNL     1      24.318  11.445  61.531  1.00  0.00     0.040 C 
HETATM   10  C14 UNL     1      22.270  11.317  62.947  1.00  0.00     0.040 C 
ENDBRANCH   7   8
ENDBRANCH   5   7
ENDBRANCH   2   5
BRANCH   1  11
HETATM   11  C7  UNL     1      19.248  15.291  62.364  1.00  0.00     0.087 A 
HETATM   12  O1  UNL     1      18.940  16.567  62.571  1.00  0.00    -0.292 OA
HETATM   13  C6  UNL     1      17.670  16.681  62.880  1.00  0.00     0.169 A 
HETATM   14  C17 UNL     1      17.088  15.412  62.880  1.00  0.00     0.077 A 
HETATM   15  C15 UNL     1      18.112  14.550  62.548  1.00  0.00    -0.005 A 
HETATM   16  C16 UNL     1      17.868  13.084  62.410  1.00  0.00     0.052 C 
BRANCH  13  17
HETATM   17  N1  UNL     1      16.976  17.886  63.171  1.00  0.00    -0.322 N 
ATOM     18  H1  UNL     1      17.057  18.327  64.088  1.00  0.00     0.169 HD
BRANCH  17  19
HETATM   19  C5  UNL     1      16.165  18.462  62.152  1.00  0.00     0.109 A 
HETATM   20  C4  UNL     1      14.792  18.348  62.165  1.00  0.00     0.049 A 
HETATM   21  C3  UNL     1      14.070  18.929  61.153  1.00  0.00     0.015 A 
HETATM   22  C2  UNL     1      14.669  19.620  60.126  1.00  0.00    -0.006 A 
HETATM   23  C1  UNL     1      13.916  20.260  59.015  1.00  0.00     0.053 C 
HETATM   24  C25 UNL     1      16.056  19.695  60.178  1.00  0.00     0.195 A 
HETATM   25  N3  UNL     1      16.761  19.131  61.162  1.00  0.00    -0.319 N 
HETATM   26  F1  UNL     1      16.652  20.383  59.156  1.00  0.00    -0.186 F 
ATOM     27  H3  UNL     1      17.777  19.213  61.157  1.00  0.00     0.169 HD
ENDBRANCH  17  19
ENDBRANCH  13  17
BRANCH  14  28
HETATM   28  C18 UNL     1      15.732  15.047  63.157  1.00  0.00    -0.061 C 
HETATM   29  C19 UNL     1      14.576  14.730  63.373  1.00  0.00    -0.096 C 
BRANCH  29  30
HETATM   30  C20 UNL     1      13.184  14.347  63.659  1.00  0.00     0.065 C 
HETATM   31  C21 UNL     1      12.325  15.513  63.222  1.00  0.00     0.017 C 
HETATM   32  C22 UNL     1      11.213  15.591  64.238  1.00  0.00     0.001 C 
HETATM   33  C23 UNL     1      11.742  14.957  65.501  1.00  0.00     0.001 C 
HETATM   34  C24 UNL     1      12.956  14.166  65.143  1.00  0.00     0.017 C 
ENDBRANCH  29  30
ENDBRANCH  14  28
ENDBRANCH   1  11
TORSDOF 8
ENDMDL
MODEL 4
REMARK VINA RESULT: -8.787509267      0.975      1.208
REMARK  8 active torsions:
REMARK  status: ('A' for Active; 'I' for Inactive)
REMARK    1  A    between atoms: C5_5  and  N1_6 
REMARK    2  A    between atoms: N1_6  and  C6_8 
REMARK    3  A    between atoms: C7_10  and  C8_11 
REMARK    4  A    between atoms: C9_12  and  C11_15 
REMARK    5  A    between atoms: C11_15  and  O3_17 
REMARK    6  A    between atoms: O3_17  and  C12_18 
REMARK    7  A    between atoms: C17_23  and  C18_24 
REMARK    8  A    between atoms: C19_25  and  C20_26 
ROOT
HETATM    1  C8  UNL     1      11.782  15.804  63.090  1.00  0.00     0.067 C 
HETATM    2  C9  UNL     1      11.087  15.367  64.084  1.00  0.00     0.122 C 
HETATM    3  C10 UNL     1      11.633  14.953  65.343  1.00  0.00     0.105 C 
HETATM    4  N2  UNL     1      12.059  14.586  66.380  1.00  0.00    -0.191 NA
ENDROOT
BRANCH   2   5
HETATM    5  C11 UNL     1       9.610  15.290  63.900  1.00  0.00     0.304 C 
HETATM    6  O2  UNL     1       9.092  15.003  62.808  1.00  0.00    -0.258 OA
BRANCH   5   7
HETATM    7  O3  UNL     1       8.786  15.543  64.970  1.00  0.00    -0.312 OA
BRANCH   7   8
HETATM    8  C12 UNL     1       7.698  14.717  65.328  1.00  0.00     0.124 C 
HETATM    9  C13 UNL     1       7.993  14.012  66.620  1.00  0.00     0.040 C 
HETATM   10  C14 UNL     1       6.387  15.457  65.376  1.00  0.00     0.040 C 
ENDBRANCH   7   8
ENDBRANCH   5   7
ENDBRANCH   2   5
BRANCH   1  11
HETATM   11  C7  UNL     1      13.216  15.991  62.976  1.00  0.00     0.087 A 
HETATM   12  O1  UNL     1      13.852  17.158  62.986  1.00  0.00    -0.292 OA
HETATM   13  C6  UNL     1      15.145  16.970  62.869  1.00  0.00     0.169 A 
HETATM   14  C17 UNL     1      15.396  15.600  62.777  1.00  0.00     0.077 A 
HETATM   15  C15 UNL     1      14.156  15.003  62.849  1.00  0.00    -0.005 A 
HETATM   16  C16 UNL     1      14.014  13.518  62.821  1.00  0.00     0.052 C 
BRANCH  13  17
HETATM   17  N1  UNL     1      16.146  17.977  62.838  1.00  0.00    -0.322 N 
ATOM     18  H1  UNL     1      16.069  18.809  63.424  1.00  0.00     0.169 HD
BRANCH  17  19
HETATM   19  C5  UNL     1      17.260  17.796  61.969  1.00  0.00     0.109 A 
HETATM   20  C4  UNL     1      18.557  17.944  62.411  1.00  0.00     0.049 A 
HETATM   21  C3  UNL     1      19.585  17.754  61.521  1.00  0.00     0.015 A 
HETATM   22  C2  UNL     1      19.365  17.423  60.204  1.00  0.00    -0.006 A 
HETATM   23  C1  UNL     1      20.456  17.211  59.216  1.00  0.00     0.053 C 
HETATM   24  C25 UNL     1      18.033  17.291  59.829  1.00  0.00     0.195 A 
HETATM   25  N3  UNL     1      17.032  17.474  60.694  1.00  0.00    -0.319 N 
HETATM   26  F1  UNL     1      17.815  16.961  58.520  1.00  0.00    -0.186 F 
ATOM     27  H3  UNL     1      16.070  17.366  60.372  1.00  0.00     0.169 HD
ENDBRANCH  17  19
ENDBRANCH  13  17
BRANCH  14  28
HETATM   28  C18 UNL     1      16.651  14.925  62.638  1.00  0.00    -0.061 C 
HETATM   29  C19 UNL     1      17.710  14.333  62.516  1.00  0.00    -0.096 C 
BRANCH  29  30
HETATM   30  C20 UNL     1      18.999  13.641  62.366  1.00  0.00     0.065 C 
HETATM   31  C21 UNL     1      20.051  14.580  62.914  1.00  0.00     0.017 C 
HETATM   32  C22 UNL     1      21.252  14.398  62.019  1.00  0.00     0.001 C 
HETATM   33  C23 UNL     1      20.728  13.900  60.695  1.00  0.00     0.001 C 
HETATM   34  C24 UNL     1      19.334  13.409  60.909  1.00  0.00     0.017 C 
ENDBRANCH  29  30
ENDBRANCH  14  28
ENDBRANCH   1  11
TORSDOF 8
ENDMDL
MODEL 5
REMARK VINA RESULT: -8.684582245      5.188     11.997
REMARK  8 active torsions:
REMARK  status: ('A' for Active; 'I' for Inactive)
REMARK    1  A    between atoms: C5_5  and  N1_6 
REMARK    2  A    between atoms: N1_6  and  C6_8 
REMARK    3  A    between atoms: C7_10  and  C8_11 
REMARK    4  A    between atoms: C9_12  and  C11_15 
REMARK    5  A    between atoms: C11_15  and  O3_17 
REMARK    6  A    between atoms: O3_17  and  C12_18 
REMARK    7  A    between atoms: C17_23  and  C18_24 
REMARK    8  A    between atoms: C19_25  and  C20_26 
ROOT
HETATM    1  C8  UNL     1      10.751  15.436  63.888  1.00  0.00     0.067 C 
HETATM    2  C9  UNL     1      11.734  14.879  64.510  1.00  0.00     0.122 C 
HETATM    3  C10 UNL     1      11.593  13.914  65.560  1.00  0.00     0.105 C 
HETATM    4  N2  UNL     1      11.504  13.135  66.442  1.00  0.00    -0.191 NA
ENDROOT
BRANCH   2   5
HETATM    5  C11 UNL     1      13.110  15.274  64.099  1.00  0.00     0.304 C 
HETATM    6  O2  UNL     1      13.361  16.384  63.600  1.00  0.00    -0.258 OA
BRANCH   5   7
HETATM    7  O3  UNL     1      14.145  14.387  64.276  1.00  0.00    -0.312 OA
BRANCH   7   8
HETATM    8  C12 UNL     1      14.757  13.683  63.216  1.00  0.00     0.124 C 
HETATM    9  C13 UNL     1      16.224  13.520  63.488  1.00  0.00     0.040 C 
HETATM   10  C14 UNL     1      14.089  12.366  62.921  1.00  0.00     0.040 C 
ENDBRANCH   7   8
ENDBRANCH   5   7
ENDBRANCH   2   5
BRANCH   1  11
HETATM   11  C7  UNL     1       9.322  15.251  64.063  1.00  0.00     0.087 A 
HETATM   12  O1  UNL     1       8.437  15.065  63.089  1.00  0.00    -0.292 OA
HETATM   13  C6  UNL     1       7.234  14.928  63.593  1.00  0.00     0.169 A 
HETATM   14  C17 UNL     1       7.311  15.025  64.983  1.00  0.00     0.077 A 
HETATM   15  C15 UNL     1       8.648  15.229  65.254  1.00  0.00    -0.005 A 
HETATM   16  C16 UNL     1       9.139  15.348  66.658  1.00  0.00     0.052 C 
BRANCH  13  17
HETATM   17  N1  UNL     1       6.033  14.713  62.866  1.00  0.00    -0.322 N 
ATOM     18  H1  UNL     1       5.515  15.498  62.468  1.00  0.00     0.169 HD
BRANCH  17  19
HETATM   19  C5  UNL     1       5.568  13.377  62.705  1.00  0.00     0.109 A 
HETATM   20  C4  UNL     1       5.665  12.714  61.501  1.00  0.00     0.049 A 
HETATM   21  C3  UNL     1       5.199  11.426  61.416  1.00  0.00     0.015 A 
HETATM   22  C2  UNL     1       4.639  10.774  62.489  1.00  0.00    -0.006 A 
HETATM   23  C1  UNL     1       4.125   9.380  62.429  1.00  0.00     0.053 C 
HETATM   24  C25 UNL     1       4.574  11.503  63.671  1.00  0.00     0.195 A 
HETATM   25  N3  UNL     1       5.027  12.757  63.756  1.00  0.00    -0.319 N 
HETATM   26  F1  UNL     1       4.016  10.855  64.738  1.00  0.00    -0.186 F 
ATOM     27  H3  UNL     1       4.958  13.252  64.646  1.00  0.00     0.169 HD
ENDBRANCH  17  19
ENDBRANCH  13  17
BRANCH  14  28
HETATM   28  C18 UNL     1       6.258  14.937  65.949  1.00  0.00    -0.061 C 
HETATM   29  C19 UNL     1       5.370  14.845  66.779  1.00  0.00    -0.096 C 
BRANCH  29  30
HETATM   30  C20 UNL     1       4.292  14.758  67.776  1.00  0.00     0.065 C 
HETATM   31  C21 UNL     1       3.118  14.110  67.077  1.00  0.00     0.017 C 
HETATM   32  C22 UNL     1       1.895  14.800  67.629  1.00  0.00     0.001 C 
HETATM   33  C23 UNL     1       2.349  16.158  68.103  1.00  0.00     0.001 C 
HETATM   34  C24 UNL     1       3.837  16.132  68.217  1.00  0.00     0.017 C 
ENDBRANCH  29  30
ENDBRANCH  14  28
ENDBRANCH   1  11
TORSDOF 8
ENDMDL
