MODEL 1
REMARK VINA RESULT: -7.771276045      0.000      0.000
REMARK  6 active torsions:
REMARK  status: ('A' for Active; 'I' for Inactive)
REMARK    1  A    between atoms: C2_2  and  O1_3 
REMARK    2  A    between atoms: O1_3  and  C3_4 
REMARK    3  A    between atoms: C3_4  and  C4_6 
REMARK    4  A    between atoms: C9_12  and  C10_13 
REMARK    5  A    between atoms: C12_15  and  N1_16 
REMARK       I    between atoms: N1_16  and  C13_18 
REMARK    6  A    between atoms: C13_18  and  C14_20 
ROOT
HETATM    1  C4  UNL     1      18.775  14.647  61.408  1.00  0.00     0.064 A 
HETATM    2  C5  UNL     1      19.519  14.341  60.300  1.00  0.00    -0.004 A 
HETATM    3  C6  UNL     1      20.168  13.016  59.945  1.00  0.00     0.057 C 
HETATM    4  S1  UNL     1      19.534  15.796  59.430  1.00  0.00    -0.097 SA
HETATM    5  C7  UNL     1      18.623  16.717  60.475  1.00  0.00     0.005 A 
HETATM    6  C8  UNL     1      18.277  15.911  61.539  1.00  0.00     0.004 A 
HETATM    7  C9  UNL     1      17.465  16.225  62.773  1.00  0.00    -0.011 C 
HETATM    8  C19 UNL     1      17.647  17.444  63.556  1.00  0.00     0.053 C 
HETATM    9  C20 UNL     1      17.414  18.815  62.858  1.00  0.00     0.085 C 
HETATM   10  C21 UNL     1      17.861  18.688  61.530  1.00  0.00    -0.178 C 
HETATM   11  C22 UNL     1      18.266  18.189  60.258  1.00  0.00     0.127 C 
ENDROOT
BRANCH   7  12
HETATM   12  C10 UNL     1      16.063  15.725  62.658  1.00  0.00     0.084 A 
HETATM   13  C11 UNL     1      15.211  15.572  63.714  1.00  0.00     0.069 A 
HETATM   14  C12 UNL     1      13.984  15.084  63.240  1.00  0.00     0.060 A 
HETATM   15  C18 UNL     1      14.179  14.971  61.893  1.00  0.00     0.172 A 
HETATM   16  O4  UNL     1      15.407  15.355  61.591  1.00  0.00    -0.320 OA
BRANCH  14  17
HETATM   17  N1  UNL     1      12.869  14.809  64.074  1.00  0.00    -0.321 N 
HETATM   18  C13 UNL     1      11.609  15.387  63.917  1.00  0.00     0.266 C 
HETATM   19  O3  UNL     1      11.422  16.209  62.983  1.00  0.00    -0.267 OA
ATOM     20  H1  UNL     1      12.997  14.145  64.838  1.00  0.00     0.169 HD
BRANCH  18  21
HETATM   21  C14 UNL     1      10.455  15.104  64.779  1.00  0.00     0.111 A 
HETATM   22  S2  UNL     1       8.791  15.386  64.362  1.00  0.00    -0.093 SA
HETATM   23  C15 UNL     1       8.050  14.841  65.791  1.00  0.00     0.054 A 
HETATM   24  C16 UNL     1       9.113  14.454  66.554  1.00  0.00     0.051 A 
HETATM   25  C17 UNL     1      10.342  14.591  66.032  1.00  0.00     0.139 A 
HETATM   26  F1  UNL     1      11.472  14.216  66.760  1.00  0.00    -0.204 F 
ENDBRANCH  18  21
ENDBRANCH  14  17
ENDBRANCH   7  12
BRANCH   1  27
HETATM   27  C3  UNL     1      18.578  13.521  62.401  1.00  0.00     0.295 C 
HETATM   28  O2  UNL     1      19.399  13.320  63.321  1.00  0.00    -0.259 OA
BRANCH  27  29
HETATM   29  O1  UNL     1      17.483  12.689  62.310  1.00  0.00    -0.318 OA
BRANCH  29  30
HETATM   30  C2  UNL     1      16.730  12.203  63.369  1.00  0.00     0.174 C 
HETATM   31  C1  UNL     1      15.360  11.740  63.009  1.00  0.00     0.034 C 
ENDBRANCH  29  30
ENDBRANCH  27  29
ENDBRANCH   1  27
TORSDOF 6
ENDMDL
MODEL 2
REMARK VINA RESULT: -7.502110637      2.723      4.821
REMARK  6 active torsions:
REMARK  status: ('A' for Active; 'I' for Inactive)
REMARK    1  A    between atoms: C2_2  and  O1_3 
REMARK    2  A    between atoms: O1_3  and  C3_4 
REMARK    3  A    between atoms: C3_4  and  C4_6 
REMARK    4  A    between atoms: C9_12  and  C10_13 
REMARK    5  A    between atoms: C12_15  and  N1_16 
REMARK       I    between atoms: N1_16  and  C13_18 
REMARK    6  A    between atoms: C13_18  and  C14_20 
ROOT
HETATM    1  C4  UNL     1      15.912  16.463  62.767  1.00  0.00     0.064 A 
HETATM    2  C5  UNL     1      17.162  16.975  62.990  1.00  0.00    -0.004 A 
HETATM    3  C6  UNL     1      17.631  18.407  62.819  1.00  0.00     0.057 C 
HETATM    4  S1  UNL     1      18.048  15.623  63.501  1.00  0.00    -0.097 SA
HETATM    5  C7  UNL     1      16.835  14.486  63.414  1.00  0.00     0.005 A 
HETATM    6  C8  UNL     1      15.696  15.132  62.982  1.00  0.00     0.004 A 
HETATM    7  C9  UNL     1      14.310  14.590  62.724  1.00  0.00    -0.011 C 
HETATM    8  C19 UNL     1      14.066  13.347  62.001  1.00  0.00     0.053 C 
HETATM    9  C20 UNL     1      14.648  12.025  62.581  1.00  0.00     0.085 C 
HETATM   10  C21 UNL     1      15.890  12.337  63.162  1.00  0.00    -0.178 C 
HETATM   11  C22 UNL     1      17.002  13.004  63.753  1.00  0.00     0.127 C 
ENDROOT
BRANCH   7  12
HETATM   12  C10 UNL     1      13.379  14.886  63.852  1.00  0.00     0.084 A 
HETATM   13  C11 UNL     1      12.036  14.634  63.828  1.00  0.00     0.069 A 
HETATM   14  C12 UNL     1      11.478  15.037  65.051  1.00  0.00     0.060 A 
HETATM   15  C18 UNL     1      12.547  15.518  65.753  1.00  0.00     0.172 A 
HETATM   16  O4  UNL     1      13.640  15.413  65.018  1.00  0.00    -0.320 OA
BRANCH  14  17
HETATM   17  N1  UNL     1      10.099  14.918  65.365  1.00  0.00    -0.321 N 
HETATM   18  C13 UNL     1       9.067  15.040  64.434  1.00  0.00     0.266 C 
HETATM   19  O3  UNL     1       9.350  15.271  63.230  1.00  0.00    -0.267 OA
ATOM     20  H1  UNL     1       9.846  14.731  66.336  1.00  0.00     0.169 HD
BRANCH  18  21
HETATM   21  C14 UNL     1       7.641  14.918  64.759  1.00  0.00     0.111 A 
HETATM   22  S2  UNL     1       6.327  15.427  63.739  1.00  0.00    -0.093 SA
HETATM   23  C15 UNL     1       5.019  14.987  64.732  1.00  0.00     0.054 A 
HETATM   24  C16 UNL     1       5.636  14.456  65.827  1.00  0.00     0.051 A 
HETATM   25  C17 UNL     1       6.978  14.423  65.836  1.00  0.00     0.139 A 
HETATM   26  F1  UNL     1       7.671  13.894  66.925  1.00  0.00    -0.204 F 
ENDBRANCH  18  21
ENDBRANCH  14  17
ENDBRANCH   7  12
BRANCH   1  27
HETATM   27  C3  UNL     1      14.870  17.452  62.289  1.00  0.00     0.295 C 
HETATM   28  O2  UNL     1      14.022  17.926  63.073  1.00  0.00    -0.259 OA
BRANCH  27  29
HETATM   29  O1  UNL     1      14.836  17.853  60.971  1.00  0.00    -0.318 OA
BRANCH  29  30
HETATM   30  C2  UNL     1      15.142  19.118  60.488  1.00  0.00     0.174 C 
HETATM   31  C1  UNL     1      16.182  19.150  59.420  1.00  0.00     0.034 C 
ENDBRANCH  29  30
ENDBRANCH  27  29
ENDBRANCH   1  27
TORSDOF 6
ENDMDL
MODEL 3
REMARK VINA RESULT: -7.451299904      2.880      4.979
REMARK  6 active torsions:
REMARK  status: ('A' for Active; 'I' for Inactive)
REMARK    1  A    between atoms: C2_2  and  O1_3 
REMARK    2  A    between atoms: O1_3  and  C3_4 
REMARK    3  A    between atoms: C3_4  and  C4_6 
REMARK    4  A    between atoms: C9_12  and  C10_13 
REMARK    5  A    between atoms: C12_15  and  N1_16 
REMARK       I    between atoms: N1_16  and  C13_18 
REMARK    6  A    between atoms: C13_18  and  C14_20 
ROOT
HETATM    1  C4  UNL     1      15.969  16.596  62.721  1.00  0.00     0.064 A 
HETATM    2  C5  UNL     1      17.169  17.174  63.038  1.00  0.00    -0.004 A 
HETATM    3  C6  UNL     1      17.599  18.614  62.829  1.00  0.00     0.057 C 
HETATM    4  S1  UNL     1      18.048  15.893  63.718  1.00  0.00    -0.097 SA
HETATM    5  C7  UNL     1      16.894  14.702  63.578  1.00  0.00     0.005 A 
HETATM    6  C8  UNL     1      15.783  15.272  62.994  1.00  0.00     0.004 A 
HETATM    7  C9  UNL     1      14.453  14.656  62.630  1.00  0.00    -0.011 C 
HETATM    8  C19 UNL     1      14.332  13.364  61.963  1.00  0.00     0.053 C 
HETATM    9  C20 UNL     1      14.900  12.104  62.679  1.00  0.00     0.085 C 
HETATM   10  C21 UNL     1      16.062  12.503  63.363  1.00  0.00    -0.178 C 
HETATM   11  C22 UNL     1      17.081  13.250  64.022  1.00  0.00     0.127 C 
ENDROOT
BRANCH   7  12
HETATM   12  C10 UNL     1      13.398  14.974  63.638  1.00  0.00     0.084 A 
HETATM   13  C11 UNL     1      12.058  14.970  63.376  1.00  0.00     0.069 A 
HETATM   14  C12 UNL     1      11.366  15.314  64.548  1.00  0.00     0.060 A 
HETATM   15  C18 UNL     1      12.360  15.509  65.465  1.00  0.00     0.172 A 
HETATM   16  O4  UNL     1      13.534  15.301  64.894  1.00  0.00    -0.320 OA
BRANCH  14  17
HETATM   17  N1  UNL     1       9.953  15.405  64.632  1.00  0.00    -0.321 N 
HETATM   18  C13 UNL     1       9.172  14.696  65.545  1.00  0.00     0.266 C 
HETATM   19  O3  UNL     1       9.733  13.918  66.359  1.00  0.00    -0.267 OA
ATOM     20  H1  UNL     1       9.476  16.031  63.982  1.00  0.00     0.169 HD
BRANCH  18  21
HETATM   21  C14 UNL     1       7.710  14.790  65.632  1.00  0.00     0.111 A 
HETATM   22  S2  UNL     1       6.723  14.044  66.854  1.00  0.00    -0.093 SA
HETATM   23  C15 UNL     1       5.192  14.568  66.332  1.00  0.00     0.054 A 
HETATM   24  C16 UNL     1       5.487  15.308  65.224  1.00  0.00     0.051 A 
HETATM   25  C17 UNL     1       6.778  15.418  64.870  1.00  0.00     0.139 A 
HETATM   26  F1  UNL     1       7.148  16.159  63.748  1.00  0.00    -0.204 F 
ENDBRANCH  18  21
ENDBRANCH  14  17
ENDBRANCH   7  12
BRANCH   1  27
HETATM   27  C3  UNL     1      14.946  17.510  62.081  1.00  0.00     0.295 C 
HETATM   28  O2  UNL     1      13.961  17.929  62.724  1.00  0.00    -0.259 OA
BRANCH  27  29
HETATM   29  O1  UNL     1      15.081  17.902  60.766  1.00  0.00    -0.318 OA
BRANCH  29  30
HETATM   30  C2  UNL     1      15.082  19.207  60.294  1.00  0.00     0.174 C 
HETATM   31  C1  UNL     1      16.243  19.565  59.430  1.00  0.00     0.034 C 
ENDBRANCH  29  30
ENDBRANCH  27  29
ENDBRANCH   1  27
TORSDOF 6
ENDMDL
MODEL 4
REMARK VINA RESULT: -7.377060395      2.205      4.368
REMARK  6 active torsions:
REMARK  status: ('A' for Active; 'I' for Inactive)
REMARK    1  A    between atoms: C2_2  and  O1_3 
REMARK    2  A    between atoms: O1_3  and  C3_4 
REMARK    3  A    between atoms: C3_4  and  C4_6 
REMARK    4  A    between atoms: C9_12  and  C10_13 
REMARK    5  A    between atoms: C12_15  and  N1_16 
REMARK       I    between atoms: N1_16  and  C13_18 
REMARK    6  A    between atoms: C13_18  and  C14_20 
ROOT
HETATM    1  C4  UNL     1      19.161  17.691  60.474  1.00  0.00     0.064 A 
HETATM    2  C5  UNL     1      19.976  18.785  60.588  1.00  0.00    -0.004 A 
HETATM    3  C6  UNL     1      19.605  20.249  60.433  1.00  0.00     0.057 C 
HETATM    4  S1  UNL     1      21.489  18.106  60.941  1.00  0.00    -0.097 SA
HETATM    5  C7  UNL     1      21.046  16.502  60.932  1.00  0.00     0.005 A 
HETATM    6  C8  UNL     1      19.697  16.449  60.652  1.00  0.00     0.004 A 
HETATM    7  C9  UNL     1      18.779  15.257  60.516  1.00  0.00    -0.011 C 
HETATM    8  C19 UNL     1      19.140  14.057  59.767  1.00  0.00     0.053 C 
HETATM    9  C20 UNL     1      20.387  13.246  60.223  1.00  0.00     0.085 C 
HETATM   10  C21 UNL     1      21.340  14.172  60.685  1.00  0.00    -0.178 C 
HETATM   11  C22 UNL     1      21.999  15.332  61.185  1.00  0.00     0.127 C 
ENDROOT
BRANCH   7  12
HETATM   12  C10 UNL     1      17.964  15.040  61.748  1.00  0.00     0.084 A 
HETATM   13  C11 UNL     1      16.674  15.461  61.901  1.00  0.00     0.069 A 
HETATM   14  C12 UNL     1      16.224  15.089  63.178  1.00  0.00     0.060 A 
HETATM   15  C18 UNL     1      17.300  14.450  63.727  1.00  0.00     0.172 A 
HETATM   16  O4  UNL     1      18.298  14.443  62.859  1.00  0.00    -0.320 OA
BRANCH  14  17
HETATM   17  N1  UNL     1      14.924  15.371  63.669  1.00  0.00    -0.321 N 
HETATM   18  C13 UNL     1      13.912  14.421  63.806  1.00  0.00     0.266 C 
HETATM   19  O3  UNL     1      14.142  13.227  63.479  1.00  0.00    -0.267 OA
ATOM     20  H1  UNL     1      14.715  16.332  63.940  1.00  0.00     0.169 HD
BRANCH  18  21
HETATM   21  C14 UNL     1      12.566  14.711  64.314  1.00  0.00     0.111 A 
HETATM   22  S2  UNL     1      11.919  14.159  65.830  1.00  0.00    -0.093 SA
HETATM   23  C15 UNL     1      10.371  14.858  65.743  1.00  0.00     0.054 A 
HETATM   24  C16 UNL     1      10.398  15.501  64.540  1.00  0.00     0.051 A 
HETATM   25  C17 UNL     1      11.524  15.423  63.812  1.00  0.00     0.139 A 
HETATM   26  F1  UNL     1      11.616  16.057  62.573  1.00  0.00    -0.204 F 
ENDBRANCH  18  21
ENDBRANCH  14  17
ENDBRANCH   7  12
BRANCH   1  27
HETATM   27  C3  UNL     1      17.710  17.981  60.154  1.00  0.00     0.295 C 
HETATM   28  O2  UNL     1      17.231  17.717  59.031  1.00  0.00    -0.259 OA
BRANCH  27  29
HETATM   29  O1  UNL     1      16.882  18.546  61.100  1.00  0.00    -0.318 OA
BRANCH  29  30
HETATM   30  C2  UNL     1      15.555  18.910  60.919  1.00  0.00     0.174 C 
HETATM   31  C1  UNL     1      14.639  18.530  62.032  1.00  0.00     0.034 C 
ENDBRANCH  29  30
ENDBRANCH  27  29
ENDBRANCH   1  27
TORSDOF 6
ENDMDL
MODEL 5
REMARK VINA RESULT: -7.357578220      1.691      2.003
REMARK  6 active torsions:
REMARK  status: ('A' for Active; 'I' for Inactive)
REMARK    1  A    between atoms: C2_2  and  O1_3 
REMARK    2  A    between atoms: O1_3  and  C3_4 
REMARK    3  A    between atoms: C3_4  and  C4_6 
REMARK    4  A    between atoms: C9_12  and  C10_13 
REMARK    5  A    between atoms: C12_15  and  N1_16 
REMARK       I    between atoms: N1_16  and  C13_18 
REMARK    6  A    between atoms: C13_18  and  C14_20 
ROOT
HETATM    1  C4  UNL     1      18.054  16.336  62.009  1.00  0.00     0.064 A 
HETATM    2  C5  UNL     1      19.130  15.915  61.276  1.00  0.00    -0.004 A 
HETATM    3  C6  UNL     1      20.331  15.116  61.749  1.00  0.00     0.057 C 
HETATM    4  S1  UNL     1      18.792  16.501  59.720  1.00  0.00    -0.097 SA
HETATM    5  C7  UNL     1      17.337  17.240  60.047  1.00  0.00     0.005 A 
HETATM    6  C8  UNL     1      17.071  17.050  61.387  1.00  0.00     0.004 A 
HETATM    7  C9  UNL     1      15.896  17.508  62.218  1.00  0.00    -0.011 C 
HETATM    8  C19 UNL     1      15.347  18.858  62.142  1.00  0.00     0.053 C 
HETATM    9  C20 UNL     1      14.779  19.352  60.779  1.00  0.00     0.085 C 
HETATM   10  C21 UNL     1      15.585  18.798  59.768  1.00  0.00    -0.178 C 
HETATM   11  C22 UNL     1      16.490  17.991  59.019  1.00  0.00     0.127 C 
ENDROOT
BRANCH   7  12
HETATM   12  C10 UNL     1      14.908  16.411  62.437  1.00  0.00     0.084 A 
HETATM   13  C11 UNL     1      13.652  16.595  62.939  1.00  0.00     0.069 A 
HETATM   14  C12 UNL     1      13.004  15.352  63.009  1.00  0.00     0.060 A 
HETATM   15  C18 UNL     1      13.936  14.474  62.532  1.00  0.00     0.172 A 
HETATM   16  O4  UNL     1      15.036  15.132  62.208  1.00  0.00    -0.320 OA
BRANCH  14  17
HETATM   17  N1  UNL     1      11.680  15.178  63.487  1.00  0.00    -0.321 N 
HETATM   18  C13 UNL     1      11.336  15.088  64.836  1.00  0.00     0.266 C 
HETATM   19  O3  UNL     1      12.241  15.162  65.707  1.00  0.00    -0.267 OA
ATOM     20  H1  UNL     1      10.929  15.116  62.798  1.00  0.00     0.169 HD
BRANCH  18  21
HETATM   21  C14 UNL     1       9.966  14.908  65.331  1.00  0.00     0.111 A 
HETATM   22  S2  UNL     1       8.561  15.742  64.737  1.00  0.00    -0.093 SA
HETATM   23  C15 UNL     1       7.380  15.050  65.746  1.00  0.00     0.054 A 
HETATM   24  C16 UNL     1       8.107  14.190  66.516  1.00  0.00     0.051 A 
HETATM   25  C17 UNL     1       9.431  14.121  66.300  1.00  0.00     0.139 A 
HETATM   26  F1  UNL     1      10.232  13.263  67.054  1.00  0.00    -0.204 F 
ENDBRANCH  18  21
ENDBRANCH  14  17
ENDBRANCH   7  12
BRANCH   1  27
HETATM   27  C3  UNL     1      18.066  15.957  63.474  1.00  0.00     0.295 C 
HETATM   28  O2  UNL     1      18.416  16.775  64.351  1.00  0.00    -0.259 OA
BRANCH  27  29
HETATM   29  O1  UNL     1      17.690  14.693  63.875  1.00  0.00    -0.318 OA
BRANCH  29  30
HETATM   30  C2  UNL     1      18.013  13.500  63.244  1.00  0.00     0.174 C 
HETATM   31  C1  UNL     1      17.021  12.402  63.425  1.00  0.00     0.034 C 
ENDBRANCH  29  30
ENDBRANCH  27  29
ENDBRANCH   1  27
TORSDOF 6
ENDMDL
