MODEL 1
REMARK VINA RESULT: -6.489267773      0.000      0.000
REMARK  7 active torsions:
REMARK  status: ('A' for Active; 'I' for Inactive)
REMARK    1  A    between atoms: C2_2  and  C3_3 
REMARK    2  A    between atoms: C4_4  and  C5_5 
REMARK    3  A    between atoms: C5_5  and  O1_6 
REMARK    4  A    between atoms: C16_22  and  C17_23 
REMARK    5  A    between atoms: C17_23  and  C18_24 
REMARK    6  A    between atoms: C18_24  and  C19_25 
REMARK    7  A    between atoms: C19_25  and  O6_26 
ROOT
HETATM    1  C5  UNL     1      30.237  13.493  29.120  1.00  0.00     0.235 C 
HETATM    2  O2  UNL     1      30.276  14.327  28.049  1.00  0.00    -0.336 OA
HETATM    3  C6  UNL     1      28.960  14.678  27.769  1.00  0.00     0.159 C 
HETATM    4  C7  UNL     1      28.860  15.849  26.857  1.00  0.00     0.201 C 
HETATM    5  O3  UNL     1      28.271  16.896  27.571  1.00  0.00    -0.377 OA
HETATM    6  C8  UNL     1      27.017  16.534  28.039  1.00  0.00     0.189 A 
HETATM    7  C9  UNL     1      27.087  15.424  29.105  1.00  0.00     0.031 A 
HETATM    8  C10 UNL     1      26.523  16.039  30.366  1.00  0.00     0.013 A 
HETATM    9  C11 UNL     1      26.071  17.425  30.071  1.00  0.00     0.072 A 
HETATM   10  C12 UNL     1      26.371  17.720  28.645  1.00  0.00     0.195 A 
HETATM   11  O4  UNL     1      25.340  18.304  27.913  1.00  0.00    -0.328 OA
HETATM   12  C13 UNL     1      26.225  19.302  27.516  1.00  0.00     0.345 C 
HETATM   13  O5  UNL     1      27.072  18.934  28.535  1.00  0.00    -0.328 OA
HETATM   14  C14 UNL     1      28.476  14.984  29.202  1.00  0.00     0.000 C 
HETATM   15  C15 UNL     1      29.302  16.156  29.754  1.00  0.00     0.019 C 
HETATM   16  C16 UNL     1      28.914  13.785  29.897  1.00  0.00     0.073 C 
ENDROOT
BRANCH   1  17
HETATM   17  C4  UNL     1      31.311  13.731  30.085  1.00  0.00    -0.038 C 
HETATM   18  C3  UNL     1      32.222  13.917  30.882  1.00  0.00    -0.102 C 
BRANCH  18  19
HETATM   19  C2  UNL     1      33.320  14.113  31.831  1.00  0.00     0.089 C 
HETATM   20  C1  UNL     1      34.124  12.820  31.986  1.00  0.00     0.018 C 
ENDBRANCH  18  19
ENDBRANCH   1  17
BRANCH   1  21
HETATM   21  O1  UNL     1      30.266  12.177  28.669  1.00  0.00    -0.355 OA
ATOM     22  H1  UNL     1      29.406  11.781  28.737  1.00  0.00     0.214 HD
ENDBRANCH   1  21
BRANCH  16  23
HETATM   23  C17 UNL     1      28.208  12.507  29.906  1.00  0.00     0.014 C 
BRANCH  23  24
HETATM   24  C18 UNL     1      27.522  12.045  31.153  1.00  0.00     0.027 C 
BRANCH  24  25
HETATM   25  C19 UNL     1      26.004  11.977  30.941  1.00  0.00     0.164 C 
BRANCH  25  26
HETATM   26  O6  UNL     1      25.653  10.637  30.834  1.00  0.00    -0.401 OA
ATOM     27  H6  UNL     1      26.040  10.300  30.034  1.00  0.00     0.209 HD
ENDBRANCH  25  26
ENDBRANCH  24  25
ENDBRANCH  23  24
ENDBRANCH  16  23
TORSDOF 7
ENDMDL
MODEL 2
REMARK VINA RESULT: -6.439119550      2.172      4.258
REMARK  7 active torsions:
REMARK  status: ('A' for Active; 'I' for Inactive)
REMARK    1  A    between atoms: C2_2  and  C3_3 
REMARK    2  A    between atoms: C4_4  and  C5_5 
REMARK    3  A    between atoms: C5_5  and  O1_6 
REMARK    4  A    between atoms: C16_22  and  C17_23 
REMARK    5  A    between atoms: C17_23  and  C18_24 
REMARK    6  A    between atoms: C18_24  and  C19_25 
REMARK    7  A    between atoms: C19_25  and  O6_26 
ROOT
HETATM    1  C5  UNL     1      28.260  14.101  30.694  1.00  0.00     0.235 C 
HETATM    2  O2  UNL     1      27.827  15.234  31.304  1.00  0.00    -0.336 OA
HETATM    3  C6  UNL     1      28.199  16.294  30.484  1.00  0.00     0.159 C 
HETATM    4  C7  UNL     1      27.498  17.560  30.832  1.00  0.00     0.201 C 
HETATM    5  O3  UNL     1      26.678  17.903  29.753  1.00  0.00    -0.377 OA
HETATM    6  C8  UNL     1      27.423  18.059  28.594  1.00  0.00     0.189 A 
HETATM    7  C9  UNL     1      28.042  16.733  28.111  1.00  0.00     0.031 A 
HETATM    8  C10 UNL     1      27.428  16.470  26.755  1.00  0.00     0.013 A 
HETATM    9  C11 UNL     1      26.534  17.605  26.398  1.00  0.00     0.072 A 
HETATM   10  C12 UNL     1      26.539  18.575  27.524  1.00  0.00     0.195 A 
HETATM   11  O4  UNL     1      26.709  19.914  27.175  1.00  0.00    -0.328 OA
HETATM   12  C13 UNL     1      25.571  20.221  27.915  1.00  0.00     0.345 C 
HETATM   13  O5  UNL     1      25.222  18.891  27.903  1.00  0.00    -0.328 OA
HETATM   14  C14 UNL     1      27.763  15.717  29.122  1.00  0.00     0.000 C 
HETATM   15  C15 UNL     1      26.244  15.489  29.152  1.00  0.00     0.019 C 
HETATM   16  C16 UNL     1      28.395  14.407  29.169  1.00  0.00     0.073 C 
ENDROOT
BRANCH   1  17
HETATM   17  C4  UNL     1      27.309  12.992  30.781  1.00  0.00    -0.038 C 
HETATM   18  C3  UNL     1      26.499  12.075  30.842  1.00  0.00    -0.102 C 
BRANCH  18  19
HETATM   19  C2  UNL     1      25.511  10.995  30.912  1.00  0.00     0.089 C 
HETATM   20  C1  UNL     1      24.130  11.516  30.511  1.00  0.00     0.018 C 
ENDBRANCH  18  19
ENDBRANCH   1  17
BRANCH   1  21
HETATM   21  O1  UNL     1      29.489  13.736  31.237  1.00  0.00    -0.355 OA
ATOM     22  H1  UNL     1      29.635  12.803  31.136  1.00  0.00     0.214 HD
ENDBRANCH   1  21
BRANCH  16  23
HETATM   23  C17 UNL     1      29.796  14.133  28.865  1.00  0.00     0.014 C 
BRANCH  23  24
HETATM   24  C18 UNL     1      30.156  12.952  28.020  1.00  0.00     0.027 C 
BRANCH  24  25
HETATM   25  C19 UNL     1      31.448  12.299  28.526  1.00  0.00     0.164 C 
BRANCH  25  26
HETATM   26  O6  UNL     1      31.209  11.836  29.815  1.00  0.00    -0.401 OA
ATOM     27  H6  UNL     1      31.991  11.382  30.108  1.00  0.00     0.209 HD
ENDBRANCH  25  26
ENDBRANCH  24  25
ENDBRANCH  23  24
ENDBRANCH  16  23
TORSDOF 7
ENDMDL
MODEL 3
REMARK VINA RESULT: -6.297995069      2.492      4.431
REMARK  7 active torsions:
REMARK  status: ('A' for Active; 'I' for Inactive)
REMARK    1  A    between atoms: C2_2  and  C3_3 
REMARK    2  A    between atoms: C4_4  and  C5_5 
REMARK    3  A    between atoms: C5_5  and  O1_6 
REMARK    4  A    between atoms: C16_22  and  C17_23 
REMARK    5  A    between atoms: C17_23  and  C18_24 
REMARK    6  A    between atoms: C18_24  and  C19_25 
REMARK    7  A    between atoms: C19_25  and  O6_26 
ROOT
HETATM    1  C5  UNL     1      30.042  17.237  27.719  1.00  0.00     0.235 C 
HETATM    2  O2  UNL     1      28.769  17.673  27.538  1.00  0.00    -0.336 OA
HETATM    3  C6  UNL     1      27.949  16.554  27.631  1.00  0.00     0.159 C 
HETATM    4  C7  UNL     1      26.514  16.909  27.804  1.00  0.00     0.201 C 
HETATM    5  O3  UNL     1      26.114  16.464  29.068  1.00  0.00    -0.377 OA
HETATM    6  C8  UNL     1      26.298  15.095  29.192  1.00  0.00     0.189 A 
HETATM    7  C9  UNL     1      27.787  14.699  29.173  1.00  0.00     0.031 A 
HETATM    8  C10 UNL     1      28.055  14.073  30.523  1.00  0.00     0.013 A 
HETATM    9  C11 UNL     1      26.786  14.028  31.299  1.00  0.00     0.072 A 
HETATM   10  C12 UNL     1      25.715  14.650  30.479  1.00  0.00     0.195 A 
HETATM   11  O4  UNL     1      24.517  13.942  30.401  1.00  0.00    -0.328 OA
HETATM   12  C13 UNL     1      23.843  15.098  30.786  1.00  0.00     0.345 C 
HETATM   13  O5  UNL     1      25.033  15.628  31.224  1.00  0.00    -0.328 OA
HETATM   14  C14 UNL     1      28.565  15.899  28.885  1.00  0.00     0.000 C 
HETATM   15  C15 UNL     1      28.397  16.863  30.070  1.00  0.00     0.019 C 
HETATM   16  C16 UNL     1      29.974  15.901  28.525  1.00  0.00     0.073 C 
ENDROOT
BRANCH   1  17
HETATM   17  C4  UNL     1      30.857  18.138  28.536  1.00  0.00    -0.038 C 
HETATM   18  C3  UNL     1      31.544  18.903  29.201  1.00  0.00    -0.102 C 
BRANCH  18  19
HETATM   19  C2  UNL     1      32.383  19.820  29.976  1.00  0.00     0.089 C 
HETATM   20  C1  UNL     1      31.743  21.210  30.023  1.00  0.00     0.018 C 
ENDBRANCH  18  19
ENDBRANCH   1  17
BRANCH   1  21
HETATM   21  O1  UNL     1      30.632  17.035  26.475  1.00  0.00    -0.355 OA
ATOM     22  H1  UNL     1      30.372  16.196  26.114  1.00  0.00     0.214 HD
ENDBRANCH   1  21
BRANCH  16  23
HETATM   23  C17 UNL     1      30.627  14.922  27.663  1.00  0.00     0.014 C 
BRANCH  23  24
HETATM   24  C18 UNL     1      31.700  14.039  28.219  1.00  0.00     0.027 C 
BRANCH  24  25
HETATM   25  C19 UNL     1      31.088  12.817  28.914  1.00  0.00     0.164 C 
BRANCH  25  26
HETATM   26  O6  UNL     1      31.087  11.769  28.002  1.00  0.00    -0.401 OA
ATOM     27  H6  UNL     1      31.454  12.095  27.187  1.00  0.00     0.209 HD
ENDBRANCH  25  26
ENDBRANCH  24  25
ENDBRANCH  23  24
ENDBRANCH  16  23
TORSDOF 7
ENDMDL
MODEL 4
REMARK VINA RESULT: -5.967664398      2.626      6.247
REMARK  7 active torsions:
REMARK  status: ('A' for Active; 'I' for Inactive)
REMARK    1  A    between atoms: C2_2  and  C3_3 
REMARK    2  A    between atoms: C4_4  and  C5_5 
REMARK    3  A    between atoms: C5_5  and  O1_6 
REMARK    4  A    between atoms: C16_22  and  C17_23 
REMARK    5  A    between atoms: C17_23  and  C18_24 
REMARK    6  A    between atoms: C18_24  and  C19_25 
REMARK    7  A    between atoms: C19_25  and  O6_26 
ROOT
HETATM    1  C5  UNL     1      26.832  17.951  29.583  1.00  0.00     0.235 C 
HETATM    2  O2  UNL     1      28.048  18.525  29.384  1.00  0.00    -0.336 OA
HETATM    3  C6  UNL     1      28.998  17.547  29.657  1.00  0.00     0.159 C 
HETATM    4  C7  UNL     1      30.351  17.907  29.152  1.00  0.00     0.201 C 
HETATM    5  O3  UNL     1      30.690  16.992  28.151  1.00  0.00    -0.377 OA
HETATM    6  C8  UNL     1      30.680  15.695  28.642  1.00  0.00     0.189 A 
HETATM    7  C9  UNL     1      29.265  15.226  29.034  1.00  0.00     0.031 A 
HETATM    8  C10 UNL     1      28.961  14.057  28.126  1.00  0.00     0.013 A 
HETATM    9  C11 UNL     1      30.149  13.782  27.272  1.00  0.00     0.072 A 
HETATM   10  C12 UNL     1      31.198  14.784  27.596  1.00  0.00     0.195 A 
HETATM   11  O4  UNL     1      32.481  14.280  27.796  1.00  0.00    -0.328 OA
HETATM   12  C13 UNL     1      32.958  15.205  26.870  1.00  0.00     0.345 C 
HETATM   13  O5  UNL     1      31.672  15.393  26.420  1.00  0.00    -0.328 OA
HETATM   14  C14 UNL     1      28.363  16.365  28.895  1.00  0.00     0.000 C 
HETATM   15  C15 UNL     1      28.292  16.729  27.404  1.00  0.00     0.019 C 
HETATM   16  C16 UNL     1      27.005  16.409  29.413  1.00  0.00     0.073 C 
ENDROOT
BRANCH   1  17
HETATM   17  C4  UNL     1      25.834  18.338  28.585  1.00  0.00    -0.038 C 
HETATM   18  C3  UNL     1      24.998  18.682  27.759  1.00  0.00    -0.102 C 
BRANCH  18  19
HETATM   19  C2  UNL     1      23.986  19.110  26.789  1.00  0.00     0.089 C 
HETATM   20  C1  UNL     1      23.221  20.322  27.323  1.00  0.00     0.018 C 
ENDBRANCH  18  19
ENDBRANCH   1  17
BRANCH   1  21
HETATM   21  O1  UNL     1      26.390  18.263  30.865  1.00  0.00    -0.355 OA
ATOM     22  H1  UNL     1      25.769  17.613  31.171  1.00  0.00     0.214 HD
ENDBRANCH   1  21
BRANCH  16  23
HETATM   23  C17 UNL     1      26.570  15.851  30.691  1.00  0.00     0.014 C 
BRANCH  23  24
HETATM   24  C18 UNL     1      25.794  14.572  30.718  1.00  0.00     0.027 C 
BRANCH  24  25
HETATM   25  C19 UNL     1      24.335  14.833  31.113  1.00  0.00     0.164 C 
BRANCH  25  26
HETATM   26  O6  UNL     1      24.019  16.130  30.727  1.00  0.00    -0.401 OA
ATOM     27  H6  UNL     1      23.220  16.379  31.178  1.00  0.00     0.209 HD
ENDBRANCH  25  26
ENDBRANCH  24  25
ENDBRANCH  23  24
ENDBRANCH  16  23
TORSDOF 7
ENDMDL
MODEL 5
REMARK VINA RESULT: -5.807245519      2.188      2.580
REMARK  7 active torsions:
REMARK  status: ('A' for Active; 'I' for Inactive)
REMARK    1  A    between atoms: C2_2  and  C3_3 
REMARK    2  A    between atoms: C4_4  and  C5_5 
REMARK    3  A    between atoms: C5_5  and  O1_6 
REMARK    4  A    between atoms: C16_22  and  C17_23 
REMARK    5  A    between atoms: C17_23  and  C18_24 
REMARK    6  A    between atoms: C18_24  and  C19_25 
REMARK    7  A    between atoms: C19_25  and  O6_26 
ROOT
HETATM    1  C5  UNL     1      29.862  13.231  28.708  1.00  0.00     0.235 C 
HETATM    2  O2  UNL     1      30.400  13.798  27.597  1.00  0.00    -0.336 OA
HETATM    3  C6  UNL     1      29.678  14.961  27.354  1.00  0.00     0.159 C 
HETATM    4  C7  UNL     1      30.359  15.867  26.390  1.00  0.00     0.201 C 
HETATM    5  O3  UNL     1      30.704  17.036  27.075  1.00  0.00    -0.377 OA
HETATM    6  C8  UNL     1      29.581  17.647  27.611  1.00  0.00     0.189 A 
HETATM    7  C9  UNL     1      28.931  16.806  28.727  1.00  0.00     0.031 A 
HETATM    8  C10 UNL     1      29.030  17.649  29.977  1.00  0.00     0.013 A 
HETATM    9  C11 UNL     1      29.645  18.960  29.633  1.00  0.00     0.072 A 
HETATM   10  C12 UNL     1      29.975  18.954  28.184  1.00  0.00     0.195 A 
HETATM   11  O4  UNL     1      29.590  20.084  27.466  1.00  0.00    -0.328 OA
HETATM   12  C13 UNL     1      30.893  20.187  26.985  1.00  0.00     0.345 C 
HETATM   13  O5  UNL     1      31.312  19.342  27.986  1.00  0.00    -0.328 OA
HETATM   14  C14 UNL     1      29.632  15.527  28.788  1.00  0.00     0.000 C 
HETATM   15  C15 UNL     1      31.072  15.803  29.249  1.00  0.00     0.019 C 
HETATM   16  C16 UNL     1      29.162  14.364  29.523  1.00  0.00     0.073 C 
ENDROOT
BRANCH   1  17
HETATM   17  C4  UNL     1      30.861  12.665  29.616  1.00  0.00    -0.038 C 
HETATM   18  C3  UNL     1      31.695  12.172  30.365  1.00  0.00    -0.102 C 
BRANCH  18  19
HETATM   19  C2  UNL     1      32.681  11.559  31.259  1.00  0.00     0.089 C 
HETATM   20  C1  UNL     1      32.203  10.176  31.704  1.00  0.00     0.018 C 
ENDBRANCH  18  19
ENDBRANCH   1  17
BRANCH   1  21
HETATM   21  O1  UNL     1      28.944  12.259  28.321  1.00  0.00    -0.355 OA
ATOM     22  H1  UNL     1      29.359  11.611  27.765  1.00  0.00     0.214 HD
ENDBRANCH   1  21
BRANCH  16  23
HETATM   23  C17 UNL     1      27.770  13.934  29.623  1.00  0.00     0.014 C 
BRANCH  23  24
HETATM   24  C18 UNL     1      27.148  13.734  30.969  1.00  0.00     0.027 C 
BRANCH  24  25
HETATM   25  C19 UNL     1      26.544  12.329  31.083  1.00  0.00     0.164 C 
BRANCH  25  26
HETATM   26  O6  UNL     1      27.531  11.416  30.731  1.00  0.00    -0.401 OA
ATOM     27  H6  UNL     1      27.109  10.576  30.585  1.00  0.00     0.209 HD
ENDBRANCH  25  26
ENDBRANCH  24  25
ENDBRANCH  23  24
ENDBRANCH  16  23
TORSDOF 7
ENDMDL
