MODEL 1
REMARK VINA RESULT: -9.956172202      0.000      0.000
REMARK  8 active torsions:
REMARK  status: ('A' for Active; 'I' for Inactive)
REMARK    1  A    between atoms: C4_4  and  O1_5 
REMARK    2  A    between atoms: C5_7  and  C6_8 
REMARK    3  A    between atoms: C6_8  and  C7_9 
REMARK    4  A    between atoms: C7_9  and  C8_10 
REMARK    5  A    between atoms: C22_28  and  O3_29 
REMARK    6  A    between atoms: O3_29  and  C23_30 
REMARK    7  A    between atoms: C24_31  and  C25_32 
REMARK    8  A    between atoms: C25_32  and  N2_33 
ROOT
HETATM    1  C1  UNL     1      18.678   0.368  56.158  1.00  0.00     0.044 C 
HETATM    2  C2  UNL     1      17.902  -0.751  55.579  1.00  0.00    -0.078 C 
HETATM    3  C3  UNL     1      17.634  -1.804  56.345  1.00  0.00    -0.034 C 
HETATM    4  C4  UNL     1      18.126  -1.812  57.750  1.00  0.00     0.178 C 
HETATM    5  C5  UNL     1      18.550  -3.094  58.289  1.00  0.00    -0.039 C 
HETATM    6  C13 UNL     1      17.917  -4.348  57.666  1.00  0.00    -0.011 C 
HETATM    7  C14 UNL     1      16.807  -4.918  58.501  1.00  0.00     0.021 C 
HETATM    8  C15 UNL     1      19.021  -5.425  57.773  1.00  0.00     0.017 C 
HETATM    9  C16 UNL     1      18.978  -6.365  56.570  1.00  0.00     0.035 C 
HETATM   10  C17 UNL     1      19.617  -5.584  55.464  1.00  0.00     0.151 A 
HETATM   11  O2  UNL     1      18.948  -5.138  54.380  1.00  0.00    -0.375 OA
HETATM   12  C18 UNL     1      18.897  -4.247  55.410  1.00  0.00     0.157 A 
HETATM   13  C19 UNL     1      17.637  -4.200  56.219  1.00  0.00     0.044 C 
HETATM   14  C20 UNL     1      16.838  -2.959  55.844  1.00  0.00     0.016 C 
HETATM   15  C21 UNL     1      15.470  -2.976  56.505  1.00  0.00     0.023 C 
HETATM   16  C22 UNL     1      16.634  -2.968  54.362  1.00  0.00     0.141 C 
HETATM   17  C31 UNL     1      17.596  -2.057  53.600  1.00  0.00     0.038 C 
HETATM   18  C32 UNL     1      17.451  -0.665  54.174  1.00  0.00     0.036 C 
ENDROOT
BRANCH  16  19
HETATM   19  O3  UNL     1      15.399  -2.693  53.835  1.00  0.00    -0.357 OA
BRANCH  19  20
HETATM   20  C23 UNL     1      14.645  -3.003  52.785  1.00  0.00     0.133 C 
HETATM   21  C24 UNL     1      13.827  -4.072  52.859  1.00  0.00     0.027 C 
BRANCH  21  22
HETATM   22  C25 UNL     1      13.812  -4.842  54.107  1.00  0.00     0.301 C 
BRANCH  22  23
HETATM   23  N2  UNL     1      14.443  -6.126  54.002  1.00  0.00     0.095 N 
HETATM   24  C26 UNL     1      14.918  -6.490  55.334  1.00  0.00     0.303 C 
HETATM   25  C27 UNL     1      15.441  -7.891  55.239  1.00  0.00     0.302 C 
HETATM   26  N3  UNL     1      16.448  -8.095  54.257  1.00  0.00     0.087 N 
HETATM   27  C28 UNL     1      16.421  -9.523  53.898  1.00  0.00     0.310 C 
HETATM   28  C29 UNL     1      16.342  -7.355  53.052  1.00  0.00     0.302 C 
HETATM   29  C30 UNL     1      15.591  -6.054  53.152  1.00  0.00     0.303 C 
ENDBRANCH  22  23
ENDBRANCH  21  22
ENDBRANCH  19  20
ENDBRANCH  16  19
BRANCH   4  30
HETATM   30  O1  UNL     1      17.190  -1.094  58.472  1.00  0.00    -0.387 OA
ATOM     31  H1  UNL     1      17.557  -1.006  59.345  1.00  0.00     0.210 HD
ENDBRANCH   4  30
BRANCH   5  32
HETATM   32  C6  UNL     1      18.654  -3.291  59.736  1.00  0.00     0.007 C 
BRANCH  32  33
HETATM   33  C7  UNL     1      19.815  -2.916  60.550  1.00  0.00     0.013 C 
BRANCH  33  34
HETATM   34  C8  UNL     1      20.278  -3.710  61.678  1.00  0.00    -0.018 A 
HETATM   35  C9  UNL     1      20.952  -4.901  61.553  1.00  0.00     0.099 A 
HETATM   36  N1  UNL     1      21.357  -5.633  62.582  1.00  0.00    -0.372 N 
HETATM   37  C10 UNL     1      21.135  -5.257  63.858  1.00  0.00     0.130 A 
ATOM     38  H1  UNL     1      21.852  -6.507  62.403  1.00  0.00     0.164 HD
HETATM   39  C11 UNL     1      20.464  -4.073  64.038  1.00  0.00     0.132 A 
HETATM   40  F1  UNL     1      20.214  -3.646  65.319  1.00  0.00    -0.205 F 
HETATM   41  C12 UNL     1      20.035  -3.300  62.999  1.00  0.00     0.056 A 
ENDBRANCH  33  34
ENDBRANCH  32  33
ENDBRANCH   5  32
TORSDOF 8
ENDMDL
MODEL 2
REMARK VINA RESULT: -9.922160450      4.247      6.004
REMARK  8 active torsions:
REMARK  status: ('A' for Active; 'I' for Inactive)
REMARK    1  A    between atoms: C4_4  and  O1_5 
REMARK    2  A    between atoms: C5_7  and  C6_8 
REMARK    3  A    between atoms: C6_8  and  C7_9 
REMARK    4  A    between atoms: C7_9  and  C8_10 
REMARK    5  A    between atoms: C22_28  and  O3_29 
REMARK    6  A    between atoms: O3_29  and  C23_30 
REMARK    7  A    between atoms: C24_31  and  C25_32 
REMARK    8  A    between atoms: C25_32  and  N2_33 
ROOT
HETATM    1  C1  UNL     1      15.087  -0.827  51.793  1.00  0.00     0.044 C 
HETATM    2  C2  UNL     1      15.034  -2.058  52.612  1.00  0.00    -0.078 C 
HETATM    3  C3  UNL     1      15.810  -2.140  53.689  1.00  0.00    -0.034 C 
HETATM    4  C4  UNL     1      16.697  -0.992  54.023  1.00  0.00     0.178 C 
HETATM    5  C5  UNL     1      17.995  -1.312  54.595  1.00  0.00    -0.039 C 
HETATM    6  C13 UNL     1      18.105  -2.643  55.355  1.00  0.00    -0.011 C 
HETATM    7  C14 UNL     1      18.036  -2.473  56.845  1.00  0.00     0.021 C 
HETATM    8  C15 UNL     1      19.566  -3.093  55.124  1.00  0.00     0.017 C 
HETATM    9  C16 UNL     1      19.653  -4.614  55.018  1.00  0.00     0.035 C 
HETATM   10  C17 UNL     1      19.166  -4.921  53.636  1.00  0.00     0.151 A 
HETATM   11  O2  UNL     1      18.011  -5.570  53.378  1.00  0.00    -0.375 OA
HETATM   12  C18 UNL     1      17.823  -4.225  53.490  1.00  0.00     0.157 A 
HETATM   13  C19 UNL     1      17.258  -3.713  54.779  1.00  0.00     0.044 C 
HETATM   14  C20 UNL     1      15.796  -3.335  54.579  1.00  0.00     0.016 C 
HETATM   15  C21 UNL     1      15.140  -2.990  55.905  1.00  0.00     0.023 C 
HETATM   16  C22 UNL     1      15.084  -4.519  54.007  1.00  0.00     0.141 C 
HETATM   17  C31 UNL     1      14.868  -4.440  52.496  1.00  0.00     0.038 C 
HETATM   18  C32 UNL     1      14.126  -3.153  52.211  1.00  0.00     0.036 C 
ENDROOT
BRANCH  16  19
HETATM   19  O3  UNL     1      13.871  -4.906  54.515  1.00  0.00    -0.357 OA
BRANCH  19  20
HETATM   20  C23 UNL     1      13.358  -5.538  55.565  1.00  0.00     0.133 C 
HETATM   21  C24 UNL     1      14.037  -6.572  56.102  1.00  0.00     0.027 C 
BRANCH  21  22
HETATM   22  C25 UNL     1      15.318  -6.946  55.492  1.00  0.00     0.301 C 
BRANCH  22  23
HETATM   23  N2  UNL     1      15.314  -8.250  54.894  1.00  0.00     0.095 N 
HETATM   24  C26 UNL     1      14.979  -9.210  55.942  1.00  0.00     0.303 C 
HETATM   25  C27 UNL     1      14.833 -10.544  55.275  1.00  0.00     0.302 C 
HETATM   26  N3  UNL     1      15.962 -10.971  54.525  1.00  0.00     0.087 N 
HETATM   27  C28 UNL     1      15.476 -11.930  53.518  1.00  0.00     0.310 C 
HETATM   28  C29 UNL     1      16.701  -9.975  53.837  1.00  0.00     0.302 C 
HETATM   29  C30 UNL     1      16.619  -8.588  54.416  1.00  0.00     0.303 C 
ENDBRANCH  22  23
ENDBRANCH  21  22
ENDBRANCH  19  20
ENDBRANCH  16  19
BRANCH   4  30
HETATM   30  O1  UNL     1      15.898  -0.097  54.711  1.00  0.00    -0.387 OA
ATOM     31  H1  UNL     1      16.208  -0.120  55.609  1.00  0.00     0.210 HD
ENDBRANCH   4  30
BRANCH   5  32
HETATM   32  C6  UNL     1      18.754  -0.292  55.322  1.00  0.00     0.007 C 
BRANCH  32  33
HETATM   33  C7  UNL     1      19.313   0.922  54.721  1.00  0.00     0.013 C 
BRANCH  33  34
HETATM   34  C8  UNL     1      20.479   0.909  53.852  1.00  0.00    -0.018 A 
HETATM   35  C9  UNL     1      21.470  -0.041  53.913  1.00  0.00     0.099 A 
HETATM   36  N1  UNL     1      22.543  -0.042  53.133  1.00  0.00    -0.372 N 
HETATM   37  C10 UNL     1      22.749   0.909  52.200  1.00  0.00     0.130 A 
ATOM     38  H1  UNL     1      23.233  -0.785  53.242  1.00  0.00     0.164 HD
HETATM   39  C11 UNL     1      21.788   1.884  52.098  1.00  0.00     0.132 A 
HETATM   40  F1  UNL     1      21.951   2.875  51.162  1.00  0.00    -0.205 F 
HETATM   41  C12 UNL     1      20.675   1.910  52.887  1.00  0.00     0.056 A 
ENDBRANCH  33  34
ENDBRANCH  32  33
ENDBRANCH   5  32
TORSDOF 8
ENDMDL
MODEL 3
REMARK VINA RESULT: -9.778866632      4.346      6.277
REMARK  8 active torsions:
REMARK  status: ('A' for Active; 'I' for Inactive)
REMARK    1  A    between atoms: C4_4  and  O1_5 
REMARK    2  A    between atoms: C5_7  and  C6_8 
REMARK    3  A    between atoms: C6_8  and  C7_9 
REMARK    4  A    between atoms: C7_9  and  C8_10 
REMARK    5  A    between atoms: C22_28  and  O3_29 
REMARK    6  A    between atoms: O3_29  and  C23_30 
REMARK    7  A    between atoms: C24_31  and  C25_32 
REMARK    8  A    between atoms: C25_32  and  N2_33 
ROOT
HETATM    1  C1  UNL     1      15.161  -0.655  51.764  1.00  0.00     0.044 C 
HETATM    2  C2  UNL     1      15.106  -1.838  52.651  1.00  0.00    -0.078 C 
HETATM    3  C3  UNL     1      15.934  -1.894  53.690  1.00  0.00    -0.034 C 
HETATM    4  C4  UNL     1      16.879  -0.766  53.914  1.00  0.00     0.178 C 
HETATM    5  C5  UNL     1      18.193  -1.106  54.437  1.00  0.00    -0.039 C 
HETATM    6  C13 UNL     1      18.294  -2.399  55.262  1.00  0.00    -0.011 C 
HETATM    7  C14 UNL     1      18.310  -2.148  56.742  1.00  0.00     0.021 C 
HETATM    8  C15 UNL     1      19.723  -2.918  54.981  1.00  0.00     0.017 C 
HETATM    9  C16 UNL     1      19.748  -4.444  54.955  1.00  0.00     0.035 C 
HETATM   10  C17 UNL     1      19.177  -4.804  53.619  1.00  0.00     0.151 A 
HETATM   11  O2  UNL     1      17.987  -5.420  53.455  1.00  0.00    -0.375 OA
HETATM   12  C18 UNL     1      17.855  -4.064  53.503  1.00  0.00     0.157 A 
HETATM   13  C19 UNL     1      17.378  -3.463  54.789  1.00  0.00     0.044 C 
HETATM   14  C20 UNL     1      15.923  -3.039  54.643  1.00  0.00     0.016 C 
HETATM   15  C21 UNL     1      15.351  -2.599  55.980  1.00  0.00     0.023 C 
HETATM   16  C22 UNL     1      15.139  -4.223  54.174  1.00  0.00     0.141 C 
HETATM   17  C31 UNL     1      14.846  -4.215  52.673  1.00  0.00     0.038 C 
HETATM   18  C32 UNL     1      14.138  -2.916  52.357  1.00  0.00     0.036 C 
ENDROOT
BRANCH  16  19
HETATM   19  O3  UNL     1      13.940  -4.533  54.763  1.00  0.00    -0.357 OA
BRANCH  19  20
HETATM   20  C23 UNL     1      13.115  -5.563  54.916  1.00  0.00     0.133 C 
HETATM   21  C24 UNL     1      13.233  -6.340  56.011  1.00  0.00     0.027 C 
BRANCH  21  22
HETATM   22  C25 UNL     1      14.277  -6.002  56.986  1.00  0.00     0.301 C 
BRANCH  22  23
HETATM   23  N2  UNL     1      15.053  -7.130  57.415  1.00  0.00     0.095 N 
HETATM   24  C26 UNL     1      16.169  -7.271  56.484  1.00  0.00     0.303 C 
HETATM   25  C27 UNL     1      17.050  -8.356  57.028  1.00  0.00     0.302 C 
HETATM   26  N3  UNL     1      16.405  -9.601  57.256  1.00  0.00     0.087 N 
HETATM   27  C28 UNL     1      17.191 -10.315  58.276  1.00  0.00     0.310 C 
HETATM   28  C29 UNL     1      15.060  -9.565  57.707  1.00  0.00     0.302 C 
HETATM   29  C30 UNL     1      14.282  -8.331  57.334  1.00  0.00     0.303 C 
ENDBRANCH  22  23
ENDBRANCH  21  22
ENDBRANCH  19  20
ENDBRANCH  16  19
BRANCH   4  30
HETATM   30  O1  UNL     1      16.151   0.195  54.592  1.00  0.00    -0.387 OA
ATOM     31  H1  UNL     1      16.579   1.021  54.397  1.00  0.00     0.210 HD
ENDBRANCH   4  30
BRANCH   5  32
HETATM   32  C6  UNL     1      19.026  -0.081  55.068  1.00  0.00     0.007 C 
BRANCH  32  33
HETATM   33  C7  UNL     1      19.525   1.122  54.395  1.00  0.00     0.013 C 
BRANCH  33  34
HETATM   34  C8  UNL     1      20.705   1.120  53.543  1.00  0.00    -0.018 A 
HETATM   35  C9  UNL     1      21.775   0.274  53.718  1.00  0.00     0.099 A 
HETATM   36  N1  UNL     1      22.858   0.285  52.953  1.00  0.00    -0.372 N 
HETATM   37  C10 UNL     1      22.997   1.144  51.923  1.00  0.00     0.130 A 
ATOM     38  H1  UNL     1      23.609  -0.377  53.150  1.00  0.00     0.164 HD
HETATM   39  C11 UNL     1      21.955   2.011  51.705  1.00  0.00     0.132 A 
HETATM   40  F1  UNL     1      22.048   2.906  50.667  1.00  0.00    -0.205 F 
HETATM   41  C12 UNL     1      20.830   2.023  52.476  1.00  0.00     0.056 A 
ENDBRANCH  33  34
ENDBRANCH  32  33
ENDBRANCH   5  32
TORSDOF 8
ENDMDL
MODEL 4
REMARK VINA RESULT: -9.729914599      4.496      6.742
REMARK  8 active torsions:
REMARK  status: ('A' for Active; 'I' for Inactive)
REMARK    1  A    between atoms: C4_4  and  O1_5 
REMARK    2  A    between atoms: C5_7  and  C6_8 
REMARK    3  A    between atoms: C6_8  and  C7_9 
REMARK    4  A    between atoms: C7_9  and  C8_10 
REMARK    5  A    between atoms: C22_28  and  O3_29 
REMARK    6  A    between atoms: O3_29  and  C23_30 
REMARK    7  A    between atoms: C24_31  and  C25_32 
REMARK    8  A    between atoms: C25_32  and  N2_33 
ROOT
HETATM    1  C1  UNL     1      15.125  -0.633  51.754  1.00  0.00     0.044 C 
HETATM    2  C2  UNL     1      15.108  -1.845  52.605  1.00  0.00    -0.078 C 
HETATM    3  C3  UNL     1      15.903  -1.886  53.671  1.00  0.00    -0.034 C 
HETATM    4  C4  UNL     1      16.774  -0.714  53.961  1.00  0.00     0.178 C 
HETATM    5  C5  UNL     1      18.086  -0.995  54.520  1.00  0.00    -0.039 C 
HETATM    6  C13 UNL     1      18.233  -2.305  55.310  1.00  0.00    -0.011 C 
HETATM    7  C14 UNL     1      18.184  -2.099  56.797  1.00  0.00     0.021 C 
HETATM    8  C15 UNL     1      19.698  -2.734  55.066  1.00  0.00     0.017 C 
HETATM    9  C16 UNL     1      19.812  -4.255  54.997  1.00  0.00     0.035 C 
HETATM   10  C17 UNL     1      19.308  -4.605  53.631  1.00  0.00     0.151 A 
HETATM   11  O2  UNL     1      18.162  -5.282  53.407  1.00  0.00    -0.375 OA
HETATM   12  C18 UNL     1      17.950  -3.937  53.489  1.00  0.00     0.157 A 
HETATM   13  C19 UNL     1      17.397  -3.404  54.774  1.00  0.00     0.044 C 
HETATM   14  C20 UNL     1      15.925  -3.058  54.589  1.00  0.00     0.016 C 
HETATM   15  C21 UNL     1      15.284  -2.693  55.917  1.00  0.00     0.023 C 
HETATM   16  C22 UNL     1      15.226  -4.269  54.058  1.00  0.00     0.141 C 
HETATM   17  C31 UNL     1      14.985  -4.231  52.549  1.00  0.00     0.038 C 
HETATM   18  C32 UNL     1      14.215  -2.966  52.245  1.00  0.00     0.036 C 
ENDROOT
BRANCH  16  19
HETATM   19  O3  UNL     1      14.029  -4.665  54.595  1.00  0.00    -0.357 OA
BRANCH  19  20
HETATM   20  C23 UNL     1      13.309  -5.766  54.785  1.00  0.00     0.133 C 
HETATM   21  C24 UNL     1      13.335  -6.365  55.992  1.00  0.00     0.027 C 
BRANCH  21  22
HETATM   22  C25 UNL     1      14.164  -5.762  57.042  1.00  0.00     0.301 C 
BRANCH  22  23
HETATM   23  N2  UNL     1      13.409  -5.084  58.057  1.00  0.00     0.095 N 
HETATM   24  C26 UNL     1      14.346  -4.684  59.104  1.00  0.00     0.303 C 
HETATM   25  C27 UNL     1      13.571  -3.852  60.081  1.00  0.00     0.302 C 
HETATM   26  N3  UNL     1      12.420  -4.478  60.629  1.00  0.00     0.087 N 
HETATM   27  C28 UNL     1      11.508  -3.405  61.061  1.00  0.00     0.310 C 
HETATM   28  C29 UNL     1      11.682  -5.342  59.779  1.00  0.00     0.302 C 
HETATM   29  C30 UNL     1      12.463  -5.972  58.656  1.00  0.00     0.303 C 
ENDBRANCH  22  23
ENDBRANCH  21  22
ENDBRANCH  19  20
ENDBRANCH  16  19
BRANCH   4  30
HETATM   30  O1  UNL     1      15.969   0.184  54.640  1.00  0.00    -0.387 OA
ATOM     31  H1  UNL     1      15.636   0.777  53.976  1.00  0.00     0.210 HD
ENDBRANCH   4  30
BRANCH   5  32
HETATM   32  C6  UNL     1      18.837   0.055  55.210  1.00  0.00     0.007 C 
BRANCH  32  33
HETATM   33  C7  UNL     1      19.423   1.230  54.557  1.00  0.00     0.013 C 
BRANCH  33  34
HETATM   34  C8  UNL     1      20.608   1.158  53.715  1.00  0.00    -0.018 A 
HETATM   35  C9  UNL     1      21.639   0.273  53.918  1.00  0.00     0.099 A 
HETATM   36  N1  UNL     1      22.727   0.221  53.161  1.00  0.00    -0.372 N 
HETATM   37  C10 UNL     1      22.910   1.049  52.113  1.00  0.00     0.130 A 
ATOM     38  H1  UNL     1      23.449  -0.467  53.379  1.00  0.00     0.164 HD
HETATM   39  C11 UNL     1      21.907   1.954  51.868  1.00  0.00     0.132 A 
HETATM   40  F1  UNL     1      22.045   2.819  50.810  1.00  0.00    -0.205 F 
HETATM   41  C12 UNL     1      20.778   2.031  52.629  1.00  0.00     0.056 A 
ENDBRANCH  33  34
ENDBRANCH  32  33
ENDBRANCH   5  32
TORSDOF 8
ENDMDL
MODEL 5
REMARK VINA RESULT: -9.721086108      3.228      5.650
REMARK  8 active torsions:
REMARK  status: ('A' for Active; 'I' for Inactive)
REMARK    1  A    between atoms: C4_4  and  O1_5 
REMARK    2  A    between atoms: C5_7  and  C6_8 
REMARK    3  A    between atoms: C6_8  and  C7_9 
REMARK    4  A    between atoms: C7_9  and  C8_10 
REMARK    5  A    between atoms: C22_28  and  O3_29 
REMARK    6  A    between atoms: O3_29  and  C23_30 
REMARK    7  A    between atoms: C24_31  and  C25_32 
REMARK    8  A    between atoms: C25_32  and  N2_33 
ROOT
HETATM    1  C1  UNL     1      18.886  -5.554  57.888  1.00  0.00     0.044 C 
HETATM    2  C2  UNL     1      18.046  -4.465  57.342  1.00  0.00    -0.078 C 
HETATM    3  C3  UNL     1      17.725  -3.448  58.136  1.00  0.00    -0.034 C 
HETATM    4  C4  UNL     1      18.223  -3.449  59.539  1.00  0.00     0.178 C 
HETATM    5  C5  UNL     1      17.336  -2.897  60.550  1.00  0.00    -0.039 C 
HETATM    6  C13 UNL     1      16.313  -1.853  60.075  1.00  0.00    -0.011 C 
HETATM    7  C14 UNL     1      16.735  -0.443  60.376  1.00  0.00     0.021 C 
HETATM    8  C15 UNL     1      15.097  -2.059  61.007  1.00  0.00     0.017 C 
HETATM    9  C16 UNL     1      13.792  -1.808  60.256  1.00  0.00     0.035 C 
HETATM   10  C17 UNL     1      13.586  -3.046  59.441  1.00  0.00     0.151 A 
HETATM   11  O2  UNL     1      13.655  -3.074  58.092  1.00  0.00    -0.375 OA
HETATM   12  C18 UNL     1      14.875  -3.271  58.668  1.00  0.00     0.157 A 
HETATM   13  C19 UNL     1      15.817  -2.108  58.702  1.00  0.00     0.044 C 
HETATM   14  C20 UNL     1      16.904  -2.303  57.654  1.00  0.00     0.016 C 
HETATM   15  C21 UNL     1      17.767  -1.058  57.531  1.00  0.00     0.023 C 
HETATM   16  C22 UNL     1      16.240  -2.534  56.334  1.00  0.00     0.141 C 
HETATM   17  C31 UNL     1      16.177  -4.005  55.924  1.00  0.00     0.038 C 
HETATM   18  C32 UNL     1      17.592  -4.541  55.937  1.00  0.00     0.036 C 
ENDROOT
BRANCH  16  19
HETATM   19  O3  UNL     1      16.682  -1.877  55.215  1.00  0.00    -0.357 OA
BRANCH  19  20
HETATM   20  C23 UNL     1      16.220  -1.111  54.232  1.00  0.00     0.133 C 
HETATM   21  C24 UNL     1      16.826   0.067  53.981  1.00  0.00     0.027 C 
BRANCH  21  22
HETATM   22  C25 UNL     1      17.974   0.443  54.814  1.00  0.00     0.301 C 
BRANCH  22  23
HETATM   23  N2  UNL     1      19.178   0.673  54.069  1.00  0.00     0.095 N 
HETATM   24  C26 UNL     1      19.964  -0.558  54.119  1.00  0.00     0.303 C 
HETATM   25  C27 UNL     1      21.144  -0.353  53.217  1.00  0.00     0.302 C 
HETATM   26  N3  UNL     1      21.943   0.784  53.516  1.00  0.00     0.087 N 
HETATM   27  C28 UNL     1      22.644   1.158  52.276  1.00  0.00     0.310 C 
HETATM   28  C29 UNL     1      21.275   1.942  53.990  1.00  0.00     0.302 C 
HETATM   29  C30 UNL     1      19.962   1.698  54.685  1.00  0.00     0.303 C 
ENDBRANCH  22  23
ENDBRANCH  21  22
ENDBRANCH  19  20
ENDBRANCH  16  19
BRANCH   4  30
HETATM   30  O1  UNL     1      19.510  -2.945  59.473  1.00  0.00    -0.387 OA
ATOM     31  H1  UNL     1      20.067  -3.627  59.831  1.00  0.00     0.210 HD
ENDBRANCH   4  30
BRANCH   5  32
HETATM   32  C6  UNL     1      17.865  -2.478  61.850  1.00  0.00     0.007 C 
BRANCH  32  33
HETATM   33  C7  UNL     1      17.913  -3.326  63.045  1.00  0.00     0.013 C 
BRANCH  33  34
HETATM   34  C8  UNL     1      19.076  -4.124  63.401  1.00  0.00    -0.018 A 
HETATM   35  C9  UNL     1      19.323  -4.598  64.668  1.00  0.00     0.099 A 
HETATM   36  N1  UNL     1      20.392  -5.310  64.995  1.00  0.00    -0.372 N 
HETATM   37  C10 UNL     1      21.340  -5.632  64.092  1.00  0.00     0.130 A 
ATOM     38  H1  UNL     1      20.501  -5.624  65.960  1.00  0.00     0.164 HD
HETATM   39  C11 UNL     1      21.142  -5.182  62.811  1.00  0.00     0.132 A 
HETATM   40  F1  UNL     1      22.079  -5.485  61.854  1.00  0.00    -0.205 F 
HETATM   41  C12 UNL     1      20.052  -4.448  62.446  1.00  0.00     0.056 A 
ENDBRANCH  33  34
ENDBRANCH  32  33
ENDBRANCH   5  32
TORSDOF 8
ENDMDL
