MODEL 1
REMARK VINA RESULT: -3.873900141      0.000      0.000
REMARK  4 active torsions:
REMARK  status: ('A' for Active; 'I' for Inactive)
REMARK    1  A    between atoms: C2_2  and  C4_4 
REMARK    2  A    between atoms: C7_7  and  O1_8 
REMARK    3  A    between atoms: C7_7  and  C8_10 
REMARK    4  A    between atoms: C11_13  and  O2_14 
ROOT
HETATM    1  C4  UNL     1     -31.579 -11.730  -0.328  1.00  0.00     0.048 C 
HETATM    2  C5  UNL     1     -31.480 -10.257  -0.608  1.00  0.00     0.015 C 
HETATM    3  C6  UNL     1     -31.339  -9.496   0.655  1.00  0.00     0.048 C 
HETATM    4  C7  UNL     1     -32.574  -9.288   1.464  1.00  0.00     0.129 C 
HETATM    5  C11 UNL     1     -33.360 -10.563   1.632  1.00  0.00     0.296 C 
HETATM    6  O3  UNL     1     -33.717 -11.159   0.483  1.00  0.00    -0.346 OA
HETATM    7  C12 UNL     1     -32.973 -12.209  -0.002  1.00  0.00     0.072 C 
HETATM    8  C13 UNL     1     -33.636 -12.554  -1.324  1.00  0.00     0.039 C 
HETATM    9  C14 UNL     1     -34.900 -13.379  -1.154  1.00  0.00     0.004 C 
HETATM   10  C15 UNL     1     -34.407 -14.740  -0.646  1.00  0.00     0.009 C 
HETATM   11  C16 UNL     1     -33.838 -14.515   0.710  1.00  0.00    -0.045 C 
HETATM   12  C17 UNL     1     -34.999 -14.469   1.701  1.00  0.00     0.015 C 
HETATM   13  C18 UNL     1     -33.090 -15.799   1.105  1.00  0.00     0.015 C 
HETATM   14  C19 UNL     1     -32.890 -13.391   0.883  1.00  0.00     0.047 C 
ENDROOT
BRANCH   1  15
HETATM   15  C2  UNL     1     -30.911 -12.439  -1.420  1.00  0.00    -0.086 C 
HETATM   16  C1  UNL     1     -30.127 -11.805  -2.331  1.00  0.00     0.014 C 
HETATM   17  C3  UNL     1     -30.976 -13.909  -1.599  1.00  0.00     0.043 C 
ENDBRANCH   1  15
BRANCH   5  18
HETATM   18  O2  UNL     1     -34.484 -10.268   2.377  1.00  0.00    -0.368 OA
ATOM     19  H2  UNL     1     -35.072 -11.012   2.320  1.00  0.00     0.212 HD
ENDBRANCH   5  18
BRANCH   4  20
HETATM   20  O1  UNL     1     -32.212  -8.759   2.692  1.00  0.00    -0.380 OA
ATOM     21  H1  UNL     1     -32.964  -8.310   3.062  1.00  0.00     0.211 HD
ENDBRANCH   4  20
BRANCH   4  22
HETATM   22  C8  UNL     1     -33.368  -8.192   0.765  1.00  0.00    -0.054 C 
HETATM   23  C9  UNL     1     -34.079  -8.140  -0.197  1.00  0.00     0.017 C 
HETATM   24  C10 UNL     1     -33.215  -6.830   1.573  1.00  0.00     0.046 C 
ENDBRANCH   4  22
TORSDOF 4
ENDMDL
MODEL 2
REMARK VINA RESULT: -3.459580397      1.412      5.282
REMARK  4 active torsions:
REMARK  status: ('A' for Active; 'I' for Inactive)
REMARK    1  A    between atoms: C2_2  and  C4_4 
REMARK    2  A    between atoms: C7_7  and  O1_8 
REMARK    3  A    between atoms: C7_7  and  C8_10 
REMARK    4  A    between atoms: C11_13  and  O2_14 
ROOT
HETATM    1  C4  UNL     1     -31.884 -10.759  -0.589  1.00  0.00     0.048 C 
HETATM    2  C5  UNL     1     -31.543 -12.218  -0.485  1.00  0.00     0.015 C 
HETATM    3  C6  UNL     1     -32.531 -13.037  -1.224  1.00  0.00     0.048 C 
HETATM    4  C7  UNL     1     -33.849 -13.270  -0.567  1.00  0.00     0.129 C 
HETATM    5  C11 UNL     1     -34.437 -11.996  -0.016  1.00  0.00     0.296 C 
HETATM    6  O3  UNL     1     -33.651 -11.345   0.857  1.00  0.00    -0.346 OA
HETATM    7  C12 UNL     1     -32.891 -10.282   0.431  1.00  0.00     0.072 C 
HETATM    8  C13 UNL     1     -32.103  -9.870   1.662  1.00  0.00     0.039 C 
HETATM    9  C14 UNL     1     -32.921  -9.042   2.637  1.00  0.00     0.004 C 
HETATM   10  C15 UNL     1     -33.153  -7.711   1.912  1.00  0.00     0.009 C 
HETATM   11  C16 UNL     1     -34.021  -8.002   0.740  1.00  0.00    -0.045 C 
HETATM   12  C17 UNL     1     -35.464  -8.082   1.237  1.00  0.00     0.015 C 
HETATM   13  C18 UNL     1     -34.024  -6.744  -0.144  1.00  0.00     0.015 C 
HETATM   14  C19 UNL     1     -33.649  -9.142  -0.128  1.00  0.00     0.047 C 
ENDROOT
BRANCH   1  15
HETATM   15  C2  UNL     1     -30.629 -10.008  -0.631  1.00  0.00    -0.086 C 
HETATM   16  C1  UNL     1     -29.525 -10.466  -1.277  1.00  0.00     0.014 C 
HETATM   17  C3  UNL     1     -30.462  -8.664  -0.029  1.00  0.00     0.043 C 
ENDBRANCH   1  15
BRANCH   5  18
HETATM   18  O2  UNL     1     -35.640 -12.313   0.583  1.00  0.00    -0.368 OA
ATOM     19  H2  UNL     1     -35.731 -13.259   0.565  1.00  0.00     0.212 HD
ENDBRANCH   5  18
BRANCH   4  20
HETATM   20  O1  UNL     1     -34.702 -13.857  -1.486  1.00  0.00    -0.380 OA
ATOM     21  H1  UNL     1     -34.201 -14.088  -2.260  1.00  0.00     0.211 HD
ENDBRANCH   4  20
BRANCH   4  22
HETATM   22  C8  UNL     1     -33.615 -14.325   0.506  1.00  0.00    -0.054 C 
HETATM   23  C9  UNL     1     -33.890 -14.433   1.667  1.00  0.00     0.017 C 
HETATM   24  C10 UNL     1     -32.863 -15.573  -0.133  1.00  0.00     0.046 C 
ENDBRANCH   4  22
TORSDOF 4
ENDMDL
MODEL 3
REMARK VINA RESULT: -2.256453899      1.848      2.796
REMARK  4 active torsions:
REMARK  status: ('A' for Active; 'I' for Inactive)
REMARK    1  A    between atoms: C2_2  and  C4_4 
REMARK    2  A    between atoms: C7_7  and  O1_8 
REMARK    3  A    between atoms: C7_7  and  C8_10 
REMARK    4  A    between atoms: C11_13  and  O2_14 
ROOT
HETATM    1  C4  UNL     1     -33.367 -12.637   0.576  1.00  0.00     0.048 C 
HETATM    2  C5  UNL     1     -32.618 -11.750  -0.378  1.00  0.00     0.015 C 
HETATM    3  C6  UNL     1     -31.637 -10.914   0.350  1.00  0.00     0.048 C 
HETATM    4  C7  UNL     1     -32.165  -9.728   1.083  1.00  0.00     0.129 C 
HETATM    5  C11 UNL     1     -33.375 -10.071   1.914  1.00  0.00     0.296 C 
HETATM    6  O3  UNL     1     -34.392 -10.617   1.228  1.00  0.00    -0.346 OA
HETATM    7  C12 UNL     1     -34.561 -11.981   1.228  1.00  0.00     0.072 C 
HETATM    8  C13 UNL     1     -35.743 -12.210   0.303  1.00  0.00     0.039 C 
HETATM    9  C14 UNL     1     -37.078 -11.929   0.970  1.00  0.00     0.004 C 
HETATM   10  C15 UNL     1     -37.231 -13.046   2.011  1.00  0.00     0.009 C 
HETATM   11  C16 UNL     1     -36.171 -12.833   3.032  1.00  0.00    -0.045 C 
HETATM   12  C17 UNL     1     -36.660 -11.752   3.994  1.00  0.00     0.015 C 
HETATM   13  C18 UNL     1     -36.131 -14.093   3.912  1.00  0.00     0.015 C 
HETATM   14  C19 UNL     1     -34.790 -12.594   2.554  1.00  0.00     0.047 C 
ENDROOT
BRANCH   1  15
HETATM   15  C2  UNL     1     -33.640 -13.900  -0.109  1.00  0.00    -0.086 C 
HETATM   16  C1  UNL     1     -34.104 -13.955  -1.385  1.00  0.00     0.014 C 
HETATM   17  C3  UNL     1     -33.383 -15.229   0.496  1.00  0.00     0.043 C 
ENDBRANCH   1  15
BRANCH   5  18
HETATM   18  O2  UNL     1     -33.797  -8.914   2.539  1.00  0.00    -0.368 OA
ATOM     19  H2  UNL     1     -34.185  -8.354   1.877  1.00  0.00     0.212 HD
ENDBRANCH   5  18
BRANCH   4  20
HETATM   20  O1  UNL     1     -31.150  -9.207   1.869  1.00  0.00    -0.380 OA
ATOM     21  H1  UNL     1     -31.523  -8.556   2.452  1.00  0.00     0.211 HD
ENDBRANCH   4  20
BRANCH   4  22
HETATM   22  C8  UNL     1     -32.453  -8.665   0.031  1.00  0.00    -0.054 C 
HETATM   23  C9  UNL     1     -33.429  -8.076  -0.337  1.00  0.00     0.017 C 
HETATM   24  C10 UNL     1     -31.095  -8.244  -0.683  1.00  0.00     0.046 C 
ENDBRANCH   4  22
TORSDOF 4
ENDMDL
MODEL 4
REMARK VINA RESULT: -2.137137205      1.938      5.418
REMARK  4 active torsions:
REMARK  status: ('A' for Active; 'I' for Inactive)
REMARK    1  A    between atoms: C2_2  and  C4_4 
REMARK    2  A    between atoms: C7_7  and  O1_8 
REMARK    3  A    between atoms: C7_7  and  C8_10 
REMARK    4  A    between atoms: C11_13  and  O2_14 
ROOT
HETATM    1  C4  UNL     1     -33.740 -11.680   0.350  1.00  0.00     0.048 C 
HETATM    2  C5  UNL     1     -33.976 -12.966   1.090  1.00  0.00     0.015 C 
HETATM    3  C6  UNL     1     -35.382 -13.405   0.935  1.00  0.00     0.048 C 
HETATM    4  C7  UNL     1     -36.407 -12.708   1.763  1.00  0.00     0.129 C 
HETATM    5  C11 UNL     1     -36.251 -11.210   1.710  1.00  0.00     0.296 C 
HETATM    6  O3  UNL     1     -35.043 -10.757   2.084  1.00  0.00    -0.346 OA
HETATM    7  C12 UNL     1     -34.108 -10.439   1.128  1.00  0.00     0.072 C 
HETATM    8  C13 UNL     1     -32.878 -10.045   1.928  1.00  0.00     0.039 C 
HETATM    9  C14 UNL     1     -32.960  -8.633   2.481  1.00  0.00     0.004 C 
HETATM   10  C15 UNL     1     -32.874  -7.730   1.245  1.00  0.00     0.009 C 
HETATM   11  C16 UNL     1     -34.109  -7.967   0.449  1.00  0.00    -0.045 C 
HETATM   12  C17 UNL     1     -35.233  -7.146   1.078  1.00  0.00     0.015 C 
HETATM   13  C18 UNL     1     -33.903  -7.291  -0.916  1.00  0.00     0.015 C 
HETATM   14  C19 UNL     1     -34.500  -9.369   0.185  1.00  0.00     0.047 C 
ENDROOT
BRANCH   1  15
HETATM   15  C2  UNL     1     -32.375 -11.711  -0.176  1.00  0.00    -0.086 C 
HETATM   16  C1  UNL     1     -31.875 -12.780  -0.849  1.00  0.00     0.014 C 
HETATM   17  C3  UNL     1     -31.437 -10.567  -0.078  1.00  0.00     0.043 C 
ENDBRANCH   1  15
BRANCH   5  18
HETATM   18  O2  UNL     1     -37.228 -10.657   2.514  1.00  0.00    -0.368 OA
ATOM     19  H2  UNL     1     -36.851  -9.902   2.950  1.00  0.00     0.212 HD
ENDBRANCH   5  18
BRANCH   4  20
HETATM   20  O1  UNL     1     -37.664 -13.094   1.327  1.00  0.00    -0.380 OA
ATOM     21  H1  UNL     1     -38.281 -12.976   2.039  1.00  0.00     0.211 HD
ENDBRANCH   4  20
BRANCH   4  22
HETATM   22  C8  UNL     1     -36.275 -13.266   3.173  1.00  0.00    -0.054 C 
HETATM   23  C9  UNL     1     -35.387 -13.354   3.973  1.00  0.00     0.017 C 
HETATM   24  C10 UNL     1     -37.688 -13.806   3.665  1.00  0.00     0.046 C 
ENDBRANCH   4  22
TORSDOF 4
ENDMDL
MODEL 5
REMARK VINA RESULT: -2.025132885      1.382      5.201
REMARK  4 active torsions:
REMARK  status: ('A' for Active; 'I' for Inactive)
REMARK    1  A    between atoms: C2_2  and  C4_4 
REMARK    2  A    between atoms: C7_7  and  O1_8 
REMARK    3  A    between atoms: C7_7  and  C8_10 
REMARK    4  A    between atoms: C11_13  and  O2_14 
ROOT
HETATM    1  C4  UNL     1     -31.965 -10.664  -0.521  1.00  0.00     0.048 C 
HETATM    2  C5  UNL     1     -31.636 -12.124  -0.387  1.00  0.00     0.015 C 
HETATM    3  C6  UNL     1     -32.635 -12.950  -1.103  1.00  0.00     0.048 C 
HETATM    4  C7  UNL     1     -33.951 -13.157  -0.435  1.00  0.00     0.129 C 
HETATM    5  C11 UNL     1     -34.526 -11.867   0.091  1.00  0.00     0.296 C 
HETATM    6  O3  UNL     1     -33.730 -11.204   0.946  1.00  0.00    -0.346 OA
HETATM    7  C12 UNL     1     -32.963 -10.156   0.492  1.00  0.00     0.072 C 
HETATM    8  C13 UNL     1     -32.166  -9.725   1.711  1.00  0.00     0.039 C 
HETATM    9  C14 UNL     1     -32.972  -8.868   2.671  1.00  0.00     0.004 C 
HETATM   10  C15 UNL     1     -33.196  -7.551   1.918  1.00  0.00     0.009 C 
HETATM   11  C16 UNL     1     -34.072  -7.861   0.756  1.00  0.00    -0.045 C 
HETATM   12  C17 UNL     1     -35.513  -7.917   1.261  1.00  0.00     0.015 C 
HETATM   13  C18 UNL     1     -34.068  -6.623  -0.155  1.00  0.00     0.015 C 
HETATM   14  C19 UNL     1     -33.714  -9.022  -0.088  1.00  0.00     0.047 C 
ENDROOT
BRANCH   1  15
HETATM   15  C2  UNL     1     -30.704  -9.926  -0.585  1.00  0.00    -0.086 C 
HETATM   16  C1  UNL     1     -30.541  -8.704  -0.013  1.00  0.00     0.014 C 
HETATM   17  C3  UNL     1     -29.478 -10.460  -1.224  1.00  0.00     0.043 C 
ENDBRANCH   1  15
BRANCH   5  18
HETATM   18  O2  UNL     1     -35.729 -12.160   0.701  1.00  0.00    -0.368 OA
ATOM     19  H2  UNL     1     -35.578 -12.187   1.639  1.00  0.00     0.212 HD
ENDBRANCH   5  18
BRANCH   4  20
HETATM   20  O1  UNL     1     -34.814 -13.757  -1.337  1.00  0.00    -0.380 OA
ATOM     21  H1  UNL     1     -34.303 -14.282  -1.942  1.00  0.00     0.211 HD
ENDBRANCH   4  20
BRANCH   4  22
HETATM   22  C8  UNL     1     -33.721 -14.190   0.660  1.00  0.00    -0.054 C 
HETATM   23  C9  UNL     1     -33.088 -15.203   0.754  1.00  0.00     0.017 C 
HETATM   24  C10 UNL     1     -34.491 -13.745   1.980  1.00  0.00     0.046 C 
ENDBRANCH   4  22
TORSDOF 4
ENDMDL
