MODEL 1
REMARK VINA RESULT: -6.982672967      0.000      0.000
REMARK  5 active torsions:
REMARK  status: ('A' for Active; 'I' for Inactive)
REMARK    1  A    between atoms: N1_2  and  C3_4 
REMARK    2  A    between atoms: C3_4  and  C4_5 
REMARK    3  A    between atoms: C4_5  and  C5_6 
REMARK    4  A    between atoms: C5_6  and  N2_7 
REMARK    5  A    between atoms: C6_8  and  N3_9 
ROOT
HETATM    1  N2  UNL     1      -2.735   0.471  30.763  1.00  0.00    -0.319 N 
HETATM    2  C6  UNL     1      -1.655  -0.040  30.185  1.00  0.00     0.102 A 
HETATM    3  C7  UNL     1      -1.647  -0.450  28.853  1.00  0.00     0.049 A 
HETATM    4  C8  UNL     1      -2.796  -0.320  28.109  1.00  0.00     0.021 A 
HETATM    5  C9  UNL     1      -3.924   0.204  28.673  1.00  0.00     0.035 A 
HETATM    6  C10 UNL     1      -5.068   0.322  27.904  1.00  0.00     0.041 A 
HETATM    7  N4  UNL     1      -5.168  -0.020  26.678  1.00  0.00    -0.398 N 
ATOM      8  H41 UNL     1      -6.011   0.067  26.112  1.00  0.00     0.156 HD
ATOM      9  H42 UNL     1      -4.344  -0.414  26.222  1.00  0.00     0.156 HD
HETATM   10  C11 UNL     1      -6.198   0.863  28.530  1.00  0.00     0.047 A 
HETATM   11  C12 UNL     1      -6.136   1.243  29.842  1.00  0.00     0.092 A 
HETATM   12  N5  UNL     1      -4.976   1.104  30.559  1.00  0.00    -0.351 N 
ATOM     13  H5  UNL     1      -4.959   1.395  31.537  1.00  0.00     0.166 HD
HETATM   14  C13 UNL     1      -3.866   0.595  30.012  1.00  0.00     0.121 A 
ENDROOT
BRANCH   1  15
HETATM   15  C5  UNL     1      -2.757   0.854  32.132  1.00  0.00     0.134 C 
BRANCH  15  16
HETATM   16  C4  UNL     1      -2.845  -0.263  33.127  1.00  0.00     0.050 C 
BRANCH  16  17
HETATM   17  C3  UNL     1      -3.137   0.153  34.529  1.00  0.00     0.273 C 
BRANCH  17  18
HETATM   18  N1  UNL     1      -2.059  -0.185  35.445  1.00  0.00     0.080 N 
HETATM   19  C1  UNL     1      -1.182  -1.107  34.746  1.00  0.00     0.309 C 
HETATM   20  C2  UNL     1      -1.278   1.001  35.748  1.00  0.00     0.309 C 
ENDBRANCH  17  18
ENDBRANCH  16  17
ENDBRANCH  15  16
ENDBRANCH   1  15
BRANCH   2  21
HETATM   21  N3  UNL     1      -0.542  -0.164  30.780  1.00  0.00    -0.385 N 
ATOM     22  H32 UNL     1      -0.330   0.584  31.441  1.00  0.00     0.157 HD
ATOM     23  H31 UNL     1       0.083  -0.957  30.636  1.00  0.00     0.157 HD
ENDBRANCH   2  21
TORSDOF 5
ENDMDL
MODEL 2
REMARK VINA RESULT: -6.939643268      1.247      1.470
REMARK  5 active torsions:
REMARK  status: ('A' for Active; 'I' for Inactive)
REMARK    1  A    between atoms: N1_2  and  C3_4 
REMARK    2  A    between atoms: C3_4  and  C4_5 
REMARK    3  A    between atoms: C4_5  and  C5_6 
REMARK    4  A    between atoms: C5_6  and  N2_7 
REMARK    5  A    between atoms: C6_8  and  N3_9 
ROOT
HETATM    1  N2  UNL     1      -3.168   0.495  31.069  1.00  0.00    -0.319 N 
HETATM    2  C6  UNL     1      -1.967  -0.042  31.247  1.00  0.00     0.102 A 
HETATM    3  C7  UNL     1      -1.250  -0.626  30.204  1.00  0.00     0.049 A 
HETATM    4  C8  UNL     1      -1.803  -0.646  28.946  1.00  0.00     0.021 A 
HETATM    5  C9  UNL     1      -3.036  -0.100  28.727  1.00  0.00     0.035 A 
HETATM    6  C10 UNL     1      -3.572  -0.135  27.453  1.00  0.00     0.041 A 
HETATM    7  N4  UNL     1      -3.000  -0.642  26.430  1.00  0.00    -0.398 N 
ATOM      8  H41 UNL     1      -3.395  -0.667  25.490  1.00  0.00     0.156 HD
ATOM      9  H42 UNL     1      -2.077  -1.057  26.553  1.00  0.00     0.156 HD
HETATM   10  C11 UNL     1      -4.840   0.436  27.283  1.00  0.00     0.047 A 
HETATM   11  C12 UNL     1      -5.487   0.990  28.353  1.00  0.00     0.092 A 
HETATM   12  N5  UNL     1      -4.911   0.997  29.596  1.00  0.00    -0.351 N 
ATOM     13  H5  UNL     1      -5.419   1.417  30.375  1.00  0.00     0.166 HD
HETATM   14  C13 UNL     1      -3.702   0.468  29.816  1.00  0.00     0.121 A 
ENDROOT
BRANCH   1  15
HETATM   15  C5  UNL     1      -3.918   1.055  32.140  1.00  0.00     0.134 C 
BRANCH  15  16
HETATM   16  C4  UNL     1      -4.268   0.122  33.258  1.00  0.00     0.050 C 
BRANCH  16  17
HETATM   17  C3  UNL     1      -4.019   0.650  34.631  1.00  0.00     0.273 C 
BRANCH  17  18
HETATM   18  N1  UNL     1      -3.552  -0.379  35.545  1.00  0.00     0.080 N 
HETATM   19  C1  UNL     1      -3.460  -1.612  34.785  1.00  0.00     0.309 C 
HETATM   20  C2  UNL     1      -2.213  -0.060  36.007  1.00  0.00     0.309 C 
ENDBRANCH  17  18
ENDBRANCH  16  17
ENDBRANCH  15  16
ENDBRANCH   1  15
BRANCH   2  21
HETATM   21  N3  UNL     1      -1.363  -0.038  32.362  1.00  0.00    -0.385 N 
ATOM     22  H32 UNL     1      -1.898   0.365  33.132  1.00  0.00     0.157 HD
ATOM     23  H31 UNL     1      -0.430  -0.427  32.494  1.00  0.00     0.157 HD
ENDBRANCH   2  21
TORSDOF 5
ENDMDL
MODEL 3
REMARK VINA RESULT: -6.765476635      1.353      3.201
REMARK  5 active torsions:
REMARK  status: ('A' for Active; 'I' for Inactive)
REMARK    1  A    between atoms: N1_2  and  C3_4 
REMARK    2  A    between atoms: C3_4  and  C4_5 
REMARK    3  A    between atoms: C4_5  and  C5_6 
REMARK    4  A    between atoms: C5_6  and  N2_7 
REMARK    5  A    between atoms: C6_8  and  N3_9 
ROOT
HETATM    1  N2  UNL     1      -4.403   1.509  30.722  1.00  0.00    -0.319 N 
HETATM    2  C6  UNL     1      -5.428   1.764  29.917  1.00  0.00     0.102 A 
HETATM    3  C7  UNL     1      -5.486   1.282  28.611  1.00  0.00     0.049 A 
HETATM    4  C8  UNL     1      -4.448   0.515  28.137  1.00  0.00     0.021 A 
HETATM    5  C9  UNL     1      -3.380   0.232  28.940  1.00  0.00     0.035 A 
HETATM    6  C10 UNL     1      -2.348  -0.540  28.440  1.00  0.00     0.041 A 
HETATM    7  N4  UNL     1      -2.302  -1.032  27.262  1.00  0.00    -0.398 N 
ATOM      8  H41 UNL     1      -1.541  -1.601  26.893  1.00  0.00     0.156 HD
ATOM      9  H42 UNL     1      -3.084  -0.844  26.634  1.00  0.00     0.156 HD
HETATM   10  C11 UNL     1      -1.275  -0.799  29.302  1.00  0.00     0.047 A 
HETATM   11  C12 UNL     1      -1.283  -0.292  30.572  1.00  0.00     0.092 A 
HETATM   12  N5  UNL     1      -2.332   0.469  31.019  1.00  0.00    -0.351 N 
ATOM     13  H5  UNL     1      -2.310   0.834  31.971  1.00  0.00     0.166 HD
HETATM   14  C13 UNL     1      -3.383   0.746  30.239  1.00  0.00     0.121 A 
ENDROOT
BRANCH   1  15
HETATM   15  C5  UNL     1      -4.323   2.032  32.042  1.00  0.00     0.134 C 
BRANCH  15  16
HETATM   16  C4  UNL     1      -4.561   1.056  33.153  1.00  0.00     0.050 C 
BRANCH  16  17
HETATM   17  C3  UNL     1      -4.150   1.521  34.510  1.00  0.00     0.273 C 
BRANCH  17  18
HETATM   18  N1  UNL     1      -3.322   0.547  35.203  1.00  0.00     0.080 N 
HETATM   19  C1  UNL     1      -3.407  -0.693  34.453  1.00  0.00     0.309 C 
HETATM   20  C2  UNL     1      -1.933   0.969  35.174  1.00  0.00     0.309 C 
ENDBRANCH  17  18
ENDBRANCH  16  17
ENDBRANCH  15  16
ENDBRANCH   1  15
BRANCH   2  21
HETATM   21  N3  UNL     1      -6.445   2.431  30.278  1.00  0.00    -0.385 N 
ATOM     22  H32 UNL     1      -7.302   1.884  30.361  1.00  0.00     0.157 HD
ATOM     23  H31 UNL     1      -6.411   3.427  30.495  1.00  0.00     0.157 HD
ENDBRANCH   2  21
TORSDOF 5
ENDMDL
MODEL 4
REMARK VINA RESULT: -6.739299511      1.112      2.723
REMARK  5 active torsions:
REMARK  status: ('A' for Active; 'I' for Inactive)
REMARK    1  A    between atoms: N1_2  and  C3_4 
REMARK    2  A    between atoms: C3_4  and  C4_5 
REMARK    3  A    between atoms: C4_5  and  C5_6 
REMARK    4  A    between atoms: C5_6  and  N2_7 
REMARK    5  A    between atoms: C6_8  and  N3_9 
ROOT
HETATM    1  N2  UNL     1      -3.459   0.888  30.887  1.00  0.00    -0.319 N 
HETATM    2  C6  UNL     1      -4.545   1.568  31.235  1.00  0.00     0.102 A 
HETATM    3  C7  UNL     1      -5.598   1.794  30.350  1.00  0.00     0.049 A 
HETATM    4  C8  UNL     1      -5.512   1.294  29.072  1.00  0.00     0.021 A 
HETATM    5  C9  UNL     1      -4.410   0.588  28.682  1.00  0.00     0.035 A 
HETATM    6  C10 UNL     1      -4.346   0.098  27.390  1.00  0.00     0.041 A 
HETATM    7  N4  UNL     1      -5.253   0.247  26.503  1.00  0.00    -0.398 N 
ATOM      8  H41 UNL     1      -5.206  -0.115  25.551  1.00  0.00     0.156 HD
ATOM      9  H42 UNL     1      -6.093   0.767  26.759  1.00  0.00     0.156 HD
HETATM   10  C11 UNL     1      -3.194  -0.616  27.040  1.00  0.00     0.047 A 
HETATM   11  C12 UNL     1      -2.198  -0.798  27.959  1.00  0.00     0.092 A 
HETATM   12  N5  UNL     1      -2.311  -0.290  29.227  1.00  0.00    -0.351 N 
ATOM     13  H5  UNL     1      -1.551  -0.442  29.891  1.00  0.00     0.166 HD
HETATM   14  C13 UNL     1      -3.389   0.398  29.617  1.00  0.00     0.121 A 
ENDROOT
BRANCH   1  15
HETATM   15  C5  UNL     1      -2.367   0.690  31.776  1.00  0.00     0.134 C 
BRANCH  15  16
HETATM   16  C4  UNL     1      -2.385  -0.580  32.570  1.00  0.00     0.050 C 
BRANCH  16  17
HETATM   17  C3  UNL     1      -1.814  -0.481  33.945  1.00  0.00     0.273 C 
BRANCH  17  18
HETATM   18  N1  UNL     1      -2.277   0.702  34.653  1.00  0.00     0.080 N 
HETATM   19  C1  UNL     1      -3.513   0.339  35.322  1.00  0.00     0.309 C 
HETATM   20  C2  UNL     1      -1.322   1.064  35.685  1.00  0.00     0.309 C 
ENDBRANCH  17  18
ENDBRANCH  16  17
ENDBRANCH  15  16
ENDBRANCH   1  15
BRANCH   2  21
HETATM   21  N3  UNL     1      -4.728   2.034  32.400  1.00  0.00    -0.385 N 
ATOM     22  H32 UNL     1      -4.147   1.607  33.122  1.00  0.00     0.157 HD
ATOM     23  H31 UNL     1      -5.380   2.791  32.603  1.00  0.00     0.157 HD
ENDBRANCH   2  21
TORSDOF 5
ENDMDL
MODEL 5
REMARK VINA RESULT: -6.711974532      1.841      5.707
REMARK  5 active torsions:
REMARK  status: ('A' for Active; 'I' for Inactive)
REMARK    1  A    between atoms: N1_2  and  C3_4 
REMARK    2  A    between atoms: C3_4  and  C4_5 
REMARK    3  A    between atoms: C4_5  and  C5_6 
REMARK    4  A    between atoms: C5_6  and  N2_7 
REMARK    5  A    between atoms: C6_8  and  N3_9 
ROOT
HETATM    1  N2  UNL     1      -2.505   0.232  31.095  1.00  0.00    -0.319 N 
HETATM    2  C6  UNL     1      -1.945  -0.720  31.832  1.00  0.00     0.102 A 
HETATM    3  C7  UNL     1      -2.138  -0.804  33.210  1.00  0.00     0.049 A 
HETATM    4  C8  UNL     1      -2.937   0.128  33.829  1.00  0.00     0.021 A 
HETATM    5  C9  UNL     1      -3.529   1.119  33.100  1.00  0.00     0.035 A 
HETATM    6  C10 UNL     1      -4.326   2.046  33.746  1.00  0.00     0.041 A 
HETATM    7  N4  UNL     1      -4.569   2.059  34.999  1.00  0.00    -0.398 N 
ATOM      8  H41 UNL     1      -5.157   2.742  35.476  1.00  0.00     0.156 HD
ATOM      9  H42 UNL     1      -4.146   1.332  35.577  1.00  0.00     0.156 HD
HETATM   10  C11 UNL     1      -4.908   3.044  32.953  1.00  0.00     0.047 A 
HETATM   11  C12 UNL     1      -4.674   3.067  31.606  1.00  0.00     0.092 A 
HETATM   12  N5  UNL     1      -3.874   2.124  31.015  1.00  0.00    -0.351 N 
ATOM     13  H5  UNL     1      -3.717   2.168  30.008  1.00  0.00     0.166 HD
HETATM   14  C13 UNL     1      -3.294   1.148  31.723  1.00  0.00     0.121 A 
ENDROOT
BRANCH   1  15
HETATM   15  C5  UNL     1      -2.277   0.344  29.696  1.00  0.00     0.134 C 
BRANCH  15  16
HETATM   16  C4  UNL     1      -3.364  -0.181  28.808  1.00  0.00     0.050 C 
BRANCH  16  17
HETATM   17  C3  UNL     1      -2.940  -0.538  27.423  1.00  0.00     0.273 C 
BRANCH  17  18
HETATM   18  N1  UNL     1      -4.066  -0.655  26.511  1.00  0.00     0.080 N 
HETATM   19  C1  UNL     1      -5.140   0.155  27.056  1.00  0.00     0.309 C 
HETATM   20  C2  UNL     1      -3.717  -0.089  25.220  1.00  0.00     0.309 C 
ENDBRANCH  17  18
ENDBRANCH  16  17
ENDBRANCH  15  16
ENDBRANCH   1  15
BRANCH   2  21
HETATM   21  N3  UNL     1      -1.224  -1.642  31.344  1.00  0.00    -0.385 N 
ATOM     22  H32 UNL     1      -0.228  -1.428  31.315  1.00  0.00     0.157 HD
ATOM     23  H31 UNL     1      -1.599  -2.537  31.030  1.00  0.00     0.157 HD
ENDBRANCH   2  21
TORSDOF 5
ENDMDL
