MODEL 1
REMARK VINA RESULT: -8.638406427      0.000      0.000
REMARK  17 active torsions:
REMARK  status: ('A' for Active; 'I' for Inactive)
REMARK    1  A    between atoms: O1_2  and  C2_3 
REMARK    2  A    between atoms: C2_3  and  C3_4 
REMARK    3  A    between atoms: C3_4  and  N1_5 
REMARK       I    between atoms: N1_5  and  C5_7 
REMARK    4  A    between atoms: C5_7  and  C6_9 
REMARK    5  A    between atoms: C6_9  and  C7_10 
REMARK    6  A    between atoms: C7_10  and  C8_11 
REMARK    7  A    between atoms: C8_11  and  O3_12 
REMARK    8  A    between atoms: C8_11  and  C9_14 
REMARK    9  A    between atoms: C10_15  and  C11_16 
REMARK   10  A    between atoms: N2_24  and  C18_25 
REMARK   11  A    between atoms: C18_25  and  O4_26 
REMARK   12  A    between atoms: C18_25  and  C19_28 
REMARK   13  A    between atoms: C19_28  and  N3_29 
REMARK   14  A    between atoms: C19_28  and  C26_42 
REMARK       I    between atoms: N3_29  and  C20_31 
REMARK       I    between atoms: C20_31  and  N4_33 
REMARK       I    between atoms: N4_33  and  C21_35 
REMARK   15  A    between atoms: C21_35  and  O7_37 
REMARK   16  A    between atoms: O7_37  and  C22_38 
REMARK   17  A    between atoms: C22_38  and  C23_39 
ROOT
HETATM    1  C11 UNL     1      11.127  19.369  16.118  1.00  0.00     0.123 C 
HETATM    2  C12 UNL     1      10.529  18.693  14.951  1.00  0.00     0.082 C 
HETATM    3  S1  UNL     1       8.747  18.393  14.959  1.00  0.00    -0.152 SA
HETATM    4  C13 UNL     1       9.489  16.804  15.523  1.00  0.00     0.007 C 
HETATM    5  C14 UNL     1       9.169  16.640  16.962  1.00  0.00     0.027 C 
HETATM    6  C15 UNL     1       8.888  15.616  14.748  1.00  0.00     0.027 C 
HETATM    7  C16 UNL     1      10.818  17.222  15.065  1.00  0.00     0.037 C 
HETATM    8  C17 UNL     1      11.996  17.235  16.003  1.00  0.00     0.133 C 
HETATM    9  N2  UNL     1      11.913  18.352  16.875  1.00  0.00    -0.354 N 
ENDROOT
BRANCH   9  10
HETATM   10  C18 UNL     1      12.437  18.576  18.139  1.00  0.00     0.138 C 
BRANCH  10  11
HETATM   11  O4  UNL     1      13.370  17.663  18.430  1.00  0.00    -0.348 OA
ATOM     12  H4  UNL     1      14.238  18.006  18.256  1.00  0.00     0.219 HD
ENDBRANCH  10  11
BRANCH  10  13
HETATM   13  C19 UNL     1      12.225  19.521  19.205  1.00  0.00     0.168 C 
BRANCH  13  14
HETATM   14  N3  UNL     1      12.832  20.855  18.806  1.00  0.00    -0.330 N 
HETATM   15  C20 UNL     1      14.228  21.023  18.703  1.00  0.00     0.325 C 
HETATM   16  O5  UNL     1      14.905  19.957  18.955  1.00  0.00    -0.247 OA
HETATM   17  N4  UNL     1      14.920  22.189  18.369  1.00  0.00    -0.255 N 
HETATM   18  C21 UNL     1      14.390  23.460  18.079  1.00  0.00     0.368 C 
ATOM     19  H4  UNL     1      15.936  22.109  18.329  1.00  0.00     0.175 HD
HETATM   20  O6  UNL     1      13.174  23.696  18.076  1.00  0.00    -0.238 OA
ATOM     21  H3  UNL     1      12.218  21.645  18.609  1.00  0.00     0.165 HD
BRANCH  18  22
HETATM   22  O7  UNL     1      15.236  24.522  17.781  1.00  0.00    -0.303 OA
BRANCH  22  23
HETATM   23  C22 UNL     1      15.299  25.679  18.569  1.00  0.00     0.184 C 
BRANCH  23  24
HETATM   24  C23 UNL     1      16.606  25.733  19.319  1.00  0.00     0.002 C 
HETATM   25  C24 UNL     1      17.659  24.958  18.533  1.00  0.00     0.011 C 
HETATM   26  C25 UNL     1      16.423  25.018  20.650  1.00  0.00     0.011 C 
ENDBRANCH  23  24
ENDBRANCH  22  23
ENDBRANCH  18  22
ENDBRANCH  13  14
BRANCH  13  27
HETATM   27  C26 UNL     1      10.862  19.860  19.688  1.00  0.00    -0.023 C 
HETATM   28  C27 UNL     1       9.709  19.853  18.787  1.00  0.00     0.017 C 
HETATM   29  C28 UNL     1      10.494  18.963  20.901  1.00  0.00     0.017 C 
HETATM   30  C29 UNL     1      10.873  21.283  20.330  1.00  0.00     0.017 C 
ENDBRANCH  13  27
ENDBRANCH  10  13
ENDBRANCH   9  10
BRANCH   1  31
HETATM   31  C10 UNL     1      12.021  20.499  15.760  1.00  0.00    -0.002 C 
HETATM   32  C9  UNL     1      13.058  20.430  14.922  1.00  0.00     0.003 C 
BRANCH  32  33
HETATM   33  C8  UNL     1      13.895  21.601  14.621  1.00  0.00     0.141 C 
BRANCH  33  34
HETATM   34  C7  UNL     1      15.334  21.477  14.888  1.00  0.00     0.045 C 
BRANCH  34  35
HETATM   35  C6  UNL     1      16.226  22.641  14.764  1.00  0.00     0.106 C 
BRANCH  35  36
HETATM   36  C5  UNL     1      17.293  22.662  13.790  1.00  0.00     0.219 C 
HETATM   37  N1  UNL     1      17.310  23.618  12.730  1.00  0.00    -0.354 N 
HETATM   38  C4  UNL     1      18.415  23.550  11.768  1.00  0.00     0.152 C 
HETATM   39  O2  UNL     1      18.250  21.850  13.832  1.00  0.00    -0.273 OA
BRANCH  37  40
HETATM   40  C3  UNL     1      16.326  24.644  12.522  1.00  0.00     0.151 C 
BRANCH  40  41
HETATM   41  C2  UNL     1      16.966  25.950  12.065  1.00  0.00     0.186 C 
BRANCH  41  42
HETATM   42  O1  UNL     1      15.948  26.819  11.691  1.00  0.00    -0.394 OA
HETATM   43  C1  UNL     1      16.344  27.425  10.480  1.00  0.00     0.201 C 
ENDBRANCH  41  42
ENDBRANCH  40  41
ENDBRANCH  37  40
ENDBRANCH  35  36
ENDBRANCH  34  35
ENDBRANCH  33  34
BRANCH  33  44
HETATM   44  O3  UNL     1      13.753  21.992  13.267  1.00  0.00    -0.392 OA
ATOM     45  H3  UNL     1      12.850  21.828  13.019  1.00  0.00     0.210 HD
ENDBRANCH  33  44
ENDBRANCH  32  33
ENDBRANCH   1  31
TORSDOF 17
ENDMDL
MODEL 2
REMARK VINA RESULT: -8.540885062      2.904      6.305
REMARK  17 active torsions:
REMARK  status: ('A' for Active; 'I' for Inactive)
REMARK    1  A    between atoms: O1_2  and  C2_3 
REMARK    2  A    between atoms: C2_3  and  C3_4 
REMARK    3  A    between atoms: C3_4  and  N1_5 
REMARK       I    between atoms: N1_5  and  C5_7 
REMARK    4  A    between atoms: C5_7  and  C6_9 
REMARK    5  A    between atoms: C6_9  and  C7_10 
REMARK    6  A    between atoms: C7_10  and  C8_11 
REMARK    7  A    between atoms: C8_11  and  O3_12 
REMARK    8  A    between atoms: C8_11  and  C9_14 
REMARK    9  A    between atoms: C10_15  and  C11_16 
REMARK   10  A    between atoms: N2_24  and  C18_25 
REMARK   11  A    between atoms: C18_25  and  O4_26 
REMARK   12  A    between atoms: C18_25  and  C19_28 
REMARK   13  A    between atoms: C19_28  and  N3_29 
REMARK   14  A    between atoms: C19_28  and  C26_42 
REMARK       I    between atoms: N3_29  and  C20_31 
REMARK       I    between atoms: C20_31  and  N4_33 
REMARK       I    between atoms: N4_33  and  C21_35 
REMARK   15  A    between atoms: C21_35  and  O7_37 
REMARK   16  A    between atoms: O7_37  and  C22_38 
REMARK   17  A    between atoms: C22_38  and  C23_39 
ROOT
HETATM    1  C11 UNL     1       9.122  17.937  20.253  1.00  0.00     0.123 C 
HETATM    2  C12 UNL     1       8.195  18.152  21.380  1.00  0.00     0.082 C 
HETATM    3  S1  UNL     1       7.802  16.744  22.441  1.00  0.00    -0.152 SA
HETATM    4  C13 UNL     1       6.401  16.831  21.248  1.00  0.00     0.007 C 
HETATM    5  C14 UNL     1       6.510  15.664  20.336  1.00  0.00     0.027 C 
HETATM    6  C15 UNL     1       5.051  16.754  21.984  1.00  0.00     0.027 C 
HETATM    7  C16 UNL     1       6.795  18.181  20.832  1.00  0.00     0.037 C 
HETATM    8  C17 UNL     1       7.061  18.504  19.386  1.00  0.00     0.133 C 
HETATM    9  N2  UNL     1       8.323  17.985  18.995  1.00  0.00    -0.354 N 
ENDROOT
BRANCH   9  10
HETATM   10  C18 UNL     1       8.824  17.614  17.756  1.00  0.00     0.138 C 
BRANCH  10  11
HETATM   11  O4  UNL     1       9.290  16.361  17.793  1.00  0.00    -0.348 OA
ATOM     12  H4  UNL     1       9.607  16.148  18.662  1.00  0.00     0.219 HD
ENDBRANCH  10  11
BRANCH  10  13
HETATM   13  C19 UNL     1       8.978  18.233  16.464  1.00  0.00     0.168 C 
BRANCH  13  14
HETATM   14  N3  UNL     1      10.437  18.611  16.271  1.00  0.00    -0.330 N 
HETATM   15  C20 UNL     1      10.854  19.958  16.290  1.00  0.00     0.325 C 
HETATM   16  O5  UNL     1       9.902  20.799  16.501  1.00  0.00    -0.247 OA
HETATM   17  N4  UNL     1      12.148  20.447  16.109  1.00  0.00    -0.255 N 
HETATM   18  C21 UNL     1      13.324  19.719  15.846  1.00  0.00     0.368 C 
ATOM     19  H4  UNL     1      12.256  21.459  16.174  1.00  0.00     0.175 HD
HETATM   20  O6  UNL     1      13.342  18.483  15.756  1.00  0.00    -0.238 OA
ATOM     21  H3  UNL     1      11.128  17.876  16.125  1.00  0.00     0.165 HD
BRANCH  18  22
HETATM   22  O7  UNL     1      14.535  20.378  15.675  1.00  0.00    -0.303 OA
BRANCH  22  23
HETATM   23  C22 UNL     1      15.043  20.702  14.409  1.00  0.00     0.184 C 
BRANCH  23  24
HETATM   24  C23 UNL     1      14.232  21.809  13.785  1.00  0.00     0.002 C 
HETATM   25  C24 UNL     1      13.546  21.274  12.532  1.00  0.00     0.011 C 
HETATM   26  C25 UNL     1      15.186  22.907  13.340  1.00  0.00     0.011 C 
ENDBRANCH  23  24
ENDBRANCH  22  23
ENDBRANCH  18  22
ENDBRANCH  13  14
BRANCH  13  27
HETATM   27  C26 UNL     1       8.605  17.529  15.211  1.00  0.00    -0.023 C 
HETATM   28  C27 UNL     1       9.601  16.815  14.411  1.00  0.00     0.017 C 
HETATM   29  C28 UNL     1       7.450  16.529  15.492  1.00  0.00     0.017 C 
HETATM   30  C29 UNL     1       7.931  18.534  14.226  1.00  0.00     0.017 C 
ENDBRANCH  13  27
ENDBRANCH  10  13
ENDBRANCH   9  10
BRANCH   1  31
HETATM   31  C10 UNL     1      10.207  18.948  20.172  1.00  0.00    -0.002 C 
HETATM   32  C9  UNL     1      10.040  20.241  19.884  1.00  0.00     0.003 C 
BRANCH  32  33
HETATM   33  C8  UNL     1      11.172  21.178  19.825  1.00  0.00     0.141 C 
BRANCH  33  34
HETATM   34  C7  UNL     1      12.473  20.626  19.421  1.00  0.00     0.045 C 
BRANCH  34  35
HETATM   35  C6  UNL     1      13.687  21.454  19.463  1.00  0.00     0.106 C 
BRANCH  35  36
HETATM   36  C5  UNL     1      13.790  22.669  18.687  1.00  0.00     0.219 C 
HETATM   37  N1  UNL     1      14.567  23.776  19.143  1.00  0.00    -0.354 N 
HETATM   38  C4  UNL     1      14.592  24.981  18.306  1.00  0.00     0.152 C 
HETATM   39  O2  UNL     1      13.208  22.805  17.583  1.00  0.00    -0.273 OA
BRANCH  37  40
HETATM   40  C3  UNL     1      15.327  23.811  20.361  1.00  0.00     0.151 C 
BRANCH  40  41
HETATM   41  C2  UNL     1      16.264  25.012  20.403  1.00  0.00     0.186 C 
BRANCH  41  42
HETATM   42  O1  UNL     1      17.569  24.542  20.323  1.00  0.00    -0.394 OA
HETATM   43  C1  UNL     1      18.070  24.920  19.060  1.00  0.00     0.201 C 
ENDBRANCH  41  42
ENDBRANCH  40  41
ENDBRANCH  37  40
ENDBRANCH  35  36
ENDBRANCH  34  35
ENDBRANCH  33  34
BRANCH  33  44
HETATM   44  O3  UNL     1      10.890  22.261  18.957  1.00  0.00    -0.392 OA
ATOM     45  H3  UNL     1      10.003  22.547  19.143  1.00  0.00     0.210 HD
ENDBRANCH  33  44
ENDBRANCH  32  33
ENDBRANCH   1  31
TORSDOF 17
ENDMDL
MODEL 3
REMARK VINA RESULT: -8.400000704      5.151     11.296
REMARK  17 active torsions:
REMARK  status: ('A' for Active; 'I' for Inactive)
REMARK    1  A    between atoms: O1_2  and  C2_3 
REMARK    2  A    between atoms: C2_3  and  C3_4 
REMARK    3  A    between atoms: C3_4  and  N1_5 
REMARK       I    between atoms: N1_5  and  C5_7 
REMARK    4  A    between atoms: C5_7  and  C6_9 
REMARK    5  A    between atoms: C6_9  and  C7_10 
REMARK    6  A    between atoms: C7_10  and  C8_11 
REMARK    7  A    between atoms: C8_11  and  O3_12 
REMARK    8  A    between atoms: C8_11  and  C9_14 
REMARK    9  A    between atoms: C10_15  and  C11_16 
REMARK   10  A    between atoms: N2_24  and  C18_25 
REMARK   11  A    between atoms: C18_25  and  O4_26 
REMARK   12  A    between atoms: C18_25  and  C19_28 
REMARK   13  A    between atoms: C19_28  and  N3_29 
REMARK   14  A    between atoms: C19_28  and  C26_42 
REMARK       I    between atoms: N3_29  and  C20_31 
REMARK       I    between atoms: C20_31  and  N4_33 
REMARK       I    between atoms: N4_33  and  C21_35 
REMARK   15  A    between atoms: C21_35  and  O7_37 
REMARK   16  A    between atoms: O7_37  and  C22_38 
REMARK   17  A    between atoms: C22_38  and  C23_39 
ROOT
HETATM    1  C11 UNL     1      11.062  19.841  18.137  1.00  0.00     0.123 C 
HETATM    2  C12 UNL     1      12.492  20.199  18.178  1.00  0.00     0.082 C 
HETATM    3  S1  UNL     1      13.059  21.566  17.142  1.00  0.00    -0.152 SA
HETATM    4  C13 UNL     1      13.446  20.053  16.166  1.00  0.00     0.007 C 
HETATM    5  C14 UNL     1      12.525  20.016  15.003  1.00  0.00     0.027 C 
HETATM    6  C15 UNL     1      14.895  20.095  15.644  1.00  0.00     0.027 C 
HETATM    7  C16 UNL     1      13.245  19.201  17.343  1.00  0.00     0.037 C 
HETATM    8  C17 UNL     1      12.269  18.056  17.318  1.00  0.00     0.133 C 
HETATM    9  N2  UNL     1      10.940  18.545  17.411  1.00  0.00    -0.354 N 
ENDROOT
BRANCH   9  10
HETATM   10  C18 UNL     1       9.730  18.010  16.997  1.00  0.00     0.138 C 
BRANCH  10  11
HETATM   11  O4  UNL     1       8.734  18.876  17.213  1.00  0.00    -0.348 OA
ATOM     12  H4  UNL     1       7.894  18.434  17.181  1.00  0.00     0.219 HD
ENDBRANCH  10  11
BRANCH  10  13
HETATM   13  C19 UNL     1       9.280  16.772  16.415  1.00  0.00     0.168 C 
BRANCH  13  14
HETATM   14  N3  UNL     1       7.781  16.646  16.625  1.00  0.00    -0.330 N 
HETATM   15  C20 UNL     1       7.248  15.798  17.618  1.00  0.00     0.325 C 
HETATM   16  O5  UNL     1       8.139  15.181  18.314  1.00  0.00    -0.247 OA
HETATM   17  N4  UNL     1       5.902  15.572  17.907  1.00  0.00    -0.255 N 
HETATM   18  C21 UNL     1       4.773  16.116  17.267  1.00  0.00     0.368 C 
ATOM     19  H4  UNL     1       5.712  14.932  18.679  1.00  0.00     0.175 HD
HETATM   20  O6  UNL     1       4.855  16.917  16.326  1.00  0.00    -0.238 OA
ATOM     21  H3  UNL     1       7.146  17.185  16.036  1.00  0.00     0.165 HD
BRANCH  18  22
HETATM   22  O7  UNL     1       3.494  15.763  17.680  1.00  0.00    -0.303 OA
BRANCH  22  23
HETATM   23  C22 UNL     1       2.348  16.448  17.251  1.00  0.00     0.184 C 
BRANCH  23  24
HETATM   24  C23 UNL     1       1.879  17.404  18.318  1.00  0.00     0.002 C 
HETATM   25  C24 UNL     1       0.366  17.566  18.207  1.00  0.00     0.011 C 
HETATM   26  C25 UNL     1       2.498  18.767  18.043  1.00  0.00     0.011 C 
ENDBRANCH  23  24
ENDBRANCH  22  23
ENDBRANCH  18  22
ENDBRANCH  13  14
BRANCH  13  27
HETATM   27  C26 UNL     1       9.483  16.466  14.976  1.00  0.00    -0.023 C 
HETATM   28  C27 UNL     1      10.779  16.668  14.327  1.00  0.00     0.017 C 
HETATM   29  C28 UNL     1       9.053  15.003  14.681  1.00  0.00     0.017 C 
HETATM   30  C29 UNL     1       8.463  17.281  14.119  1.00  0.00     0.017 C 
ENDBRANCH  13  27
ENDBRANCH  10  13
ENDBRANCH   9  10
BRANCH   1  31
HETATM   31  C10 UNL     1      10.443  19.700  19.479  1.00  0.00    -0.002 C 
HETATM   32  C9  UNL     1       9.463  20.466  19.965  1.00  0.00     0.003 C 
BRANCH  32  33
HETATM   33  C8  UNL     1       8.904  20.257  21.309  1.00  0.00     0.141 C 
BRANCH  33  34
HETATM   34  C7  UNL     1       8.939  18.887  21.839  1.00  0.00     0.045 C 
BRANCH  34  35
HETATM   35  C6  UNL     1       8.367  17.769  21.073  1.00  0.00     0.106 C 
BRANCH  35  36
HETATM   36  C5  UNL     1       6.983  17.780  20.657  1.00  0.00     0.219 C 
HETATM   37  N1  UNL     1       5.965  17.178  21.456  1.00  0.00    -0.354 N 
HETATM   38  C4  UNL     1       4.590  17.208  20.944  1.00  0.00     0.152 C 
HETATM   39  O2  UNL     1       6.614  18.317  19.584  1.00  0.00    -0.273 OA
BRANCH  37  40
HETATM   40  C3  UNL     1       6.175  16.537  22.724  1.00  0.00     0.151 C 
BRANCH  40  41
HETATM   41  C2  UNL     1       5.150  16.987  23.757  1.00  0.00     0.186 C 
BRANCH  41  42
HETATM   42  O1  UNL     1       4.836  15.895  24.556  1.00  0.00    -0.394 OA
HETATM   43  C1  UNL     1       5.988  15.586  25.309  1.00  0.00     0.201 C 
ENDBRANCH  41  42
ENDBRANCH  40  41
ENDBRANCH  37  40
ENDBRANCH  35  36
ENDBRANCH  34  35
ENDBRANCH  33  34
BRANCH  33  44
HETATM   44  O3  UNL     1       9.544  21.090  22.260  1.00  0.00    -0.392 OA
ATOM     45  H3  UNL     1       8.874  21.397  22.860  1.00  0.00     0.210 HD
ENDBRANCH  33  44
ENDBRANCH  32  33
ENDBRANCH   1  31
TORSDOF 17
ENDMDL
MODEL 4
REMARK VINA RESULT: -8.396231885      1.858      3.075
REMARK  17 active torsions:
REMARK  status: ('A' for Active; 'I' for Inactive)
REMARK    1  A    between atoms: O1_2  and  C2_3 
REMARK    2  A    between atoms: C2_3  and  C3_4 
REMARK    3  A    between atoms: C3_4  and  N1_5 
REMARK       I    between atoms: N1_5  and  C5_7 
REMARK    4  A    between atoms: C5_7  and  C6_9 
REMARK    5  A    between atoms: C6_9  and  C7_10 
REMARK    6  A    between atoms: C7_10  and  C8_11 
REMARK    7  A    between atoms: C8_11  and  O3_12 
REMARK    8  A    between atoms: C8_11  and  C9_14 
REMARK    9  A    between atoms: C10_15  and  C11_16 
REMARK   10  A    between atoms: N2_24  and  C18_25 
REMARK   11  A    between atoms: C18_25  and  O4_26 
REMARK   12  A    between atoms: C18_25  and  C19_28 
REMARK   13  A    between atoms: C19_28  and  N3_29 
REMARK   14  A    between atoms: C19_28  and  C26_42 
REMARK       I    between atoms: N3_29  and  C20_31 
REMARK       I    between atoms: C20_31  and  N4_33 
REMARK       I    between atoms: N4_33  and  C21_35 
REMARK   15  A    between atoms: C21_35  and  O7_37 
REMARK   16  A    between atoms: O7_37  and  C22_38 
REMARK   17  A    between atoms: C22_38  and  C23_39 
ROOT
HETATM    1  C11 UNL     1       9.633  17.398  15.517  1.00  0.00     0.123 C 
HETATM    2  C12 UNL     1       9.298  16.075  14.957  1.00  0.00     0.082 C 
HETATM    3  S1  UNL     1       7.835  15.939  13.906  1.00  0.00    -0.152 SA
HETATM    4  C13 UNL     1       7.262  15.400  15.572  1.00  0.00     0.007 C 
HETATM    5  C14 UNL     1       6.354  16.448  16.100  1.00  0.00     0.027 C 
HETATM    6  C15 UNL     1       6.482  14.075  15.478  1.00  0.00     0.027 C 
HETATM    7  C16 UNL     1       8.645  15.263  16.040  1.00  0.00     0.037 C 
HETATM    8  C17 UNL     1       9.126  15.986  17.269  1.00  0.00     0.133 C 
HETATM    9  N2  UNL     1       9.332  17.360  16.978  1.00  0.00    -0.354 N 
ENDROOT
BRANCH   9  10
HETATM   10  C18 UNL     1       9.323  18.486  17.787  1.00  0.00     0.138 C 
BRANCH  10  11
HETATM   11  O4  UNL     1       8.618  19.469  17.217  1.00  0.00    -0.348 OA
ATOM     12  H4  UNL     1       8.770  20.292  17.665  1.00  0.00     0.219 HD
ENDBRANCH  10  11
BRANCH  10  13
HETATM   13  C19 UNL     1       9.882  18.861  19.059  1.00  0.00     0.168 C 
BRANCH  13  14
HETATM   14  N3  UNL     1      10.896  19.972  18.842  1.00  0.00    -0.330 N 
HETATM   15  C20 UNL     1      12.269  19.692  18.691  1.00  0.00     0.325 C 
HETATM   16  O5  UNL     1      12.557  18.437  18.737  1.00  0.00    -0.247 OA
HETATM   17  N4  UNL     1      13.306  20.607  18.506  1.00  0.00    -0.255 N 
HETATM   18  C21 UNL     1      13.226  22.011  18.447  1.00  0.00     0.368 C 
ATOM     19  H4  UNL     1      14.240  20.210  18.399  1.00  0.00     0.175 HD
HETATM   20  O6  UNL     1      12.156  22.627  18.547  1.00  0.00    -0.238 OA
ATOM     21  H3  UNL     1      10.577  20.940  18.804  1.00  0.00     0.165 HD
BRANCH  18  22
HETATM   22  O7  UNL     1      14.374  22.774  18.273  1.00  0.00    -0.303 OA
BRANCH  22  23
HETATM   23  C22 UNL     1      15.205  23.139  19.341  1.00  0.00     0.184 C 
BRANCH  23  24
HETATM   24  C23 UNL     1      14.954  24.573  19.734  1.00  0.00     0.002 C 
HETATM   25  C24 UNL     1      14.673  25.388  18.475  1.00  0.00     0.011 C 
HETATM   26  C25 UNL     1      16.229  25.129  20.352  1.00  0.00     0.011 C 
ENDBRANCH  23  24
ENDBRANCH  22  23
ENDBRANCH  18  22
ENDBRANCH  13  14
BRANCH  13  27
HETATM   27  C26 UNL     1       9.031  19.346  20.175  1.00  0.00    -0.023 C 
HETATM   28  C27 UNL     1       7.590  19.092  20.202  1.00  0.00     0.017 C 
HETATM   29  C28 UNL     1       9.603  18.849  21.530  1.00  0.00     0.017 C 
HETATM   30  C29 UNL     1       9.177  20.895  20.311  1.00  0.00     0.017 C 
ENDBRANCH  13  27
ENDBRANCH  10  13
ENDBRANCH   9  10
BRANCH   1  31
HETATM   31  C10 UNL     1      11.054  17.784  15.330  1.00  0.00    -0.002 C 
HETATM   32  C9  UNL     1      11.507  19.034  15.205  1.00  0.00     0.003 C 
BRANCH  32  33
HETATM   33  C8  UNL     1      12.935  19.330  15.022  1.00  0.00     0.141 C 
BRANCH  33  34
HETATM   34  C7  UNL     1      13.318  20.747  14.955  1.00  0.00     0.045 C 
BRANCH  34  35
HETATM   35  C6  UNL     1      14.734  21.146  14.958  1.00  0.00     0.106 C 
BRANCH  35  36
HETATM   36  C5  UNL     1      15.231  22.142  14.036  1.00  0.00     0.219 C 
HETATM   37  N1  UNL     1      16.561  22.648  14.138  1.00  0.00    -0.354 N 
HETATM   38  C4  UNL     1      16.974  23.679  13.180  1.00  0.00     0.152 C 
HETATM   39  O2  UNL     1      14.522  22.602  13.107  1.00  0.00    -0.273 OA
BRANCH  37  40
HETATM   40  C3  UNL     1      17.535  22.234  15.110  1.00  0.00     0.151 C 
BRANCH  40  41
HETATM   41  C2  UNL     1      17.470  23.090  16.369  1.00  0.00     0.186 C 
BRANCH  41  42
HETATM   42  O1  UNL     1      18.525  23.993  16.330  1.00  0.00    -0.394 OA
HETATM   43  C1  UNL     1      18.065  25.195  16.907  1.00  0.00     0.201 C 
ENDBRANCH  41  42
ENDBRANCH  40  41
ENDBRANCH  37  40
ENDBRANCH  35  36
ENDBRANCH  34  35
ENDBRANCH  33  34
BRANCH  33  44
HETATM   44  O3  UNL     1      13.712  18.735  16.046  1.00  0.00    -0.392 OA
ATOM     45  H3  UNL     1      14.049  19.439  16.589  1.00  0.00     0.210 HD
ENDBRANCH  33  44
ENDBRANCH  32  33
ENDBRANCH   1  31
TORSDOF 17
ENDMDL
MODEL 5
REMARK VINA RESULT: -8.230295178      5.610     11.845
REMARK  17 active torsions:
REMARK  status: ('A' for Active; 'I' for Inactive)
REMARK    1  A    between atoms: O1_2  and  C2_3 
REMARK    2  A    between atoms: C2_3  and  C3_4 
REMARK    3  A    between atoms: C3_4  and  N1_5 
REMARK       I    between atoms: N1_5  and  C5_7 
REMARK    4  A    between atoms: C5_7  and  C6_9 
REMARK    5  A    between atoms: C6_9  and  C7_10 
REMARK    6  A    between atoms: C7_10  and  C8_11 
REMARK    7  A    between atoms: C8_11  and  O3_12 
REMARK    8  A    between atoms: C8_11  and  C9_14 
REMARK    9  A    between atoms: C10_15  and  C11_16 
REMARK   10  A    between atoms: N2_24  and  C18_25 
REMARK   11  A    between atoms: C18_25  and  O4_26 
REMARK   12  A    between atoms: C18_25  and  C19_28 
REMARK   13  A    between atoms: C19_28  and  N3_29 
REMARK   14  A    between atoms: C19_28  and  C26_42 
REMARK       I    between atoms: N3_29  and  C20_31 
REMARK       I    between atoms: C20_31  and  N4_33 
REMARK       I    between atoms: N4_33  and  C21_35 
REMARK   15  A    between atoms: C21_35  and  O7_37 
REMARK   16  A    between atoms: O7_37  and  C22_38 
REMARK   17  A    between atoms: C22_38  and  C23_39 
ROOT
HETATM    1  C11 UNL     1       9.565  18.959  19.344  1.00  0.00     0.123 C 
HETATM    2  C12 UNL     1      10.643  19.591  20.127  1.00  0.00     0.082 C 
HETATM    3  S1  UNL     1      10.593  21.382  20.355  1.00  0.00    -0.152 SA
HETATM    4  C13 UNL     1      11.746  21.126  18.941  1.00  0.00     0.007 C 
HETATM    5  C14 UNL     1      11.072  21.616  17.713  1.00  0.00     0.027 C 
HETATM    6  C15 UNL     1      13.045  21.929  19.142  1.00  0.00     0.027 C 
HETATM    7  C16 UNL     1      11.857  19.696  19.247  1.00  0.00     0.037 C 
HETATM    8  C17 UNL     1      11.549  18.651  18.209  1.00  0.00     0.133 C 
HETATM    9  N2  UNL     1      10.145  18.533  18.038  1.00  0.00    -0.354 N 
ENDROOT
BRANCH   9  10
HETATM   10  C18 UNL     1       9.380  18.095  16.967  1.00  0.00     0.138 C 
BRANCH  10  11
HETATM   11  O4  UNL     1       8.877  19.135  16.293  1.00  0.00    -0.348 OA
ATOM     12  H4  UNL     1       9.512  19.839  16.243  1.00  0.00     0.219 HD
ENDBRANCH  10  11
BRANCH  10  13
HETATM   13  C19 UNL     1       8.987  16.824  16.415  1.00  0.00     0.168 C 
BRANCH  13  14
HETATM   14  N3  UNL     1       7.484  16.667  16.565  1.00  0.00    -0.330 N 
HETATM   15  C20 UNL     1       6.930  15.792  17.522  1.00  0.00     0.325 C 
HETATM   16  O5  UNL     1       7.806  15.178  18.240  1.00  0.00    -0.247 OA
HETATM   17  N4  UNL     1       5.578  15.535  17.755  1.00  0.00    -0.255 N 
HETATM   18  C21 UNL     1       4.464  16.070  17.082  1.00  0.00     0.368 C 
ATOM     19  H4  UNL     1       5.371  14.878  18.507  1.00  0.00     0.175 HD
HETATM   20  O6  UNL     1       4.567  16.890  16.159  1.00  0.00    -0.238 OA
ATOM     21  H3  UNL     1       6.862  17.205  15.962  1.00  0.00     0.165 HD
BRANCH  18  22
HETATM   22  O7  UNL     1       3.177  15.686  17.439  1.00  0.00    -0.303 OA
BRANCH  22  23
HETATM   23  C22 UNL     1       2.767  14.345  17.449  1.00  0.00     0.184 C 
BRANCH  23  24
HETATM   24  C23 UNL     1       2.818  13.770  16.056  1.00  0.00     0.002 C 
HETATM   25  C24 UNL     1       1.410  13.357  15.640  1.00  0.00     0.011 C 
HETATM   26  C25 UNL     1       3.665  12.506  16.092  1.00  0.00     0.011 C 
ENDBRANCH  23  24
ENDBRANCH  22  23
ENDBRANCH  18  22
ENDBRANCH  13  14
BRANCH  13  27
HETATM   27  C26 UNL     1       9.260  16.470  14.999  1.00  0.00    -0.023 C 
HETATM   28  C27 UNL     1      10.542  16.784  14.367  1.00  0.00     0.017 C 
HETATM   29  C28 UNL     1       9.005  14.954  14.776  1.00  0.00     0.017 C 
HETATM   30  C29 UNL     1       8.179  17.118  14.079  1.00  0.00     0.017 C 
ENDBRANCH  13  27
ENDBRANCH  10  13
ENDBRANCH   9  10
BRANCH   1  31
HETATM   31  C10 UNL     1       8.959  17.777  20.008  1.00  0.00    -0.002 C 
HETATM   32  C9  UNL     1       8.412  17.770  21.227  1.00  0.00     0.003 C 
BRANCH  32  33
HETATM   33  C8  UNL     1       7.830  16.553  21.812  1.00  0.00     0.141 C 
BRANCH  33  34
HETATM   34  C7  UNL     1       6.365  16.496  21.910  1.00  0.00     0.045 C 
BRANCH  34  35
HETATM   35  C6  UNL     1       5.519  17.323  21.036  1.00  0.00     0.106 C 
BRANCH  35  36
HETATM   36  C5  UNL     1       4.093  17.105  20.954  1.00  0.00     0.219 C 
HETATM   37  N1  UNL     1       3.269  17.905  20.106  1.00  0.00    -0.354 N 
HETATM   38  C4  UNL     1       1.827  17.635  20.105  1.00  0.00     0.152 C 
HETATM   39  O2  UNL     1       3.517  16.207  21.615  1.00  0.00    -0.273 OA
BRANCH  37  40
HETATM   40  C3  UNL     1       3.735  18.962  19.252  1.00  0.00     0.151 C 
BRANCH  40  41
HETATM   41  C2  UNL     1       2.579  19.772  18.680  1.00  0.00     0.186 C 
BRANCH  41  42
HETATM   42  O1  UNL     1       2.861  21.119  18.873  1.00  0.00    -0.394 OA
HETATM   43  C1  UNL     1       2.131  21.538  20.005  1.00  0.00     0.201 C 
ENDBRANCH  41  42
ENDBRANCH  40  41
ENDBRANCH  37  40
ENDBRANCH  35  36
ENDBRANCH  34  35
ENDBRANCH  33  34
BRANCH  33  44
HETATM   44  O3  UNL     1       8.247  15.400  21.104  1.00  0.00    -0.392 OA
ATOM     45  H3  UNL     1       8.329  14.696  21.737  1.00  0.00     0.210 HD
ENDBRANCH  33  44
ENDBRANCH  32  33
ENDBRANCH   1  31
TORSDOF 17
ENDMDL
