MODEL 1
REMARK VINA RESULT: -8.788605719      0.000      0.000
REMARK  18 active torsions:
REMARK  status: ('A' for Active; 'I' for Inactive)
REMARK    1  A    between atoms: C2_2  and  C3_3 
REMARK    2  A    between atoms: C3_3  and  C4_4 
REMARK    3  A    between atoms: C4_4  and  O1_5 
REMARK    4  A    between atoms: O1_5  and  C5_6 
REMARK    5  A    between atoms: N2_9  and  C6_10 
REMARK    6  A    between atoms: C6_10  and  O2_11 
REMARK    7  A    between atoms: C6_10  and  C7_13 
REMARK    8  A    between atoms: C7_13  and  N3_14 
REMARK    9  A    between atoms: C7_13  and  C18_31 
REMARK   10  A    between atoms: N3_14  and  C8_16 
REMARK   11  A    between atoms: C8_16  and  O3_17 
REMARK   12  A    between atoms: C8_16  and  C9_19 
REMARK   13  A    between atoms: C9_19  and  O4_20 
REMARK   14  A    between atoms: C9_19  and  C10_22 
REMARK   15  A    between atoms: C10_22  and  C11_24 
REMARK   16  A    between atoms: C22_35  and  C23_36 
REMARK       I    between atoms: C23_36  and  N4_38 
REMARK   17  A    between atoms: N5_41  and  C26_42 
REMARK   18  A    between atoms: C26_42  and  C27_43 
ROOT
HETATM    1  C6  UNL     1      10.487  18.508  20.319  1.00  0.00     0.181 C 
ENDROOT
BRANCH   1   2
HETATM    2  N2  UNL     1      10.822  19.012  19.063  1.00  0.00    -0.253 N 
HETATM    3  N1  UNL     1      10.710  18.608  17.751  1.00  0.00    -0.278 N 
HETATM    4  C5  UNL     1      10.694  19.554  16.894  1.00  0.00     0.135 C 
ATOM      5  H1  UNL     1      10.645  17.625  17.483  1.00  0.00     0.189 HD
HETATM    6  C32 UNL     1      10.806  20.820  17.660  1.00  0.00     0.122 C 
HETATM    7  C22 UNL     1      11.493  20.351  18.930  1.00  0.00     0.210 C 
BRANCH   4   8
HETATM    8  O1  UNL     1      10.589  19.428  15.487  1.00  0.00    -0.338 OA
BRANCH   8   9
HETATM    9  C4  UNL     1      11.771  19.199  14.754  1.00  0.00     0.177 C 
BRANCH   9  10
HETATM   10  C3  UNL     1      12.681  20.409  14.744  1.00  0.00     0.026 C 
BRANCH  10  11
HETATM   11  C2  UNL     1      14.079  19.930  15.098  1.00  0.00    -0.002 C 
HETATM   12  C1  UNL     1      15.054  20.990  14.576  1.00  0.00     0.005 C 
ENDBRANCH  10  11
ENDBRANCH   9  10
ENDBRANCH   8   9
ENDBRANCH   4   8
BRANCH   7  13
HETATM   13  C23 UNL     1      12.932  20.173  18.626  1.00  0.00     0.245 C 
HETATM   14  O6  UNL     1      13.467  19.077  18.335  1.00  0.00    -0.271 OA
HETATM   15  N4  UNL     1      13.749  21.327  18.668  1.00  0.00    -0.347 N 
HETATM   16  C24 UNL     1      15.183  21.281  18.374  1.00  0.00     0.156 C 
HETATM   17  C31 UNL     1      13.243  22.655  19.016  1.00  0.00     0.156 C 
HETATM   18  C25 UNL     1      15.785  22.594  18.824  1.00  0.00     0.292 C 
HETATM   19  N5  UNL     1      15.195  23.740  18.209  1.00  0.00     0.091 N 
HETATM   20  C30 UNL     1      13.761  23.616  17.991  1.00  0.00     0.292 C 
BRANCH  19  21
HETATM   21  C26 UNL     1      15.400  24.961  18.929  1.00  0.00     0.276 C 
BRANCH  21  22
HETATM   22  C27 UNL     1      16.847  25.118  19.360  1.00  0.00     0.006 C 
HETATM   23  C28 UNL     1      16.827  25.545  20.817  1.00  0.00     0.011 C 
HETATM   24  C29 UNL     1      17.508  26.252  18.594  1.00  0.00     0.011 C 
ENDBRANCH  21  22
ENDBRANCH  19  21
ENDBRANCH   7  13
ENDBRANCH   1   2
BRANCH   1  25
HETATM   25  O2  UNL     1      11.546  18.242  21.050  1.00  0.00    -0.344 OA
ATOM     26  H2  UNL     1      11.324  18.062  21.956  1.00  0.00     0.219 HD
ENDBRANCH   1  25
BRANCH   1  27
HETATM   27  C7  UNL     1       9.180  18.240  20.922  1.00  0.00     0.067 C 
BRANCH  27  28
HETATM   28  N3  UNL     1       8.685  16.947  20.740  1.00  0.00    -0.361 N 
ATOM     29  H3  UNL     1       8.445  16.459  21.603  1.00  0.00     0.162 HD
BRANCH  28  30
HETATM   30  C8  UNL     1       8.469  16.227  19.603  1.00  0.00     0.254 C 
BRANCH  30  31
HETATM   31  O3  UNL     1       7.837  14.991  20.029  1.00  0.00    -0.374 OA
ATOM     32  H3  UNL     1       6.904  15.169  20.045  1.00  0.00     0.212 HD
ENDBRANCH  30  31
BRANCH  30  33
HETATM   33  C9  UNL     1       7.595  16.702  18.490  1.00  0.00     0.236 C 
BRANCH  33  34
HETATM   34  O4  UNL     1       7.737  17.998  18.084  1.00  0.00    -0.384 OA
ATOM     35  H4  UNL     1       7.150  18.315  17.408  1.00  0.00     0.210 HD
ENDBRANCH  33  34
BRANCH  33  36
HETATM   36  C10 UNL     1       7.754  15.851  17.262  1.00  0.00     0.168 C 
HETATM   37  O5  UNL     1       8.780  15.206  17.172  1.00  0.00    -0.294 OA
BRANCH  36  38
HETATM   38  C11 UNL     1       6.734  15.774  16.192  1.00  0.00     0.020 C 
HETATM   39  C12 UNL     1       5.333  15.726  16.816  1.00  0.00     0.023 C 
HETATM   40  C13 UNL     1       6.755  16.970  15.303  1.00  0.00     0.017 C 
HETATM   41  C14 UNL     1       8.036  17.165  14.557  1.00  0.00     0.001 C 
HETATM   42  C15 UNL     1       8.598  15.849  14.109  1.00  0.00     0.000 C 
HETATM   43  C16 UNL     1       7.470  14.842  13.970  1.00  0.00     0.001 C 
HETATM   44  C17 UNL     1       6.885  14.522  15.345  1.00  0.00     0.017 C 
ENDBRANCH  36  38
ENDBRANCH  33  36
ENDBRANCH  30  33
ENDBRANCH  28  30
ENDBRANCH  27  28
BRANCH  27  45
HETATM   45  C18 UNL     1       8.257  19.348  21.269  1.00  0.00    -0.005 C 
HETATM   46  C19 UNL     1       9.028  20.232  22.296  1.00  0.00     0.021 C 
HETATM   47  C20 UNL     1       6.891  19.046  21.721  1.00  0.00     0.021 C 
HETATM   48  C21 UNL     1       8.087  20.355  20.091  1.00  0.00     0.021 C 
ENDBRANCH  27  45
ENDBRANCH   1  27
TORSDOF 18
ENDMDL
MODEL 2
REMARK VINA RESULT: -8.779138154      1.987      4.761
REMARK  18 active torsions:
REMARK  status: ('A' for Active; 'I' for Inactive)
REMARK    1  A    between atoms: C2_2  and  C3_3 
REMARK    2  A    between atoms: C3_3  and  C4_4 
REMARK    3  A    between atoms: C4_4  and  O1_5 
REMARK    4  A    between atoms: O1_5  and  C5_6 
REMARK    5  A    between atoms: N2_9  and  C6_10 
REMARK    6  A    between atoms: C6_10  and  O2_11 
REMARK    7  A    between atoms: C6_10  and  C7_13 
REMARK    8  A    between atoms: C7_13  and  N3_14 
REMARK    9  A    between atoms: C7_13  and  C18_31 
REMARK   10  A    between atoms: N3_14  and  C8_16 
REMARK   11  A    between atoms: C8_16  and  O3_17 
REMARK   12  A    between atoms: C8_16  and  C9_19 
REMARK   13  A    between atoms: C9_19  and  O4_20 
REMARK   14  A    between atoms: C9_19  and  C10_22 
REMARK   15  A    between atoms: C10_22  and  C11_24 
REMARK   16  A    between atoms: C22_35  and  C23_36 
REMARK       I    between atoms: C23_36  and  N4_38 
REMARK   17  A    between atoms: N5_41  and  C26_42 
REMARK   18  A    between atoms: C26_42  and  C27_43 
ROOT
HETATM    1  C6  UNL     1      11.438  18.005  16.541  1.00  0.00     0.181 C 
ENDROOT
BRANCH   1   2
HETATM    2  N2  UNL     1      11.563  19.246  17.163  1.00  0.00    -0.253 N 
HETATM    3  N1  UNL     1      10.719  20.220  17.651  1.00  0.00    -0.278 N 
HETATM    4  C5  UNL     1      11.217  20.959  18.564  1.00  0.00     0.135 C 
ATOM      5  H1  UNL     1       9.766  20.342  17.308  1.00  0.00     0.189 HD
HETATM    6  C32 UNL     1      12.604  20.477  18.788  1.00  0.00     0.122 C 
HETATM    7  C22 UNL     1      12.920  19.824  17.455  1.00  0.00     0.210 C 
BRANCH   4   8
HETATM    8  O1  UNL     1      10.580  22.029  19.238  1.00  0.00    -0.338 OA
BRANCH   8   9
HETATM    9  C4  UNL     1      10.166  21.819  20.569  1.00  0.00     0.177 C 
BRANCH   9  10
HETATM   10  C3  UNL     1       9.098  20.750  20.673  1.00  0.00     0.026 C 
BRANCH  10  11
HETATM   11  C2  UNL     1       9.493  19.823  21.811  1.00  0.00    -0.002 C 
HETATM   12  C1  UNL     1      10.366  18.722  21.200  1.00  0.00     0.005 C 
ENDBRANCH  10  11
ENDBRANCH   9  10
ENDBRANCH   8   9
ENDBRANCH   4   8
BRANCH   7  13
HETATM   13  C23 UNL     1      13.236  20.900  16.487  1.00  0.00     0.245 C 
HETATM   14  O6  UNL     1      12.581  21.133  15.444  1.00  0.00    -0.271 OA
HETATM   15  N4  UNL     1      14.356  21.717  16.770  1.00  0.00    -0.347 N 
HETATM   16  C24 UNL     1      14.760  22.821  15.897  1.00  0.00     0.156 C 
HETATM   17  C31 UNL     1      15.209  21.527  17.944  1.00  0.00     0.156 C 
HETATM   18  C25 UNL     1      16.148  23.253  16.318  1.00  0.00     0.292 C 
HETATM   19  N5  UNL     1      16.237  23.652  17.686  1.00  0.00     0.091 N 
HETATM   20  C30 UNL     1      15.399  22.869  18.583  1.00  0.00     0.292 C 
BRANCH  19  21
HETATM   21  C26 UNL     1      17.565  23.613  18.222  1.00  0.00     0.276 C 
BRANCH  21  22
HETATM   22  C27 UNL     1      17.973  24.956  18.799  1.00  0.00     0.006 C 
HETATM   23  C28 UNL     1      17.620  24.925  20.275  1.00  0.00     0.011 C 
HETATM   24  C29 UNL     1      17.143  26.071  18.187  1.00  0.00     0.011 C 
ENDBRANCH  21  22
ENDBRANCH  19  21
ENDBRANCH   7  13
ENDBRANCH   1   2
BRANCH   1  25
HETATM   25  O2  UNL     1      12.603  17.473  16.247  1.00  0.00    -0.344 OA
ATOM     26  H2  UNL     1      12.655  17.196  15.340  1.00  0.00     0.219 HD
ENDBRANCH   1  25
BRANCH   1  27
HETATM   27  C7  UNL     1      10.247  17.234  16.179  1.00  0.00     0.067 C 
BRANCH  27  28
HETATM   28  N3  UNL     1       9.813  16.310  17.133  1.00  0.00    -0.361 N 
ATOM     29  H3  UNL     1      10.494  15.586  17.362  1.00  0.00     0.162 HD
BRANCH  28  30
HETATM   30  C8  UNL     1       8.634  16.212  17.808  1.00  0.00     0.254 C 
BRANCH  30  31
HETATM   31  O3  UNL     1       8.791  15.097  18.723  1.00  0.00    -0.374 OA
ATOM     32  H3  UNL     1       8.004  15.083  19.254  1.00  0.00     0.212 HD
ENDBRANCH  30  31
BRANCH  30  33
HETATM   33  C9  UNL     1       8.096  17.303  18.673  1.00  0.00     0.236 C 
BRANCH  33  34
HETATM   34  O4  UNL     1       8.066  18.565  18.154  1.00  0.00    -0.384 OA
ATOM     35  H4  UNL     1       8.364  19.277  18.708  1.00  0.00     0.210 HD
ENDBRANCH  33  34
BRANCH  33  36
HETATM   36  C10 UNL     1       6.700  17.000  19.139  1.00  0.00     0.168 C 
HETATM   37  O5  UNL     1       5.955  16.479  18.332  1.00  0.00    -0.294 OA
BRANCH  36  38
HETATM   38  C11 UNL     1       6.218  17.306  20.505  1.00  0.00     0.020 C 
HETATM   39  C12 UNL     1       7.227  16.788  21.537  1.00  0.00     0.023 C 
HETATM   40  C13 UNL     1       6.087  18.771  20.743  1.00  0.00     0.017 C 
HETATM   41  C14 UNL     1       5.099  19.459  19.857  1.00  0.00     0.001 C 
HETATM   42  C15 UNL     1       3.895  18.595  19.631  1.00  0.00     0.000 C 
HETATM   43  C16 UNL     1       3.737  17.636  20.798  1.00  0.00     0.001 C 
HETATM   44  C17 UNL     1       4.890  16.633  20.807  1.00  0.00     0.017 C 
ENDBRANCH  36  38
ENDBRANCH  33  36
ENDBRANCH  30  33
ENDBRANCH  28  30
ENDBRANCH  27  28
BRANCH  27  45
HETATM   45  C18 UNL     1       9.829  17.093  14.763  1.00  0.00    -0.005 C 
HETATM   46  C19 UNL     1       9.642  15.561  14.531  1.00  0.00     0.021 C 
HETATM   47  C20 UNL     1      10.629  17.715  13.699  1.00  0.00     0.021 C 
HETATM   48  C21 UNL     1       8.372  17.599  14.532  1.00  0.00     0.021 C 
ENDBRANCH  27  45
ENDBRANCH   1  27
TORSDOF 18
ENDMDL
MODEL 3
REMARK VINA RESULT: -8.775836906      2.214      9.644
REMARK  18 active torsions:
REMARK  status: ('A' for Active; 'I' for Inactive)
REMARK    1  A    between atoms: C2_2  and  C3_3 
REMARK    2  A    between atoms: C3_3  and  C4_4 
REMARK    3  A    between atoms: C4_4  and  O1_5 
REMARK    4  A    between atoms: O1_5  and  C5_6 
REMARK    5  A    between atoms: N2_9  and  C6_10 
REMARK    6  A    between atoms: C6_10  and  O2_11 
REMARK    7  A    between atoms: C6_10  and  C7_13 
REMARK    8  A    between atoms: C7_13  and  N3_14 
REMARK    9  A    between atoms: C7_13  and  C18_31 
REMARK   10  A    between atoms: N3_14  and  C8_16 
REMARK   11  A    between atoms: C8_16  and  O3_17 
REMARK   12  A    between atoms: C8_16  and  C9_19 
REMARK   13  A    between atoms: C9_19  and  O4_20 
REMARK   14  A    between atoms: C9_19  and  C10_22 
REMARK   15  A    between atoms: C10_22  and  C11_24 
REMARK   16  A    between atoms: C22_35  and  C23_36 
REMARK       I    between atoms: C23_36  and  N4_38 
REMARK   17  A    between atoms: N5_41  and  C26_42 
REMARK   18  A    between atoms: C26_42  and  C27_43 
ROOT
HETATM    1  C6  UNL     1      14.422  19.901  17.239  1.00  0.00     0.181 C 
ENDROOT
BRANCH   1   2
HETATM    2  N2  UNL     1      13.101  19.559  16.950  1.00  0.00    -0.253 N 
HETATM    3  N1  UNL     1      12.275  19.561  15.847  1.00  0.00    -0.278 N 
HETATM    4  C5  UNL     1      11.308  18.729  15.894  1.00  0.00     0.135 C 
ATOM      5  H1  UNL     1      12.426  20.181  15.051  1.00  0.00     0.189 HD
HETATM    6  C32 UNL     1      11.427  18.017  17.192  1.00  0.00     0.122 C 
HETATM    7  C22 UNL     1      12.196  19.025  18.026  1.00  0.00     0.210 C 
BRANCH   4   8
HETATM    8  O1  UNL     1      10.315  18.520  14.908  1.00  0.00    -0.338 OA
BRANCH   8   9
HETATM    9  C4  UNL     1      10.546  17.523  13.938  1.00  0.00     0.177 C 
BRANCH   9  10
HETATM   10  C3  UNL     1      10.103  16.154  14.408  1.00  0.00     0.026 C 
BRANCH  10  11
HETATM   11  C2  UNL     1       8.582  16.134  14.380  1.00  0.00    -0.002 C 
HETATM   12  C1  UNL     1       8.172  14.814  13.720  1.00  0.00     0.005 C 
ENDBRANCH  10  11
ENDBRANCH   9  10
ENDBRANCH   8   9
ENDBRANCH   4   8
BRANCH   7  13
HETATM   13  C23 UNL     1      11.244  20.074  18.460  1.00  0.00     0.245 C 
HETATM   14  O6  UNL     1      11.181  21.224  17.967  1.00  0.00    -0.271 OA
HETATM   15  N4  UNL     1      10.348  19.742  19.503  1.00  0.00    -0.347 N 
HETATM   16  C24 UNL     1       9.352  20.688  20.009  1.00  0.00     0.156 C 
HETATM   17  C31 UNL     1      10.342  18.440  20.170  1.00  0.00     0.156 C 
HETATM   18  C25 UNL     1       8.806  20.130  21.305  1.00  0.00     0.292 C 
HETATM   19  N5  UNL     1       8.225  18.831  21.173  1.00  0.00     0.091 N 
HETATM   20  C30 UNL     1       8.920  17.970  20.228  1.00  0.00     0.292 C 
BRANCH  19  21
HETATM   21  C26 UNL     1       8.133  18.104  22.404  1.00  0.00     0.276 C 
BRANCH  21  22
HETATM   22  C27 UNL     1       7.424  16.776  22.216  1.00  0.00     0.006 C 
HETATM   23  C28 UNL     1       5.964  17.093  21.945  1.00  0.00     0.011 C 
HETATM   24  C29 UNL     1       7.453  15.972  23.504  1.00  0.00     0.011 C 
ENDBRANCH  21  22
ENDBRANCH  19  21
ENDBRANCH   7  13
ENDBRANCH   1   2
BRANCH   1  25
HETATM   25  O2  UNL     1      14.953  19.120  18.150  1.00  0.00    -0.344 OA
ATOM     26  H2  UNL     1      15.902  19.178  18.169  1.00  0.00     0.219 HD
ENDBRANCH   1  25
BRANCH   1  27
HETATM   27  C7  UNL     1      15.272  20.962  16.696  1.00  0.00     0.067 C 
BRANCH  27  28
HETATM   28  N3  UNL     1      15.319  22.140  17.445  1.00  0.00    -0.361 N 
ATOM     29  H3  UNL     1      16.078  22.179  18.126  1.00  0.00     0.162 HD
BRANCH  28  30
HETATM   30  C8  UNL     1      14.523  23.246  17.419  1.00  0.00     0.254 C 
BRANCH  30  31
HETATM   31  O3  UNL     1      13.392  22.941  18.277  1.00  0.00    -0.374 OA
ATOM     32  H3  UNL     1      13.181  23.750  18.726  1.00  0.00     0.212 HD
ENDBRANCH  30  31
BRANCH  30  33
HETATM   33  C9  UNL     1      14.973  24.586  17.896  1.00  0.00     0.236 C 
BRANCH  33  34
HETATM   34  O4  UNL     1      14.011  25.508  18.193  1.00  0.00    -0.384 OA
ATOM     35  H4  UNL     1      14.228  26.182  18.826  1.00  0.00     0.210 HD
ENDBRANCH  33  34
BRANCH  33  36
HETATM   36  C10 UNL     1      15.847  24.474  19.114  1.00  0.00     0.168 C 
HETATM   37  O5  UNL     1      15.520  23.651  19.947  1.00  0.00    -0.294 OA
BRANCH  36  38
HETATM   38  C11 UNL     1      17.053  25.305  19.325  1.00  0.00     0.020 C 
HETATM   39  C12 UNL     1      17.058  25.856  20.757  1.00  0.00     0.023 C 
HETATM   40  C13 UNL     1      18.312  24.522  19.174  1.00  0.00     0.017 C 
HETATM   41  C14 UNL     1      18.519  23.936  17.813  1.00  0.00     0.001 C 
HETATM   42  C15 UNL     1      18.058  24.886  16.749  1.00  0.00     0.000 C 
HETATM   43  C16 UNL     1      18.127  26.308  17.279  1.00  0.00     0.001 C 
HETATM   44  C17 UNL     1      17.096  26.501  18.390  1.00  0.00     0.017 C 
ENDBRANCH  36  38
ENDBRANCH  33  36
ENDBRANCH  30  33
ENDBRANCH  28  30
ENDBRANCH  27  28
BRANCH  27  45
HETATM   45  C18 UNL     1      15.656  20.976  15.263  1.00  0.00    -0.005 C 
HETATM   46  C19 UNL     1      16.998  21.769  15.195  1.00  0.00     0.021 C 
HETATM   47  C20 UNL     1      14.694  21.441  14.253  1.00  0.00     0.021 C 
HETATM   48  C21 UNL     1      16.124  19.573  14.771  1.00  0.00     0.021 C 
ENDBRANCH  27  45
ENDBRANCH   1  27
TORSDOF 18
ENDMDL
MODEL 4
REMARK VINA RESULT: -8.775042950      2.493      8.330
REMARK  18 active torsions:
REMARK  status: ('A' for Active; 'I' for Inactive)
REMARK    1  A    between atoms: C2_2  and  C3_3 
REMARK    2  A    between atoms: C3_3  and  C4_4 
REMARK    3  A    between atoms: C4_4  and  O1_5 
REMARK    4  A    between atoms: O1_5  and  C5_6 
REMARK    5  A    between atoms: N2_9  and  C6_10 
REMARK    6  A    between atoms: C6_10  and  O2_11 
REMARK    7  A    between atoms: C6_10  and  C7_13 
REMARK    8  A    between atoms: C7_13  and  N3_14 
REMARK    9  A    between atoms: C7_13  and  C18_31 
REMARK   10  A    between atoms: N3_14  and  C8_16 
REMARK   11  A    between atoms: C8_16  and  O3_17 
REMARK   12  A    between atoms: C8_16  and  C9_19 
REMARK   13  A    between atoms: C9_19  and  O4_20 
REMARK   14  A    between atoms: C9_19  and  C10_22 
REMARK   15  A    between atoms: C10_22  and  C11_24 
REMARK   16  A    between atoms: C22_35  and  C23_36 
REMARK       I    between atoms: C23_36  and  N4_38 
REMARK   17  A    between atoms: N5_41  and  C26_42 
REMARK   18  A    between atoms: C26_42  and  C27_43 
ROOT
HETATM    1  C6  UNL     1      12.172  18.810  18.064  1.00  0.00     0.181 C 
ENDROOT
BRANCH   1   2
HETATM    2  N2  UNL     1      12.261  20.157  18.412  1.00  0.00    -0.253 N 
HETATM    3  N1  UNL     1      13.256  21.050  18.747  1.00  0.00    -0.278 N 
HETATM    4  C5  UNL     1      12.981  22.275  18.522  1.00  0.00     0.135 C 
ATOM      5  H1  UNL     1      14.147  20.753  19.146  1.00  0.00     0.189 HD
HETATM    6  C32 UNL     1      11.612  22.302  17.946  1.00  0.00     0.122 C 
HETATM    7  C22 UNL     1      11.026  21.012  18.489  1.00  0.00     0.210 C 
BRANCH   4   8
HETATM    8  O1  UNL     1      13.812  23.395  18.768  1.00  0.00    -0.338 OA
BRANCH   8   9
HETATM    9  C4  UNL     1      14.927  23.218  19.612  1.00  0.00     0.177 C 
BRANCH   9  10
HETATM   10  C3  UNL     1      15.606  24.529  19.944  1.00  0.00     0.026 C 
BRANCH  10  11
HETATM   11  C2  UNL     1      15.229  25.524  18.858  1.00  0.00    -0.002 C 
HETATM   12  C1  UNL     1      16.535  26.157  18.368  1.00  0.00     0.005 C 
ENDBRANCH  10  11
ENDBRANCH   9  10
ENDBRANCH   8   9
ENDBRANCH   4   8
BRANCH   7  13
HETATM   13  C23 UNL     1      10.653  21.244  19.904  1.00  0.00     0.245 C 
HETATM   14  O6  UNL     1      11.154  22.130  20.635  1.00  0.00    -0.271 OA
HETATM   15  N4  UNL     1       9.660  20.402  20.458  1.00  0.00    -0.347 N 
HETATM   16  C24 UNL     1       9.198  20.542  21.840  1.00  0.00     0.156 C 
HETATM   17  C31 UNL     1       9.019  19.320  19.710  1.00  0.00     0.156 C 
HETATM   18  C25 UNL     1       8.397  19.305  22.183  1.00  0.00     0.292 C 
HETATM   19  N5  UNL     1       7.286  19.078  21.315  1.00  0.00     0.091 N 
HETATM   20  C30 UNL     1       7.542  19.436  19.927  1.00  0.00     0.292 C 
BRANCH  19  21
HETATM   21  C26 UNL     1       6.812  17.726  21.313  1.00  0.00     0.276 C 
BRANCH  21  22
HETATM   22  C27 UNL     1       7.828  16.778  21.922  1.00  0.00     0.006 C 
HETATM   23  C28 UNL     1       8.044  15.661  20.916  1.00  0.00     0.011 C 
HETATM   24  C29 UNL     1       7.260  16.123  23.169  1.00  0.00     0.011 C 
ENDBRANCH  21  22
ENDBRANCH  19  21
ENDBRANCH   7  13
ENDBRANCH   1   2
BRANCH   1  25
HETATM   25  O2  UNL     1      12.277  18.016  19.104  1.00  0.00    -0.344 OA
ATOM     26  H2  UNL     1      11.449  17.899  19.555  1.00  0.00     0.219 HD
ENDBRANCH   1  25
BRANCH   1  27
HETATM   27  C7  UNL     1      11.985  18.173  16.759  1.00  0.00     0.067 C 
BRANCH  27  28
HETATM   28  N3  UNL     1      13.074  18.251  15.888  1.00  0.00    -0.361 N 
ATOM     29  H3  UNL     1      13.513  17.354  15.676  1.00  0.00     0.162 HD
BRANCH  28  30
HETATM   30  C8  UNL     1      13.650  19.322  15.273  1.00  0.00     0.254 C 
BRANCH  30  31
HETATM   31  O3  UNL     1      12.571  20.260  15.017  1.00  0.00    -0.374 OA
ATOM     32  H3  UNL     1      12.941  21.124  15.149  1.00  0.00     0.212 HD
ENDBRANCH  30  31
BRANCH  30  33
HETATM   33  C9  UNL     1      14.701  20.164  15.916  1.00  0.00     0.236 C 
BRANCH  33  34
HETATM   34  O4  UNL     1      15.420  19.608  16.935  1.00  0.00    -0.384 OA
ATOM     35  H4  UNL     1      15.580  20.142  17.704  1.00  0.00     0.210 HD
ENDBRANCH  33  34
BRANCH  33  36
HETATM   36  C10 UNL     1      15.701  20.661  14.911  1.00  0.00     0.168 C 
HETATM   37  O5  UNL     1      16.497  19.848  14.483  1.00  0.00    -0.294 OA
BRANCH  36  38
HETATM   38  C11 UNL     1      15.747  22.063  14.439  1.00  0.00     0.020 C 
HETATM   39  C12 UNL     1      14.604  22.313  13.447  1.00  0.00     0.023 C 
HETATM   40  C13 UNL     1      15.559  23.039  15.550  1.00  0.00     0.017 C 
HETATM   41  C14 UNL     1      16.614  22.987  16.608  1.00  0.00     0.001 C 
HETATM   42  C15 UNL     1      17.964  22.745  16.002  1.00  0.00     0.000 C 
HETATM   43  C16 UNL     1      17.969  23.244  14.568  1.00  0.00     0.001 C 
HETATM   44  C17 UNL     1      17.042  22.381  13.712  1.00  0.00     0.017 C 
ENDBRANCH  36  38
ENDBRANCH  33  36
ENDBRANCH  30  33
ENDBRANCH  28  30
ENDBRANCH  27  28
BRANCH  27  45
HETATM   45  C18 UNL     1      10.627  17.901  16.228  1.00  0.00    -0.005 C 
HETATM   46  C19 UNL     1      10.843  17.068  14.927  1.00  0.00     0.021 C 
HETATM   47  C20 UNL     1       9.688  19.013  16.017  1.00  0.00     0.021 C 
HETATM   48  C21 UNL     1       9.853  16.870  17.106  1.00  0.00     0.021 C 
ENDBRANCH  27  45
ENDBRANCH   1  27
TORSDOF 18
ENDMDL
MODEL 5
REMARK VINA RESULT: -8.719702916      1.246      3.060
REMARK  18 active torsions:
REMARK  status: ('A' for Active; 'I' for Inactive)
REMARK    1  A    between atoms: C2_2  and  C3_3 
REMARK    2  A    between atoms: C3_3  and  C4_4 
REMARK    3  A    between atoms: C4_4  and  O1_5 
REMARK    4  A    between atoms: O1_5  and  C5_6 
REMARK    5  A    between atoms: N2_9  and  C6_10 
REMARK    6  A    between atoms: C6_10  and  O2_11 
REMARK    7  A    between atoms: C6_10  and  C7_13 
REMARK    8  A    between atoms: C7_13  and  N3_14 
REMARK    9  A    between atoms: C7_13  and  C18_31 
REMARK   10  A    between atoms: N3_14  and  C8_16 
REMARK   11  A    between atoms: C8_16  and  O3_17 
REMARK   12  A    between atoms: C8_16  and  C9_19 
REMARK   13  A    between atoms: C9_19  and  O4_20 
REMARK   14  A    between atoms: C9_19  and  C10_22 
REMARK   15  A    between atoms: C10_22  and  C11_24 
REMARK   16  A    between atoms: C22_35  and  C23_36 
REMARK       I    between atoms: C23_36  and  N4_38 
REMARK   17  A    between atoms: N5_41  and  C26_42 
REMARK   18  A    between atoms: C26_42  and  C27_43 
ROOT
HETATM    1  C6  UNL     1      10.519  18.436  19.849  1.00  0.00     0.181 C 
ENDROOT
BRANCH   1   2
HETATM    2  N2  UNL     1      10.820  18.831  18.545  1.00  0.00    -0.253 N 
HETATM    3  N1  UNL     1      10.726  18.292  17.280  1.00  0.00    -0.278 N 
HETATM    4  C5  UNL     1      10.653  19.145  16.334  1.00  0.00     0.135 C 
ATOM      5  H1  UNL     1      10.716  17.285  17.113  1.00  0.00     0.189 HD
HETATM    6  C32 UNL     1      10.695  20.486  16.970  1.00  0.00     0.122 C 
HETATM    7  C22 UNL     1      11.412  20.186  18.273  1.00  0.00     0.210 C 
BRANCH   4   8
HETATM    8  O1  UNL     1      10.550  18.874  14.948  1.00  0.00    -0.338 OA
BRANCH   8   9
HETATM    9  C4  UNL     1      10.696  17.538  14.523  1.00  0.00     0.177 C 
BRANCH   9  10
HETATM   10  C3  UNL     1       9.376  16.920  14.115  1.00  0.00     0.026 C 
BRANCH  10  11
HETATM   11  C2  UNL     1       9.401  15.464  14.553  1.00  0.00    -0.002 C 
HETATM   12  C1  UNL     1       8.253  14.763  13.820  1.00  0.00     0.005 C 
ENDBRANCH  10  11
ENDBRANCH   9  10
ENDBRANCH   8   9
ENDBRANCH   4   8
BRANCH   7  13
HETATM   13  C23 UNL     1      12.858  20.060  17.974  1.00  0.00     0.245 C 
HETATM   14  O6  UNL     1      13.402  19.029  17.513  1.00  0.00    -0.271 OA
HETATM   15  N4  UNL     1      13.672  21.189  18.231  1.00  0.00    -0.347 N 
HETATM   16  C24 UNL     1      15.112  21.192  17.965  1.00  0.00     0.156 C 
HETATM   17  C31 UNL     1      13.155  22.438  18.790  1.00  0.00     0.156 C 
HETATM   18  C25 UNL     1      15.701  22.407  18.646  1.00  0.00     0.292 C 
HETATM   19  N5  UNL     1      15.122  23.642  18.223  1.00  0.00     0.091 N 
HETATM   20  C30 UNL     1      13.693  23.560  17.956  1.00  0.00     0.292 C 
BRANCH  19  21
HETATM   21  C26 UNL     1      15.308  24.722  19.145  1.00  0.00     0.276 C 
BRANCH  21  22
HETATM   22  C27 UNL     1      16.766  24.874  19.539  1.00  0.00     0.006 C 
HETATM   23  C28 UNL     1      16.787  25.212  21.020  1.00  0.00     0.011 C 
HETATM   24  C29 UNL     1      17.388  26.060  18.823  1.00  0.00     0.011 C 
ENDBRANCH  21  22
ENDBRANCH  19  21
ENDBRANCH   7  13
ENDBRANCH   1   2
BRANCH   1  25
HETATM   25  O2  UNL     1      11.589  18.359  20.607  1.00  0.00    -0.344 OA
ATOM     26  H2  UNL     1      11.724  17.485  20.953  1.00  0.00     0.219 HD
ENDBRANCH   1  25
BRANCH   1  27
HETATM   27  C7  UNL     1       9.237  18.107  20.474  1.00  0.00     0.067 C 
BRANCH  27  28
HETATM   28  N3  UNL     1       8.640  16.921  20.039  1.00  0.00    -0.361 N 
ATOM     29  H3  UNL     1       8.702  16.148  20.701  1.00  0.00     0.162 HD
BRANCH  28  30
HETATM   30  C8  UNL     1       7.990  16.623  18.879  1.00  0.00     0.254 C 
BRANCH  30  31
HETATM   31  O3  UNL     1       8.874  15.737  18.144  1.00  0.00    -0.374 OA
ATOM     32  H3  UNL     1       8.311  15.196  17.604  1.00  0.00     0.212 HD
ENDBRANCH  30  31
BRANCH  30  33
HETATM   33  C9  UNL     1       6.675  15.919  18.839  1.00  0.00     0.236 C 
BRANCH  33  34
HETATM   34  O4  UNL     1       6.200  15.399  20.008  1.00  0.00    -0.384 OA
ATOM     35  H4  UNL     1       6.408  14.493  20.204  1.00  0.00     0.210 HD
ENDBRANCH  33  34
BRANCH  33  36
HETATM   36  C10 UNL     1       5.590  16.807  18.296  1.00  0.00     0.168 C 
HETATM   37  O5  UNL     1       5.290  17.776  18.966  1.00  0.00    -0.294 OA
BRANCH  36  38
HETATM   38  C11 UNL     1       4.899  16.549  17.013  1.00  0.00     0.020 C 
HETATM   39  C12 UNL     1       5.895  16.681  15.853  1.00  0.00     0.023 C 
HETATM   40  C13 UNL     1       4.348  15.166  16.936  1.00  0.00     0.017 C 
HETATM   41  C14 UNL     1       3.310  14.853  17.966  1.00  0.00     0.001 C 
HETATM   42  C15 UNL     1       2.420  16.036  18.202  1.00  0.00     0.000 C 
HETATM   43  C16 UNL     1       2.406  16.911  16.960  1.00  0.00     0.001 C 
HETATM   44  C17 UNL     1       3.781  17.544  16.754  1.00  0.00     0.017 C 
ENDBRANCH  36  38
ENDBRANCH  33  36
ENDBRANCH  30  33
ENDBRANCH  28  30
ENDBRANCH  27  28
BRANCH  27  45
HETATM   45  C18 UNL     1       8.418  19.152  21.135  1.00  0.00    -0.005 C 
HETATM   46  C19 UNL     1       7.782  19.982  19.977  1.00  0.00     0.021 C 
HETATM   47  C20 UNL     1       9.023  20.015  22.160  1.00  0.00     0.021 C 
HETATM   48  C21 UNL     1       7.140  18.557  21.800  1.00  0.00     0.021 C 
ENDBRANCH  27  45
ENDBRANCH   1  27
TORSDOF 18
ENDMDL
