MODEL 1
REMARK VINA RESULT: -7.747009053      0.000      0.000
REMARK  4 active torsions:
REMARK  status: ('A' for Active; 'I' for Inactive)
REMARK    1  A    between atoms: C2_2  and  C4_5 
REMARK    2  A    between atoms: C11_13  and  O2_14 
REMARK    3  A    between atoms: C15_19  and  O3_20 
REMARK    4  A    between atoms: C21_27  and  O4_28 
ROOT
HETATM    1  C1  UNL     1      -8.172  -3.530  -7.427  1.00  0.00     0.026 C 
HETATM    2  C2  UNL     1      -9.631  -3.824  -6.993  1.00  0.00     0.102 C 
HETATM    3  C3  UNL     1      -9.492  -5.150  -6.313  1.00  0.00     0.064 C 
HETATM    4  N1  UNL     1      -9.405  -6.188  -5.785  1.00  0.00    -0.197 NA
ENDROOT
BRANCH   2   5
HETATM    5  C4  UNL     1     -10.384  -4.038  -8.219  1.00  0.00     0.009 C 
HETATM    6  C5  UNL     1      -9.578  -5.208  -8.837  1.00  0.00     0.022 C 
HETATM    7  C6  UNL     1     -10.443  -2.967  -9.227  1.00  0.00     0.089 C 
HETATM    8  C7  UNL     1     -10.780  -1.588  -8.771  1.00  0.00     0.371 A 
HETATM    9  C21 UNL     1     -11.463  -3.467 -10.257  1.00  0.00     0.146 C 
HETATM   10  O1  UNL     1     -12.070  -1.221  -9.270  1.00  0.00    -0.317 OA
HETATM   11  N2  UNL     1     -11.281  -1.415  -7.472  1.00  0.00     0.146 N 
HETATM   12  C8  UNL     1     -12.498  -1.004  -7.973  1.00  0.00     0.394 A 
HETATM   13  C9  UNL     1     -13.728  -1.836  -7.785  1.00  0.00    -0.018 C 
HETATM   14  C10 UNL     1     -13.819  -3.051  -7.354  1.00  0.00     0.044 C 
HETATM   15  C20 UNL     1     -14.836  -1.055  -8.525  1.00  0.00     0.051 C 
HETATM   16  C11 UNL     1     -12.651  -3.934  -6.972  1.00  0.00     0.070 C 
HETATM   17  C12 UNL     1     -11.858  -4.397  -8.117  1.00  0.00    -0.019 C 
HETATM   18  C13 UNL     1     -12.470  -4.301  -9.477  1.00  0.00     0.058 C 
HETATM   19  C14 UNL     1     -12.245  -5.718 -10.145  1.00  0.00     0.030 C 
HETATM   20  C15 UNL     1     -13.854  -4.084  -9.796  1.00  0.00     0.055 C 
HETATM   21  C16 UNL     1     -14.990  -3.276  -9.707  1.00  0.00     0.015 C 
HETATM   22  C17 UNL     1     -15.226  -1.832  -9.758  1.00  0.00    -0.024 C 
HETATM   23  C18 UNL     1     -16.767  -1.652  -9.791  1.00  0.00     0.019 C 
HETATM   24  C19 UNL     1     -14.744  -1.269 -11.056  1.00  0.00     0.019 C 
HETATM   25  C22 UNL     1     -10.709  -0.260  -6.726  1.00  0.00     0.317 C 
BRANCH  16  26
HETATM   26  O2  UNL     1     -12.065  -3.610  -5.801  1.00  0.00    -0.360 OA
ATOM     27  H2  UNL     1     -11.137  -3.419  -5.865  1.00  0.00     0.217 HD
ENDBRANCH  16  26
BRANCH  20  28
HETATM   28  O3  UNL     1     -14.459  -5.411  -9.600  1.00  0.00    -0.364 OA
ATOM     29  H3  UNL     1     -14.685  -5.415  -8.677  1.00  0.00     0.217 HD
ENDBRANCH  20  28
BRANCH   9  30
HETATM   30  O4  UNL     1     -10.895  -4.082 -11.351  1.00  0.00    -0.394 OA
ATOM     31  H4  UNL     1     -10.653  -3.482 -12.048  1.00  0.00     0.210 HD
ENDBRANCH   9  30
ENDBRANCH   2   5
TORSDOF 4
ENDMDL
MODEL 2
REMARK VINA RESULT: -7.571111621      1.702      4.806
REMARK  4 active torsions:
REMARK  status: ('A' for Active; 'I' for Inactive)
REMARK    1  A    between atoms: C2_2  and  C4_5 
REMARK    2  A    between atoms: C11_13  and  O2_14 
REMARK    3  A    between atoms: C15_19  and  O3_20 
REMARK    4  A    between atoms: C21_27  and  O4_28 
ROOT
HETATM    1  C1  UNL     1     -13.072  -1.082  -5.727  1.00  0.00     0.026 C 
HETATM    2  C2  UNL     1     -12.621  -1.020  -7.209  1.00  0.00     0.102 C 
HETATM    3  C3  UNL     1     -13.228   0.271  -7.664  1.00  0.00     0.064 C 
HETATM    4  N1  UNL     1     -13.699   1.270  -8.039  1.00  0.00    -0.197 NA
ENDROOT
BRANCH   2   5
HETATM    5  C4  UNL     1     -13.321  -2.097  -7.891  1.00  0.00     0.009 C 
HETATM    6  C5  UNL     1     -14.791  -1.692  -7.612  1.00  0.00     0.022 C 
HETATM    7  C6  UNL     1     -13.152  -3.481  -7.421  1.00  0.00     0.089 C 
HETATM    8  C7  UNL     1     -11.768  -3.978  -7.176  1.00  0.00     0.371 A 
HETATM    9  C21 UNL     1     -13.860  -4.335  -8.479  1.00  0.00     0.146 C 
HETATM   10  O1  UNL     1     -11.437  -4.972  -8.152  1.00  0.00    -0.317 OA
HETATM   11  N2  UNL     1     -10.689  -3.217  -7.650  1.00  0.00     0.146 N 
HETATM   12  C8  UNL     1     -10.349  -4.212  -8.540  1.00  0.00     0.394 A 
HETATM   13  C9  UNL     1     -10.481  -4.002 -10.017  1.00  0.00    -0.018 C 
HETATM   14  C10 UNL     1     -11.070  -3.037 -10.643  1.00  0.00     0.044 C 
HETATM   15  C20 UNL     1     -10.051  -5.351 -10.636  1.00  0.00     0.051 C 
HETATM   16  C11 UNL     1     -11.813  -1.894  -9.986  1.00  0.00     0.070 C 
HETATM   17  C12 UNL     1     -13.092  -2.287  -9.382  1.00  0.00    -0.019 C 
HETATM   18  C13 UNL     1     -13.690  -3.591  -9.797  1.00  0.00     0.058 C 
HETATM   19  C14 UNL     1     -15.202  -3.275 -10.143  1.00  0.00     0.030 C 
HETATM   20  C15 UNL     1     -13.330  -4.394 -10.934  1.00  0.00     0.055 C 
HETATM   21  C16 UNL     1     -12.358  -5.118 -11.627  1.00  0.00     0.015 C 
HETATM   22  C17 UNL     1     -11.270  -6.014 -11.227  1.00  0.00    -0.024 C 
HETATM   23  C18 UNL     1     -10.713  -6.622 -12.542  1.00  0.00     0.019 C 
HETATM   24  C19 UNL     1     -11.807  -7.179 -10.462  1.00  0.00     0.019 C 
HETATM   25  C22 UNL     1      -9.551  -3.081  -6.699  1.00  0.00     0.317 C 
BRANCH  16  26
HETATM   26  O2  UNL     1     -11.019  -0.972  -9.404  1.00  0.00    -0.360 OA
ATOM     27  H2  UNL     1     -10.930  -0.163  -9.894  1.00  0.00     0.217 HD
ENDBRANCH  16  26
BRANCH  20  28
HETATM   28  O3  UNL     1     -13.998  -3.712 -12.054  1.00  0.00    -0.364 OA
ATOM     29  H3  UNL     1     -13.603  -2.848 -12.053  1.00  0.00     0.217 HD
ENDBRANCH  20  28
BRANCH   9  30
HETATM   30  O4  UNL     1     -15.154  -4.676  -8.147  1.00  0.00    -0.394 OA
ATOM     31  H4  UNL     1     -15.369  -5.586  -8.322  1.00  0.00     0.210 HD
ENDBRANCH   9  30
ENDBRANCH   2   5
TORSDOF 4
ENDMDL
MODEL 3
REMARK VINA RESULT: -7.257711182      2.060      3.141
REMARK  4 active torsions:
REMARK  status: ('A' for Active; 'I' for Inactive)
REMARK    1  A    between atoms: C2_2  and  C4_5 
REMARK    2  A    between atoms: C11_13  and  O2_14 
REMARK    3  A    between atoms: C15_19  and  O3_20 
REMARK    4  A    between atoms: C21_27  and  O4_28 
ROOT
HETATM    1  C1  UNL     1     -11.919  -1.788  -3.682  1.00  0.00     0.026 C 
HETATM    2  C2  UNL     1     -12.407  -2.898  -4.648  1.00  0.00     0.102 C 
HETATM    3  C3  UNL     1     -11.502  -4.037  -4.294  1.00  0.00     0.064 C 
HETATM    4  N1  UNL     1     -10.801  -4.934  -4.037  1.00  0.00    -0.197 NA
ENDROOT
BRANCH   2   5
HETATM    5  C4  UNL     1     -12.050  -2.456  -5.987  1.00  0.00     0.009 C 
HETATM    6  C5  UNL     1     -10.509  -2.371  -5.849  1.00  0.00     0.022 C 
HETATM    7  C6  UNL     1     -12.520  -1.145  -6.465  1.00  0.00     0.089 C 
HETATM    8  C7  UNL     1     -13.960  -0.805  -6.288  1.00  0.00     0.371 A 
HETATM    9  C21 UNL     1     -12.128  -1.115  -7.947  1.00  0.00     0.146 C 
HETATM   10  O1  UNL     1     -14.601  -0.759  -7.567  1.00  0.00    -0.317 OA
HETATM   11  N2  UNL     1     -14.850  -1.827  -5.927  1.00  0.00     0.146 N 
HETATM   12  C8  UNL     1     -15.494  -1.724  -7.142  1.00  0.00     0.394 A 
HETATM   13  C9  UNL     1     -15.430  -2.835  -8.144  1.00  0.00    -0.018 C 
HETATM   14  C10 UNL     1     -14.671  -3.881  -8.138  1.00  0.00     0.044 C 
HETATM   15  C20 UNL     1     -16.226  -2.304  -9.356  1.00  0.00     0.051 C 
HETATM   16  C11 UNL     1     -13.620  -4.193  -7.095  1.00  0.00     0.070 C 
HETATM   17  C12 UNL     1     -12.434  -3.330  -7.171  1.00  0.00    -0.019 C 
HETATM   18  C13 UNL     1     -12.211  -2.557  -8.429  1.00  0.00     0.058 C 
HETATM   19  C14 UNL     1     -10.700  -2.813  -8.824  1.00  0.00     0.030 C 
HETATM   20  C15 UNL     1     -12.846  -2.762  -9.703  1.00  0.00     0.055 C 
HETATM   21  C16 UNL     1     -14.018  -2.815 -10.460  1.00  0.00     0.015 C 
HETATM   22  C17 UNL     1     -15.259  -2.038 -10.483  1.00  0.00    -0.024 C 
HETATM   23  C18 UNL     1     -16.049  -2.530 -11.724  1.00  0.00     0.019 C 
HETATM   24  C19 UNL     1     -14.968  -0.598 -10.758  1.00  0.00     0.019 C 
HETATM   25  C22 UNL     1     -15.842  -1.456  -4.880  1.00  0.00     0.317 C 
BRANCH  16  26
HETATM   26  O2  UNL     1     -14.113  -4.599  -5.907  1.00  0.00    -0.360 OA
ATOM     27  H2  UNL     1     -13.790  -4.110  -5.159  1.00  0.00     0.217 HD
ENDBRANCH  16  26
BRANCH  20  28
HETATM   28  O3  UNL     1     -12.119  -3.913 -10.262  1.00  0.00    -0.364 OA
ATOM     29  H3  UNL     1     -11.207  -3.666 -10.162  1.00  0.00     0.217 HD
ENDBRANCH  20  28
BRANCH   9  30
HETATM   30  O4  UNL     1     -10.938  -0.467  -8.197  1.00  0.00    -0.394 OA
ATOM     31  H4  UNL     1     -10.284  -0.588  -7.518  1.00  0.00     0.210 HD
ENDBRANCH   9  30
ENDBRANCH   2   5
TORSDOF 4
ENDMDL
MODEL 4
REMARK VINA RESULT: -7.084267092      1.862      4.643
REMARK  4 active torsions:
REMARK  status: ('A' for Active; 'I' for Inactive)
REMARK    1  A    between atoms: C2_2  and  C4_5 
REMARK    2  A    between atoms: C11_13  and  O2_14 
REMARK    3  A    between atoms: C15_19  and  O3_20 
REMARK    4  A    between atoms: C21_27  and  O4_28 
ROOT
HETATM    1  C1  UNL     1     -10.439  -2.059  -4.413  1.00  0.00     0.026 C 
HETATM    2  C2  UNL     1     -10.214  -1.766  -5.918  1.00  0.00     0.102 C 
HETATM    3  C3  UNL     1     -10.480  -0.295  -5.992  1.00  0.00     0.064 C 
HETATM    4  N1  UNL     1     -10.692   0.850  -6.070  1.00  0.00    -0.197 NA
ENDROOT
BRANCH   2   5
HETATM    5  C4  UNL     1     -11.289  -2.441  -6.628  1.00  0.00     0.009 C 
HETATM    6  C5  UNL     1     -12.520  -1.800  -5.939  1.00  0.00     0.022 C 
HETATM    7  C6  UNL     1     -11.430  -3.901  -6.507  1.00  0.00     0.089 C 
HETATM    8  C7  UNL     1     -10.216  -4.745  -6.697  1.00  0.00     0.371 A 
HETATM    9  C21 UNL     1     -12.515  -4.267  -7.526  1.00  0.00     0.146 C 
HETATM   10  O1  UNL     1     -10.342  -5.499  -7.907  1.00  0.00    -0.317 OA
HETATM   11  N2  UNL     1      -9.066  -4.152  -7.239  1.00  0.00     0.146 N 
HETATM   12  C8  UNL     1      -9.170  -4.932  -8.370  1.00  0.00     0.394 A 
HETATM   13  C9  UNL     1      -9.488  -4.322  -9.700  1.00  0.00    -0.018 C 
HETATM   14  C10 UNL     1      -9.886  -3.120  -9.959  1.00  0.00     0.044 C 
HETATM   15  C20 UNL     1      -9.558  -5.525 -10.667  1.00  0.00     0.051 C 
HETATM   16  C11 UNL     1     -10.162  -2.049  -8.927  1.00  0.00     0.070 C 
HETATM   17  C12 UNL     1     -11.378  -2.284  -8.138  1.00  0.00    -0.019 C 
HETATM   18  C13 UNL     1     -12.374  -3.266  -8.664  1.00  0.00     0.058 C 
HETATM   19  C14 UNL     1     -13.776  -2.536  -8.578  1.00  0.00     0.030 C 
HETATM   20  C15 UNL     1     -12.448  -3.805  -9.994  1.00  0.00     0.055 C 
HETATM   21  C16 UNL     1     -11.845  -4.526 -11.027  1.00  0.00     0.015 C 
HETATM   22  C17 UNL     1     -10.995  -5.717 -11.084  1.00  0.00    -0.024 C 
HETATM   23  C18 UNL     1     -10.860  -6.073 -12.589  1.00  0.00     0.019 C 
HETATM   24  C19 UNL     1     -11.694  -6.888 -10.473  1.00  0.00     0.019 C 
HETATM   25  C22 UNL     1      -7.790  -4.529  -6.570  1.00  0.00     0.317 C 
BRANCH  16  26
HETATM   26  O2  UNL     1      -9.058  -1.514  -8.366  1.00  0.00    -0.360 OA
ATOM     27  H2  UNL     1      -8.293  -1.510  -8.929  1.00  0.00     0.217 HD
ENDBRANCH  16  26
BRANCH  20  28
HETATM   28  O3  UNL     1     -13.083  -2.724 -10.764  1.00  0.00    -0.364 OA
ATOM     29  H3  UNL     1     -14.004  -2.960 -10.754  1.00  0.00     0.217 HD
ENDBRANCH  20  28
BRANCH   9  30
HETATM   30  O4  UNL     1     -13.776  -4.381  -6.981  1.00  0.00    -0.394 OA
ATOM     31  H4  UNL     1     -13.810  -4.202  -6.048  1.00  0.00     0.210 HD
ENDBRANCH   9  30
ENDBRANCH   2   5
TORSDOF 4
ENDMDL
MODEL 5
REMARK VINA RESULT: -7.031039533      1.870      4.056
REMARK  4 active torsions:
REMARK  status: ('A' for Active; 'I' for Inactive)
REMARK    1  A    between atoms: C2_2  and  C4_5 
REMARK    2  A    between atoms: C11_13  and  O2_14 
REMARK    3  A    between atoms: C15_19  and  O3_20 
REMARK    4  A    between atoms: C21_27  and  O4_28 
ROOT
HETATM    1  C1  UNL     1     -10.259  -2.173  -4.966  1.00  0.00     0.026 C 
HETATM    2  C2  UNL     1     -10.947  -1.534  -6.199  1.00  0.00     0.102 C 
HETATM    3  C3  UNL     1     -11.281  -0.165  -5.692  1.00  0.00     0.064 C 
HETATM    4  N1  UNL     1     -11.557   0.904  -5.314  1.00  0.00    -0.197 NA
ENDROOT
BRANCH   2   5
HETATM    5  C4  UNL     1     -12.199  -2.250  -6.381  1.00  0.00     0.009 C 
HETATM    6  C5  UNL     1     -12.870  -1.990  -5.008  1.00  0.00     0.022 C 
HETATM    7  C6  UNL     1     -12.175  -3.707  -6.587  1.00  0.00     0.089 C 
HETATM    8  C7  UNL     1     -11.231  -4.260  -7.600  1.00  0.00     0.371 A 
HETATM    9  C21 UNL     1     -13.624  -4.069  -6.934  1.00  0.00     0.146 C 
HETATM   10  O1  UNL     1     -11.971  -4.783  -8.708  1.00  0.00    -0.317 OA
HETATM   11  N2  UNL     1     -10.609  -3.373  -8.491  1.00  0.00     0.146 N 
HETATM   12  C8  UNL     1     -11.285  -3.932  -9.554  1.00  0.00     0.394 A 
HETATM   13  C9  UNL     1     -12.320  -3.152 -10.305  1.00  0.00    -0.018 C 
HETATM   14  C10 UNL     1     -12.855  -2.018  -9.992  1.00  0.00     0.044 C 
HETATM   15  C20 UNL     1     -12.855  -4.143 -11.361  1.00  0.00     0.051 C 
HETATM   16  C11 UNL     1     -12.564  -1.230  -8.734  1.00  0.00     0.070 C 
HETATM   17  C12 UNL     1     -13.121  -1.831  -7.515  1.00  0.00    -0.019 C 
HETATM   18  C13 UNL     1     -14.190  -2.863  -7.670  1.00  0.00     0.058 C 
HETATM   19  C14 UNL     1     -15.342  -2.435  -6.673  1.00  0.00     0.030 C 
HETATM   20  C15 UNL     1     -14.964  -3.147  -8.848  1.00  0.00     0.055 C 
HETATM   21  C16 UNL     1     -15.003  -3.536 -10.189  1.00  0.00     0.015 C 
HETATM   22  C17 UNL     1     -14.270  -4.516 -10.992  1.00  0.00    -0.024 C 
HETATM   23  C18 UNL     1     -14.977  -4.551 -12.374  1.00  0.00     0.019 C 
HETATM   24  C19 UNL     1     -14.450  -5.890 -10.432  1.00  0.00     0.019 C 
HETATM   25  C22 UNL     1      -9.159  -3.626  -8.720  1.00  0.00     0.317 C 
BRANCH  16  26
HETATM   26  O2  UNL     1     -11.363  -0.616  -8.723  1.00  0.00    -0.360 OA
ATOM     27  H2  UNL     1     -10.950  -0.545  -9.576  1.00  0.00     0.217 HD
ENDBRANCH  16  26
BRANCH  20  28
HETATM   28  O3  UNL     1     -15.974  -2.076  -8.856  1.00  0.00    -0.364 OA
ATOM     29  H3  UNL     1     -15.597  -1.423  -9.435  1.00  0.00     0.217 HD
ENDBRANCH  20  28
BRANCH   9  30
HETATM   30  O4  UNL     1     -14.361  -4.515  -5.859  1.00  0.00    -0.394 OA
ATOM     31  H4  UNL     1     -15.301  -4.436  -5.977  1.00  0.00     0.210 HD
ENDBRANCH   9  30
ENDBRANCH   2   5
TORSDOF 4
ENDMDL
