MODEL 1
REMARK VINA RESULT: -8.938582341      0.000      0.000
REMARK  6 active torsions:
REMARK  status: ('A' for Active; 'I' for Inactive)
REMARK    1  A    between atoms: C2_2  and  C3_3 
REMARK    2  A    between atoms: C3_3  and  C4_4 
REMARK    3  A    between atoms: C4_4  and  C5_5 
REMARK    4  A    between atoms: C5_5  and  N1_6 
REMARK    5  A    between atoms: C17_20  and  C18_21 
REMARK    6  A    between atoms: C18_21  and  C19_22 
ROOT
HETATM    1  N1  UNL     1     -13.237   1.355 -20.656  1.00  0.00    -0.315 N 
HETATM    2  C6  UNL     1     -12.216   1.658 -19.836  1.00  0.00     0.056 A 
HETATM    3  C7  UNL     1     -10.921   1.183 -20.149  1.00  0.00     0.002 A 
HETATM    4  C8  UNL     1     -10.681   0.422 -21.248  1.00  0.00    -0.036 A 
HETATM    5  C9  UNL     1     -11.726   0.116 -22.072  1.00  0.00     0.017 A 
HETATM    6  C10 UNL     1     -12.960   0.595 -21.743  1.00  0.00     0.254 A 
HETATM    7  O1  UNL     1     -13.926   0.320 -22.493  1.00  0.00    -0.267 OA
HETATM    8  C11 UNL     1     -11.497  -0.710 -23.269  1.00  0.00     0.045 C 
HETATM    9  C12 UNL     1     -10.168  -0.548 -23.908  1.00  0.00     0.005 C 
HETATM   10  C13 UNL     1      -9.076  -0.023 -23.056  1.00  0.00     0.005 C 
HETATM   11  C14 UNL     1      -9.337  -0.077 -21.575  1.00  0.00     0.040 C 
HETATM   12  C15 UNL     1      -9.920   1.736 -19.191  1.00  0.00     0.314 C 
HETATM   13  N2  UNL     1     -10.643   2.902 -18.728  1.00  0.00     0.098 N 
HETATM   14  C16 UNL     1     -10.107   3.426 -17.509  1.00  0.00     0.311 C 
HETATM   15  C17 UNL     1     -11.997   2.358 -18.545  1.00  0.00     0.273 C 
ENDROOT
BRANCH  15  16
HETATM   16  C18 UNL     1     -11.975   1.411 -17.412  1.00  0.00     0.046 C 
BRANCH  16  17
HETATM   17  C19 UNL     1     -12.933   0.300 -17.311  1.00  0.00    -0.012 C 
HETATM   18  C20 UNL     1     -13.897   0.373 -16.154  1.00  0.00     0.005 C 
HETATM   19  C21 UNL     1     -13.743  -0.861 -15.270  1.00  0.00     0.000 C 
HETATM   20  C22 UNL     1     -14.054  -2.043 -16.121  1.00  0.00     0.000 C 
HETATM   21  C23 UNL     1     -12.977  -2.208 -17.155  1.00  0.00     0.000 C 
HETATM   22  C24 UNL     1     -12.138  -0.993 -17.277  1.00  0.00     0.005 C 
ENDBRANCH  16  17
ENDBRANCH  15  16
BRANCH   1  23
HETATM   23  C5  UNL     1     -14.519   1.893 -20.414  1.00  0.00     0.132 C 
BRANCH  23  24
HETATM   24  C4  UNL     1     -14.550   3.377 -20.149  1.00  0.00     0.020 C 
BRANCH  24  25
HETATM   25  C3  UNL     1     -15.469   3.571 -18.945  1.00  0.00     0.001 C 
BRANCH  25  26
HETATM   26  C2  UNL     1     -16.780   4.108 -19.506  1.00  0.00    -0.004 C 
HETATM   27  C1  UNL     1     -17.953   3.723 -18.639  1.00  0.00     0.005 C 
ENDBRANCH  25  26
ENDBRANCH  24  25
ENDBRANCH  23  24
ENDBRANCH   1  23
TORSDOF 6
ENDMDL
MODEL 2
REMARK VINA RESULT: -8.458819683      2.175      5.591
REMARK  6 active torsions:
REMARK  status: ('A' for Active; 'I' for Inactive)
REMARK    1  A    between atoms: C2_2  and  C3_3 
REMARK    2  A    between atoms: C3_3  and  C4_4 
REMARK    3  A    between atoms: C4_4  and  C5_5 
REMARK    4  A    between atoms: C5_5  and  N1_6 
REMARK    5  A    between atoms: C17_20  and  C18_21 
REMARK    6  A    between atoms: C18_21  and  C19_22 
ROOT
HETATM    1  N1  UNL     1     -13.022   2.972 -18.569  1.00  0.00    -0.315 N 
HETATM    2  C6  UNL     1     -12.515   1.777 -18.221  1.00  0.00     0.056 A 
HETATM    3  C7  UNL     1     -11.654   1.698 -17.101  1.00  0.00     0.002 A 
HETATM    4  C8  UNL     1     -11.319   2.794 -16.374  1.00  0.00    -0.036 A 
HETATM    5  C9  UNL     1     -11.836   4.004 -16.739  1.00  0.00     0.017 A 
HETATM    6  C10 UNL     1     -12.666   4.043 -17.820  1.00  0.00     0.254 A 
HETATM    7  O1  UNL     1     -13.147   5.149 -18.162  1.00  0.00    -0.267 OA
HETATM    8  C11 UNL     1     -11.488   5.211 -15.971  1.00  0.00     0.045 C 
HETATM    9  C12 UNL     1     -11.249   4.996 -14.522  1.00  0.00     0.005 C 
HETATM   10  C13 UNL     1     -10.879   3.625 -14.102  1.00  0.00     0.005 C 
HETATM   11  C14 UNL     1     -10.421   2.717 -15.211  1.00  0.00     0.040 C 
HETATM   12  C15 UNL     1     -11.310   0.275 -16.811  1.00  0.00     0.314 C 
HETATM   13  N2  UNL     1     -12.424  -0.383 -17.463  1.00  0.00     0.098 N 
HETATM   14  C16 UNL     1     -12.172  -1.773 -17.697  1.00  0.00     0.311 C 
HETATM   15  C17 UNL     1     -12.525   0.378 -18.717  1.00  0.00     0.273 C 
ENDROOT
BRANCH  15  16
HETATM   16  C18 UNL     1     -11.334   0.087 -19.542  1.00  0.00     0.046 C 
BRANCH  16  17
HETATM   17  C19 UNL     1     -11.271   0.447 -20.966  1.00  0.00    -0.012 C 
HETATM   18  C20 UNL     1     -12.559   0.298 -21.735  1.00  0.00     0.005 C 
HETATM   19  C21 UNL     1     -12.363  -0.675 -22.894  1.00  0.00     0.000 C 
HETATM   20  C22 UNL     1     -11.308  -0.096 -23.770  1.00  0.00     0.000 C 
HETATM   21  C23 UNL     1      -9.989  -0.128 -23.050  1.00  0.00     0.000 C 
HETATM   22  C24 UNL     1     -10.159  -0.372 -21.599  1.00  0.00     0.005 C 
ENDBRANCH  16  17
ENDBRANCH  15  16
BRANCH   1  23
HETATM   23  C5  UNL     1     -13.954   3.061 -19.625  1.00  0.00     0.132 C 
BRANCH  23  24
HETATM   24  C4  UNL     1     -15.389   2.816 -19.234  1.00  0.00     0.020 C 
BRANCH  24  25
HETATM   25  C3  UNL     1     -16.170   4.039 -19.710  1.00  0.00     0.001 C 
BRANCH  25  26
HETATM   26  C2  UNL     1     -17.503   3.992 -18.974  1.00  0.00    -0.004 C 
HETATM   27  C1  UNL     1     -18.596   4.670 -19.762  1.00  0.00     0.005 C 
ENDBRANCH  25  26
ENDBRANCH  24  25
ENDBRANCH  23  24
ENDBRANCH   1  23
TORSDOF 6
ENDMDL
MODEL 3
REMARK VINA RESULT: -8.284208248      2.386      4.886
REMARK  6 active torsions:
REMARK  status: ('A' for Active; 'I' for Inactive)
REMARK    1  A    between atoms: C2_2  and  C3_3 
REMARK    2  A    between atoms: C3_3  and  C4_4 
REMARK    3  A    between atoms: C4_4  and  C5_5 
REMARK    4  A    between atoms: C5_5  and  N1_6 
REMARK    5  A    between atoms: C17_20  and  C18_21 
REMARK    6  A    between atoms: C18_21  and  C19_22 
ROOT
HETATM    1  N1  UNL     1     -11.579   0.715 -18.310  1.00  0.00    -0.315 N 
HETATM    2  C6  UNL     1     -12.660   1.502 -18.446  1.00  0.00     0.056 A 
HETATM    3  C7  UNL     1     -13.215   1.687 -19.734  1.00  0.00     0.002 A 
HETATM    4  C8  UNL     1     -12.683   1.100 -20.836  1.00  0.00    -0.036 A 
HETATM    5  C9  UNL     1     -11.582   0.306 -20.688  1.00  0.00     0.017 A 
HETATM    6  C10 UNL     1     -11.076   0.145 -19.432  1.00  0.00     0.254 A 
HETATM    7  O1  UNL     1     -10.066  -0.582 -19.284  1.00  0.00    -0.267 OA
HETATM    8  C11 UNL     1     -10.981  -0.341 -21.866  1.00  0.00     0.045 C 
HETATM    9  C12 UNL     1     -11.933  -0.713 -22.941  1.00  0.00     0.005 C 
HETATM   10  C13 UNL     1     -13.220   0.019 -22.978  1.00  0.00     0.005 C 
HETATM   11  C14 UNL     1     -13.255   1.292 -22.178  1.00  0.00     0.040 C 
HETATM   12  C15 UNL     1     -14.475   2.482 -19.646  1.00  0.00     0.314 C 
HETATM   13  N2  UNL     1     -14.821   2.238 -18.261  1.00  0.00     0.098 N 
HETATM   14  C16 UNL     1     -15.773   3.185 -17.764  1.00  0.00     0.311 C 
HETATM   15  C17 UNL     1     -13.514   2.372 -17.601  1.00  0.00     0.273 C 
ENDROOT
BRANCH  15  16
HETATM   16  C18 UNL     1     -13.091   3.786 -17.677  1.00  0.00     0.046 C 
BRANCH  16  17
HETATM   17  C19 UNL     1     -12.289   4.413 -16.616  1.00  0.00    -0.012 C 
HETATM   18  C20 UNL     1     -12.177   3.630 -15.332  1.00  0.00     0.005 C 
HETATM   19  C21 UNL     1     -12.722   4.455 -14.171  1.00  0.00     0.000 C 
HETATM   20  C22 UNL     1     -11.893   5.689 -14.091  1.00  0.00     0.000 C 
HETATM   21  C23 UNL     1     -12.161   6.547 -15.295  1.00  0.00     0.000 C 
HETATM   22  C24 UNL     1     -12.862   5.797 -16.363  1.00  0.00     0.005 C 
ENDBRANCH  16  17
ENDBRANCH  15  16
BRANCH   1  23
HETATM   23  C5  UNL     1     -11.063   0.442 -17.024  1.00  0.00     0.132 C 
BRANCH  23  24
HETATM   24  C4  UNL     1     -11.631  -0.782 -16.353  1.00  0.00     0.020 C 
BRANCH  24  25
HETATM   25  C3  UNL     1     -12.660  -0.272 -15.347  1.00  0.00     0.001 C 
BRANCH  25  26
HETATM   26  C2  UNL     1     -13.997  -0.856 -15.788  1.00  0.00    -0.004 C 
HETATM   27  C1  UNL     1     -13.815  -2.154 -16.536  1.00  0.00     0.005 C 
ENDBRANCH  25  26
ENDBRANCH  24  25
ENDBRANCH  23  24
ENDBRANCH   1  23
TORSDOF 6
ENDMDL
MODEL 4
REMARK VINA RESULT: -8.156360826      2.780      6.171
REMARK  6 active torsions:
REMARK  status: ('A' for Active; 'I' for Inactive)
REMARK    1  A    between atoms: C2_2  and  C3_3 
REMARK    2  A    between atoms: C3_3  and  C4_4 
REMARK    3  A    between atoms: C4_4  and  C5_5 
REMARK    4  A    between atoms: C5_5  and  N1_6 
REMARK    5  A    between atoms: C17_20  and  C18_21 
REMARK    6  A    between atoms: C18_21  and  C19_22 
ROOT
HETATM    1  N1  UNL     1     -11.948   0.896 -17.247  1.00  0.00    -0.315 N 
HETATM    2  C6  UNL     1     -12.285   2.071 -16.687  1.00  0.00     0.056 A 
HETATM    3  C7  UNL     1     -12.009   2.279 -15.315  1.00  0.00     0.002 A 
HETATM    4  C8  UNL     1     -11.423   1.324 -14.548  1.00  0.00    -0.036 A 
HETATM    5  C9  UNL     1     -11.089   0.133 -15.126  1.00  0.00     0.017 A 
HETATM    6  C10 UNL     1     -11.365  -0.032 -16.451  1.00  0.00     0.254 A 
HETATM    7  O1  UNL     1     -11.062  -1.122 -16.992  1.00  0.00    -0.267 OA
HETATM    8  C11 UNL     1     -10.456  -0.922 -14.318  1.00  0.00     0.045 C 
HETATM    9  C12 UNL     1      -9.577  -0.442 -13.223  1.00  0.00     0.005 C 
HETATM   10  C13 UNL     1      -9.814   0.934 -12.729  1.00  0.00     0.005 C 
HETATM   11  C14 UNL     1     -11.137   1.535 -13.120  1.00  0.00     0.040 C 
HETATM   12  C15 UNL     1     -12.338   3.681 -14.927  1.00  0.00     0.314 C 
HETATM   13  N2  UNL     1     -12.279   4.314 -16.228  1.00  0.00     0.098 N 
HETATM   14  C16 UNL     1     -12.933   5.588 -16.243  1.00  0.00     0.311 C 
HETATM   15  C17 UNL     1     -12.972   3.328 -17.070  1.00  0.00     0.273 C 
ENDROOT
BRANCH  15  16
HETATM   16  C18 UNL     1     -14.399   3.304 -16.688  1.00  0.00     0.046 C 
BRANCH  16  17
HETATM   17  C19 UNL     1     -15.450   2.923 -17.643  1.00  0.00    -0.012 C 
HETATM   18  C20 UNL     1     -15.461   3.686 -18.943  1.00  0.00     0.005 C 
HETATM   19  C21 UNL     1     -16.802   4.391 -19.122  1.00  0.00     0.000 C 
HETATM   20  C22 UNL     1     -17.847   3.330 -19.143  1.00  0.00     0.000 C 
HETATM   21  C23 UNL     1     -17.951   2.706 -17.781  1.00  0.00     0.000 C 
HETATM   22  C24 UNL     1     -16.786   3.042 -16.929  1.00  0.00     0.005 C 
ENDBRANCH  16  17
ENDBRANCH  15  16
BRANCH   1  23
HETATM   23  C5  UNL     1     -12.131   0.699 -18.634  1.00  0.00     0.132 C 
BRANCH  23  24
HETATM   24  C4  UNL     1     -11.135   1.407 -19.516  1.00  0.00     0.020 C 
BRANCH  24  25
HETATM   25  C3  UNL     1     -11.266   0.768 -20.896  1.00  0.00     0.001 C 
BRANCH  25  26
HETATM   26  C2  UNL     1     -12.758   0.754 -21.207  1.00  0.00    -0.004 C 
HETATM   27  C1  UNL     1     -13.042   0.098 -22.536  1.00  0.00     0.005 C 
ENDBRANCH  25  26
ENDBRANCH  24  25
ENDBRANCH  23  24
ENDBRANCH   1  23
TORSDOF 6
ENDMDL
MODEL 5
REMARK VINA RESULT: -8.120251282      3.976      6.752
REMARK  6 active torsions:
REMARK  status: ('A' for Active; 'I' for Inactive)
REMARK    1  A    between atoms: C2_2  and  C3_3 
REMARK    2  A    between atoms: C3_3  and  C4_4 
REMARK    3  A    between atoms: C4_4  and  C5_5 
REMARK    4  A    between atoms: C5_5  and  N1_6 
REMARK    5  A    between atoms: C17_20  and  C18_21 
REMARK    6  A    between atoms: C18_21  and  C19_22 
ROOT
HETATM    1  N1  UNL     1     -10.931   0.872 -15.345  1.00  0.00    -0.315 N 
HETATM    2  C6  UNL     1     -10.905   2.204 -15.523  1.00  0.00     0.056 A 
HETATM    3  C7  UNL     1     -11.086   2.725 -16.826  1.00  0.00     0.002 A 
HETATM    4  C8  UNL     1     -11.278   1.919 -17.901  1.00  0.00    -0.036 A 
HETATM    5  C9  UNL     1     -11.298   0.567 -17.710  1.00  0.00     0.017 A 
HETATM    6  C10 UNL     1     -11.125   0.099 -16.441  1.00  0.00     0.254 A 
HETATM    7  O1  UNL     1     -11.143  -1.140 -16.254  1.00  0.00    -0.267 OA
HETATM    8  C11 UNL     1     -11.500  -0.332 -18.858  1.00  0.00     0.045 C 
HETATM    9  C12 UNL     1     -12.363   0.203 -19.940  1.00  0.00     0.005 C 
HETATM   10  C13 UNL     1     -12.498   1.675 -20.022  1.00  0.00     0.005 C 
HETATM   11  C14 UNL     1     -11.463   2.456 -19.258  1.00  0.00     0.040 C 
HETATM   12  C15 UNL     1     -11.152   4.215 -16.784  1.00  0.00     0.314 C 
HETATM   13  N2  UNL     1     -11.533   4.403 -15.399  1.00  0.00     0.098 N 
HETATM   14  C16 UNL     1     -11.294   5.741 -14.947  1.00  0.00     0.311 C 
HETATM   15  C17 UNL     1     -10.668   3.428 -14.719  1.00  0.00     0.273 C 
ENDROOT
BRANCH  15  16
HETATM   16  C18 UNL     1      -9.267   3.885 -14.827  1.00  0.00     0.046 C 
BRANCH  16  17
HETATM   17  C19 UNL     1      -8.428   4.099 -13.639  1.00  0.00    -0.012 C 
HETATM   18  C20 UNL     1      -7.001   4.502 -13.911  1.00  0.00     0.005 C 
HETATM   19  C21 UNL     1      -6.046   3.482 -13.298  1.00  0.00     0.000 C 
HETATM   20  C22 UNL     1      -6.305   3.477 -11.831  1.00  0.00     0.000 C 
HETATM   21  C23 UNL     1      -7.665   2.896 -11.568  1.00  0.00     0.000 C 
HETATM   22  C24 UNL     1      -8.487   2.835 -12.799  1.00  0.00     0.005 C 
ENDBRANCH  16  17
ENDBRANCH  15  16
BRANCH   1  23
HETATM   23  C5  UNL     1     -10.844   0.333 -14.043  1.00  0.00     0.132 C 
BRANCH  23  24
HETATM   24  C4  UNL     1     -12.122   0.377 -13.246  1.00  0.00     0.020 C 
BRANCH  24  25
HETATM   25  C3  UNL     1     -11.798   1.157 -11.974  1.00  0.00     0.001 C 
BRANCH  25  26
HETATM   26  C2  UNL     1     -10.857   0.268 -11.170  1.00  0.00    -0.004 C 
HETATM   27  C1  UNL     1     -10.247   1.013 -10.009  1.00  0.00     0.005 C 
ENDBRANCH  25  26
ENDBRANCH  24  25
ENDBRANCH  23  24
ENDBRANCH   1  23
TORSDOF 6
ENDMDL
