MODEL 1
REMARK VINA RESULT: -6.678424396      0.000      0.000
REMARK  5 active torsions:
REMARK  status: ('A' for Active; 'I' for Inactive)
REMARK    1  A    between atoms: S1_2  and  C2_3 
REMARK    2  A    between atoms: C2_3  and  N1_5 
REMARK    3  A    between atoms: C8_11  and  C9_12 
REMARK    4  A    between atoms: C9_12  and  S3_13 
REMARK    5  A    between atoms: S3_13  and  C10_16 
ROOT
HETATM    1  N1  UNL     1       5.492  16.611 -35.618  1.00  0.00    -0.366 N 
HETATM    2  C3  UNL     1       5.986  15.724 -34.603  1.00  0.00     0.124 C 
HETATM    3  C4  UNL     1       4.996  14.853 -33.943  1.00  0.00     0.025 C 
HETATM    4  C5  UNL     1       3.554  15.198 -34.092  1.00  0.00    -0.002 C 
HETATM    5  C6  UNL     1       3.159  16.265 -33.091  1.00  0.00     0.006 C 
HETATM    6  C7  UNL     1       3.274  17.275 -34.209  1.00  0.00     0.013 C 
HETATM    7  C8  UNL     1       3.200  16.115 -35.178  1.00  0.00    -0.007 C 
HETATM    8  C14 UNL     1       4.246  16.270 -36.251  1.00  0.00     0.135 C 
ENDROOT
BRANCH   7   9
HETATM    9  C9  UNL     1       1.819  16.003 -35.721  1.00  0.00     0.152 C 
BRANCH   9  10
HETATM   10  S3  UNL     1       1.497  14.708 -36.831  1.00  0.00     0.152 S 
HETATM   11  O1  UNL     1       0.972  15.322 -38.123  1.00  0.00    -0.227 OA
HETATM   12  O2  UNL     1       2.629  13.828 -37.172  1.00  0.00    -0.227 OA
BRANCH  10  13
HETATM   13  C10 UNL     1       0.111  13.770 -36.173  1.00  0.00     0.053 C 
HETATM   14  C11 UNL     1      -1.170  14.155 -36.840  1.00  0.00     0.031 C 
HETATM   15  C12 UNL     1       0.383  12.289 -36.268  1.00  0.00     0.031 C 
HETATM   16  C13 UNL     1      -0.002  14.138 -34.708  1.00  0.00     0.031 C 
ENDBRANCH  10  13
ENDBRANCH   9  10
ENDBRANCH   7   9
BRANCH   1  17
HETATM   17  C2  UNL     1       6.244  17.792 -35.971  1.00  0.00     0.136 C 
HETATM   18  S2  UNL     1       7.606  18.197 -35.209  1.00  0.00    -0.053 SA
BRANCH  17  19
HETATM   19  S1  UNL     1       5.594  18.790 -37.299  1.00  0.00    -0.105 SA
HETATM   20  C1  UNL     1       6.654  20.222 -37.509  1.00  0.00     0.098 C 
ENDBRANCH  17  19
ENDBRANCH   1  17
TORSDOF 5
ENDMDL
MODEL 2
REMARK VINA RESULT: -6.629000324      0.616      1.115
REMARK  5 active torsions:
REMARK  status: ('A' for Active; 'I' for Inactive)
REMARK    1  A    between atoms: S1_2  and  C2_3 
REMARK    2  A    between atoms: C2_3  and  N1_5 
REMARK    3  A    between atoms: C8_11  and  C9_12 
REMARK    4  A    between atoms: C9_12  and  S3_13 
REMARK    5  A    between atoms: S3_13  and  C10_16 
ROOT
HETATM    1  N1  UNL     1       5.424  16.747 -35.644  1.00  0.00    -0.366 N 
HETATM    2  C3  UNL     1       5.972  15.922 -34.604  1.00  0.00     0.124 C 
HETATM    3  C4  UNL     1       5.044  14.990 -33.938  1.00  0.00     0.025 C 
HETATM    4  C5  UNL     1       3.581  15.218 -34.111  1.00  0.00    -0.002 C 
HETATM    5  C6  UNL     1       3.091  16.271 -33.137  1.00  0.00     0.006 C 
HETATM    6  C7  UNL     1       3.143  17.264 -34.274  1.00  0.00     0.013 C 
HETATM    7  C8  UNL     1       3.172  16.083 -35.219  1.00  0.00    -0.007 C 
HETATM    8  C14 UNL     1       4.217  16.298 -36.284  1.00  0.00     0.135 C 
ENDROOT
BRANCH   7   9
HETATM    9  C9  UNL     1       1.811  15.853 -35.776  1.00  0.00     0.152 C 
BRANCH   9  10
HETATM   10  S3  UNL     1       1.577  14.445 -36.765  1.00  0.00     0.152 S 
HETATM   11  O1  UNL     1       1.238  14.916 -38.173  1.00  0.00    -0.227 OA
HETATM   12  O2  UNL     1       2.706  13.504 -36.858  1.00  0.00    -0.227 OA
BRANCH  10  13
HETATM   13  C10 UNL     1       0.085  13.626 -36.184  1.00  0.00     0.053 C 
HETATM   14  C11 UNL     1      -1.121  14.101 -36.930  1.00  0.00     0.031 C 
HETATM   15  C12 UNL     1       0.246  12.127 -36.252  1.00  0.00     0.031 C 
HETATM   16  C13 UNL     1      -0.086  14.019 -34.731  1.00  0.00     0.031 C 
ENDBRANCH  10  13
ENDBRANCH   9  10
ENDBRANCH   7   9
BRANCH   1  17
HETATM   17  C2  UNL     1       6.087  17.975 -36.012  1.00  0.00     0.136 C 
HETATM   18  S2  UNL     1       5.410  19.047 -37.009  1.00  0.00    -0.053 SA
BRANCH  17  19
HETATM   19  S1  UNL     1       7.704  18.256 -35.310  1.00  0.00    -0.105 SA
HETATM   20  C1  UNL     1       8.725  19.074 -36.538  1.00  0.00     0.098 C 
ENDBRANCH  17  19
ENDBRANCH   1  17
TORSDOF 5
ENDMDL
MODEL 3
REMARK VINA RESULT: -6.472278094      2.268      6.010
REMARK  5 active torsions:
REMARK  status: ('A' for Active; 'I' for Inactive)
REMARK    1  A    between atoms: S1_2  and  C2_3 
REMARK    2  A    between atoms: C2_3  and  N1_5 
REMARK    3  A    between atoms: C8_11  and  C9_12 
REMARK    4  A    between atoms: C9_12  and  S3_13 
REMARK    5  A    between atoms: S3_13  and  C10_16 
ROOT
HETATM    1  N1  UNL     1       1.477  15.251 -35.197  1.00  0.00    -0.366 N 
HETATM    2  C3  UNL     1       1.244  15.632 -33.833  1.00  0.00     0.124 C 
HETATM    3  C4  UNL     1       2.340  16.337 -33.144  1.00  0.00     0.025 C 
HETATM    4  C5  UNL     1       3.700  16.279 -33.753  1.00  0.00    -0.002 C 
HETATM    5  C6  UNL     1       4.397  14.990 -33.366  1.00  0.00     0.006 C 
HETATM    6  C7  UNL     1       4.021  14.446 -34.724  1.00  0.00     0.013 C 
HETATM    7  C8  UNL     1       3.780  15.875 -35.158  1.00  0.00    -0.007 C 
HETATM    8  C14 UNL     1       2.487  15.970 -35.927  1.00  0.00     0.135 C 
ENDROOT
BRANCH   7   9
HETATM    9  C9  UNL     1       4.953  16.371 -35.927  1.00  0.00     0.152 C 
BRANCH   9  10
HETATM   10  S3  UNL     1       4.963  18.046 -36.384  1.00  0.00     0.152 S 
HETATM   11  O1  UNL     1       4.522  18.134 -37.840  1.00  0.00    -0.227 OA
HETATM   12  O2  UNL     1       4.113  18.954 -35.596  1.00  0.00    -0.227 OA
BRANCH  10  13
HETATM   13  C10 UNL     1       6.677  18.589 -36.391  1.00  0.00     0.053 C 
HETATM   14  C11 UNL     1       6.811  19.957 -36.979  1.00  0.00     0.031 C 
HETATM   15  C12 UNL     1       7.263  18.503 -35.003  1.00  0.00     0.031 C 
HETATM   16  C13 UNL     1       7.432  17.626 -37.284  1.00  0.00     0.031 C 
ENDBRANCH  10  13
ENDBRANCH   9  10
ENDBRANCH   7   9
BRANCH   1  17
HETATM   17  C2  UNL     1       0.706  14.183 -35.788  1.00  0.00     0.136 C 
HETATM   18  S2  UNL     1       0.948  12.637 -35.401  1.00  0.00    -0.053 SA
BRANCH  17  19
HETATM   19  S1  UNL     1      -0.539  14.655 -36.977  1.00  0.00    -0.105 SA
HETATM   20  C1  UNL     1       0.258  14.920 -38.563  1.00  0.00     0.098 C 
ENDBRANCH  17  19
ENDBRANCH   1  17
TORSDOF 5
ENDMDL
MODEL 4
REMARK VINA RESULT: -6.418682642      2.476      6.152
REMARK  5 active torsions:
REMARK  status: ('A' for Active; 'I' for Inactive)
REMARK    1  A    between atoms: S1_2  and  C2_3 
REMARK    2  A    between atoms: C2_3  and  N1_5 
REMARK    3  A    between atoms: C8_11  and  C9_12 
REMARK    4  A    between atoms: C9_12  and  S3_13 
REMARK    5  A    between atoms: S3_13  and  C10_16 
ROOT
HETATM    1  N1  UNL     1       1.363  15.337 -35.640  1.00  0.00    -0.366 N 
HETATM    2  C3  UNL     1       1.069  15.455 -34.239  1.00  0.00     0.124 C 
HETATM    3  C4  UNL     1       2.161  15.930 -33.369  1.00  0.00     0.025 C 
HETATM    4  C5  UNL     1       3.550  15.896 -33.910  1.00  0.00    -0.002 C 
HETATM    5  C6  UNL     1       4.143  14.509 -33.758  1.00  0.00     0.006 C 
HETATM    6  C7  UNL     1       3.820  14.274 -35.215  1.00  0.00     0.013 C 
HETATM    7  C8  UNL     1       3.693  15.774 -35.363  1.00  0.00    -0.007 C 
HETATM    8  C14 UNL     1       2.458  16.113 -36.158  1.00  0.00     0.135 C 
ENDROOT
BRANCH   7   9
HETATM    9  C9  UNL     1       4.939  16.328 -35.958  1.00  0.00     0.152 C 
BRANCH   9  10
HETATM   10  S3  UNL     1       5.308  17.994 -35.640  1.00  0.00     0.152 S 
HETATM   11  O1  UNL     1       3.989  18.749 -35.523  1.00  0.00    -0.227 OA
HETATM   12  O2  UNL     1       6.106  18.280 -34.436  1.00  0.00    -0.227 OA
BRANCH  10  13
HETATM   13  C10 UNL     1       6.087  18.661 -37.118  1.00  0.00     0.053 C 
HETATM   14  C11 UNL     1       5.954  20.149 -37.178  1.00  0.00     0.031 C 
HETATM   15  C12 UNL     1       7.525  18.211 -37.206  1.00  0.00     0.031 C 
HETATM   16  C13 UNL     1       5.337  18.082 -38.300  1.00  0.00     0.031 C 
ENDBRANCH  10  13
ENDBRANCH   9  10
ENDBRANCH   7   9
BRANCH   1  17
HETATM   17  C2  UNL     1       0.567  14.465 -36.471  1.00  0.00     0.136 C 
HETATM   18  S2  UNL     1       0.279  14.793 -38.023  1.00  0.00    -0.053 SA
BRANCH  17  19
HETATM   19  S1  UNL     1      -0.090  12.997 -35.697  1.00  0.00    -0.105 SA
HETATM   20  C1  UNL     1       1.176  11.726 -35.717  1.00  0.00     0.098 C 
ENDBRANCH  17  19
ENDBRANCH   1  17
TORSDOF 5
ENDMDL
MODEL 5
REMARK VINA RESULT: -6.407940445      2.231      6.210
REMARK  5 active torsions:
REMARK  status: ('A' for Active; 'I' for Inactive)
REMARK    1  A    between atoms: S1_2  and  C2_3 
REMARK    2  A    between atoms: C2_3  and  N1_5 
REMARK    3  A    between atoms: C8_11  and  C9_12 
REMARK    4  A    between atoms: C9_12  and  S3_13 
REMARK    5  A    between atoms: S3_13  and  C10_16 
ROOT
HETATM    1  N1  UNL     1       1.392  15.329 -35.377  1.00  0.00    -0.366 N 
HETATM    2  C3  UNL     1       1.160  15.599 -33.986  1.00  0.00     0.124 C 
HETATM    3  C4  UNL     1       2.280  16.188 -33.228  1.00  0.00     0.025 C 
HETATM    4  C5  UNL     1       3.643  16.118 -33.830  1.00  0.00    -0.002 C 
HETATM    5  C6  UNL     1       4.274  14.768 -33.553  1.00  0.00     0.006 C 
HETATM    6  C7  UNL     1       3.890  14.365 -34.957  1.00  0.00     0.013 C 
HETATM    7  C8  UNL     1       3.721  15.836 -35.264  1.00  0.00    -0.007 C 
HETATM    8  C14 UNL     1       2.443  16.061 -36.032  1.00  0.00     0.135 C 
ENDROOT
BRANCH   7   9
HETATM    9  C9  UNL     1       4.925  16.341 -35.978  1.00  0.00     0.152 C 
BRANCH   9  10
HETATM   10  S3  UNL     1       4.969  18.029 -36.382  1.00  0.00     0.152 S 
HETATM   11  O1  UNL     1       4.555  18.170 -37.841  1.00  0.00    -0.227 OA
HETATM   12  O2  UNL     1       4.120  18.926 -35.579  1.00  0.00    -0.227 OA
BRANCH  10  13
HETATM   13  C10 UNL     1       6.691  18.545 -36.343  1.00  0.00     0.053 C 
HETATM   14  C11 UNL     1       6.857  19.926 -36.889  1.00  0.00     0.031 C 
HETATM   15  C12 UNL     1       7.251  18.410 -34.948  1.00  0.00     0.031 C 
HETATM   16  C13 UNL     1       7.446  17.595 -37.250  1.00  0.00     0.031 C 
ENDBRANCH  10  13
ENDBRANCH   9  10
ENDBRANCH   7   9
BRANCH   1  17
HETATM   17  C2  UNL     1       0.578  14.356 -36.066  1.00  0.00     0.136 C 
HETATM   18  S2  UNL     1      -0.037  14.638 -37.530  1.00  0.00    -0.053 SA
BRANCH  17  19
HETATM   19  S1  UNL     1       0.281  12.813 -35.218  1.00  0.00    -0.105 SA
HETATM   20  C1  UNL     1       1.473  11.604 -35.797  1.00  0.00     0.098 C 
ENDBRANCH  17  19
ENDBRANCH   1  17
TORSDOF 5
ENDMDL
