MODEL 1
REMARK VINA RESULT: -10.129377114      0.000      0.000
REMARK  16 active torsions:
REMARK  status: ('A' for Active; 'I' for Inactive)
REMARK    1  A    between atoms: O1_2  and  C2_3 
REMARK    2  A    between atoms: C5_6  and  C6_7 
REMARK    3  A    between atoms: N1_9  and  C8_10 
REMARK    4  A    between atoms: C8_10  and  O2_11 
REMARK    5  A    between atoms: O2_11  and  C9_12 
REMARK    6  A    between atoms: C9_12  and  C10_14 
REMARK    7  A    between atoms: C10_14  and  N2_15 
REMARK    8  A    between atoms: C12_17  and  C13_18 
REMARK    9  A    between atoms: C13_18  and  N3_19 
REMARK   10  A    between atoms: N3_19  and  C14_21 
REMARK   11  A    between atoms: N5_25  and  C16_26 
REMARK   12  A    between atoms: C16_26  and  O4_27 
REMARK   13  A    between atoms: C16_26  and  C17_29 
REMARK   14  A    between atoms: C20_37  and  C21_38 
REMARK   15  A    between atoms: C23_49  and  N13_50 
REMARK   16  A    between atoms: C25_61  and  N17_62 
ROOT
HETATM    1  C9  UNL     1      15.408  20.316  21.943  1.00  0.00     0.280 C 
HETATM    2  O3  UNL     1      16.241  20.886  21.197  1.00  0.00    -0.263 OA
ENDROOT
BRANCH   1   3
HETATM    3  O2  UNL     1      15.782  19.804  23.140  1.00  0.00    -0.299 OA
BRANCH   3   4
HETATM    4  C8  UNL     1      15.644  18.500  23.551  1.00  0.00     0.324 C 
BRANCH   4   5
HETATM    5  N1  UNL     1      14.944  18.338  24.814  1.00  0.00    -0.261 N 
HETATM    6  C7  UNL     1      13.802  17.739  25.133  1.00  0.00     0.141 A 
HETATM    7  C6  UNL     1      13.584  17.841  26.493  1.00  0.00     0.074 A 
HETATM    8  N12 UNL     1      14.602  18.502  26.951  1.00  0.00    -0.282 N 
HETATM    9  N11 UNL     1      15.438  18.815  25.974  1.00  0.00    -0.018 NA
ATOM     10  H12 UNL     1      14.740  18.747  27.932  1.00  0.00     0.184 HD
BRANCH   7  11
HETATM   11  C5  UNL     1      12.428  17.270  27.108  1.00  0.00     0.008 A 
HETATM   12  C4  UNL     1      11.336  18.133  27.436  1.00  0.00     0.017 A 
HETATM   13  C3  UNL     1      10.178  17.665  27.984  1.00  0.00     0.039 A 
HETATM   14  C2  UNL     1       9.992  16.338  28.252  1.00  0.00     0.083 A 
HETATM   15  C26 UNL     1      11.004  15.469  27.961  1.00  0.00     0.056 A 
HETATM   16  C22 UNL     1      12.183  15.968  27.405  1.00  0.00     0.037 A 
HETATM   17  C25 UNL     1      10.670  14.153  28.239  1.00  0.00     0.128 C 
HETATM   18  C23 UNL     1      13.323  15.173  27.227  1.00  0.00     0.127 C 
HETATM   19  N14 UNL     1      13.371  13.922  26.751  1.00  0.00    -0.176 N 
HETATM   20  C24 UNL     1      12.369  13.004  26.891  1.00  0.00     0.679 C 
ATOM     21  H14 UNL     1      14.213  13.635  26.250  1.00  0.00     0.186 HD
HETATM   22  N15 UNL     1      12.474  11.947  26.166  1.00  0.00    -0.234 N 
HETATM   23  N16 UNL     1      11.264  13.055  27.698  1.00  0.00    -0.176 N 
ATOM     24 2H15 UNL     1      13.297  11.910  25.565  1.00  0.00     0.174 HD
ATOM     25 1H15 UNL     1      11.725  11.262  26.271  1.00  0.00     0.174 HD
ATOM     26  H16 UNL     1      10.832  12.158  27.922  1.00  0.00     0.186 HD
BRANCH  14  27
HETATM   27  O1  UNL     1       8.831  15.821  28.805  1.00  0.00    -0.355 OA
HETATM   28  C1  UNL     1       7.791  16.771  29.089  1.00  0.00     0.210 C 
ENDBRANCH  14  27
BRANCH  18  29
HETATM   29  N13 UNL     1      14.396  15.764  27.637  1.00  0.00    -0.384 N 
ATOM     30 2H13 UNL     1      14.562  16.747  27.423  1.00  0.00     0.157 HD
ATOM     31 1H13 UNL     1      15.020  15.126  28.131  1.00  0.00     0.157 HD
ENDBRANCH  18  29
BRANCH  17  32
HETATM   32  N17 UNL     1       9.714  14.003  29.072  1.00  0.00    -0.384 N 
ATOM     33 2H17 UNL     1       9.852  13.261  29.756  1.00  0.00     0.157 HD
ATOM     34 1H17 UNL     1       8.899  14.614  29.015  1.00  0.00     0.157 HD
ENDBRANCH  17  32
ENDBRANCH   7  11
ENDBRANCH   4   5
ENDBRANCH   3   4
ENDBRANCH   1   3
BRANCH   1  35
HETATM   35  C10 UNL     1      13.963  20.201  21.499  1.00  0.00     0.260 C 
BRANCH  35  36
HETATM   36  N2  UNL     1      13.315  21.447  21.820  1.00  0.00    -0.278 N 
HETATM   37  C11 UNL     1      12.148  21.829  21.275  1.00  0.00     0.140 A 
HETATM   38  C12 UNL     1      11.819  23.055  21.801  1.00  0.00     0.061 A 
HETATM   39  N9  UNL     1      12.810  23.357  22.648  1.00  0.00    -0.287 N 
HETATM   40  N10 UNL     1      13.719  22.377  22.656  1.00  0.00    -0.240 N 
ATOM     41  H9  UNL     1      12.865  24.210  23.204  1.00  0.00     0.188 HD
ATOM     42  H10 UNL     1      14.574  22.354  23.213  1.00  0.00     0.208 HD
BRANCH  38  43
HETATM   43  C13 UNL     1      10.613  23.884  21.491  1.00  0.00     0.181 C 
BRANCH  43  44
HETATM   44  N3  UNL     1      10.529  24.196  20.096  1.00  0.00    -0.372 N 
ATOM     45  H3  UNL     1      11.369  24.542  19.631  1.00  0.00     0.161 HD
BRANCH  44  46
HETATM   46  C14 UNL     1       9.361  24.053  19.329  1.00  0.00     0.119 C 
HETATM   47  N4  UNL     1       8.477  25.025  19.285  1.00  0.00    -0.352 N 
HETATM   48  C15 UNL     1       7.358  24.634  18.418  1.00  0.00     0.401 C 
ATOM     49  H4  UNL     1       8.557  25.915  19.778  1.00  0.00     0.162 HD
HETATM   50  N5  UNL     1       7.945  23.647  17.620  1.00  0.00     0.158 N 
HETATM   51  C20 UNL     1       8.861  22.914  18.479  1.00  0.00     0.394 C 
BRANCH  50  52
HETATM   52  C16 UNL     1       7.181  22.820  16.766  1.00  0.00     0.384 C 
BRANCH  52  53
HETATM   53  O4  UNL     1       8.011  21.730  16.329  1.00  0.00    -0.366 OA
ATOM     54  H4  UNL     1       8.346  21.937  15.465  1.00  0.00     0.212 HD
ENDBRANCH  52  53
BRANCH  52  55
HETATM   55  C17 UNL     1       6.777  23.492  15.499  1.00  0.00     0.161 C 
HETATM   56  C18 UNL     1       5.342  23.997  15.495  1.00  0.00     0.152 C 
HETATM   57  N6  UNL     1       5.387  24.941  14.364  1.00  0.00    -0.363 N 
HETATM   58  C19 UNL     1       6.607  25.314  14.152  1.00  0.00     0.184 C 
ATOM     59  H6  UNL     1       4.577  25.253  13.829  1.00  0.00     0.162 HD
HETATM   60  N7  UNL     1       6.986  26.229  13.120  1.00  0.00    -0.064 NA
HETATM   61  N8  UNL     1       7.482  24.668  15.119  1.00  0.00    -0.354 N 
ATOM     62  H8  UNL     1       8.393  24.987  15.450  1.00  0.00     0.162 HD
ENDBRANCH  52  55
ENDBRANCH  50  52
BRANCH  51  63
HETATM   63  C21 UNL     1       8.183  21.968  19.390  1.00  0.00     0.215 C 
HETATM   64  O5  UNL     1       8.034  20.756  19.007  1.00  0.00    -0.646 OA
HETATM   65  O6  UNL     1       7.698  22.282  20.626  1.00  0.00    -0.646 OA
ENDBRANCH  51  63
ENDBRANCH  44  46
ENDBRANCH  43  44
ENDBRANCH  38  43
ENDBRANCH  35  36
ENDBRANCH   1  35
TORSDOF 16
ENDMDL
MODEL 2
REMARK VINA RESULT: -9.688916572      6.602     10.060
REMARK  16 active torsions:
REMARK  status: ('A' for Active; 'I' for Inactive)
REMARK    1  A    between atoms: O1_2  and  C2_3 
REMARK    2  A    between atoms: C5_6  and  C6_7 
REMARK    3  A    between atoms: N1_9  and  C8_10 
REMARK    4  A    between atoms: C8_10  and  O2_11 
REMARK    5  A    between atoms: O2_11  and  C9_12 
REMARK    6  A    between atoms: C9_12  and  C10_14 
REMARK    7  A    between atoms: C10_14  and  N2_15 
REMARK    8  A    between atoms: C12_17  and  C13_18 
REMARK    9  A    between atoms: C13_18  and  N3_19 
REMARK   10  A    between atoms: N3_19  and  C14_21 
REMARK   11  A    between atoms: N5_25  and  C16_26 
REMARK   12  A    between atoms: C16_26  and  O4_27 
REMARK   13  A    between atoms: C16_26  and  C17_29 
REMARK   14  A    between atoms: C20_37  and  C21_38 
REMARK   15  A    between atoms: C23_49  and  N13_50 
REMARK   16  A    between atoms: C25_61  and  N17_62 
ROOT
HETATM    1  C9  UNL     1      10.310  24.381  22.920  1.00  0.00     0.280 C 
HETATM    2  O3  UNL     1       9.914  25.573  22.939  1.00  0.00    -0.263 OA
ENDROOT
BRANCH   1   3
HETATM    3  O2  UNL     1       9.793  23.463  23.772  1.00  0.00    -0.299 OA
BRANCH   3   4
HETATM    4  C8  UNL     1       8.826  22.531  23.482  1.00  0.00     0.324 C 
BRANCH   4   5
HETATM    5  N1  UNL     1       7.825  22.979  22.529  1.00  0.00    -0.261 N 
HETATM    6  C7  UNL     1       6.810  23.829  22.631  1.00  0.00     0.141 A 
HETATM    7  C6  UNL     1       6.162  23.935  21.415  1.00  0.00     0.074 A 
HETATM    8  N12 UNL     1       6.809  23.141  20.618  1.00  0.00    -0.282 N 
HETATM    9  N11 UNL     1       7.812  22.553  21.250  1.00  0.00    -0.018 NA
ATOM     10  H12 UNL     1       6.575  22.991  19.636  1.00  0.00     0.184 HD
BRANCH   7  11
HETATM   11  C5  UNL     1       5.036  24.796  21.243  1.00  0.00     0.008 A 
HETATM   12  C4  UNL     1       3.763  24.203  20.973  1.00  0.00     0.017 A 
HETATM   13  C3  UNL     1       2.628  24.947  20.839  1.00  0.00     0.039 A 
HETATM   14  C2  UNL     1       2.641  26.309  20.954  1.00  0.00     0.083 A 
HETATM   15  C26 UNL     1       3.830  26.927  21.209  1.00  0.00     0.056 A 
HETATM   16  C22 UNL     1       4.982  26.149  21.339  1.00  0.00     0.037 A 
HETATM   17  C25 UNL     1       3.696  28.300  21.347  1.00  0.00     0.128 C 
HETATM   18  C23 UNL     1       6.260  26.713  21.439  1.00  0.00     0.127 C 
HETATM   19  N14 UNL     1       6.626  27.765  22.184  1.00  0.00    -0.176 N 
HETATM   20  C24 UNL     1       5.799  28.803  22.508  1.00  0.00     0.679 C 
ATOM     21  H14 UNL     1       7.584  27.792  22.532  1.00  0.00     0.186 HD
HETATM   22  N15 UNL     1       6.231  29.595  23.426  1.00  0.00    -0.234 N 
HETATM   23  N16 UNL     1       4.572  29.120  21.989  1.00  0.00    -0.176 N 
ATOM     24 2H15 UNL     1       7.145  29.359  23.812  1.00  0.00     0.174 HD
ATOM     25 1H15 UNL     1       5.613  30.371  23.668  1.00  0.00     0.174 HD
ATOM     26  H16 UNL     1       4.278  30.091  22.098  1.00  0.00     0.186 HD
BRANCH  14  27
HETATM   27  O1  UNL     1       1.511  27.102  20.828  1.00  0.00    -0.355 OA
HETATM   28  C1  UNL     1       0.255  26.405  20.773  1.00  0.00     0.210 C 
ENDBRANCH  14  27
BRANCH  18  29
HETATM   29  N13 UNL     1       7.111  26.129  20.661  1.00  0.00    -0.384 N 
ATOM     30 2H13 UNL     1       6.825  25.348  20.071  1.00  0.00     0.157 HD
ATOM     31 1H13 UNL     1       8.049  26.518  20.759  1.00  0.00     0.157 HD
ENDBRANCH  18  29
BRANCH  17  32
HETATM   32  N17 UNL     1       2.645  28.795  20.819  1.00  0.00    -0.384 N 
ATOM     33 2H17 UNL     1       2.660  29.807  20.696  1.00  0.00     0.157 HD
ATOM     34 1H17 UNL     1       1.879  28.177  20.554  1.00  0.00     0.157 HD
ENDBRANCH  17  32
ENDBRANCH   7  11
ENDBRANCH   4   5
ENDBRANCH   3   4
ENDBRANCH   1   3
BRANCH   1  35
HETATM   35  C10 UNL     1      11.380  23.965  21.931  1.00  0.00     0.260 C 
BRANCH  35  36
HETATM   36  N2  UNL     1      10.782  23.977  20.621  1.00  0.00    -0.278 N 
HETATM   37  C11 UNL     1      10.720  22.891  19.833  1.00  0.00     0.140 A 
HETATM   38  C12 UNL     1      10.087  23.253  18.668  1.00  0.00     0.061 A 
HETATM   39  N9  UNL     1       9.794  24.551  18.810  1.00  0.00    -0.287 N 
HETATM   40  N10 UNL     1      10.218  24.988  19.999  1.00  0.00    -0.240 N 
ATOM     41  H9  UNL     1       9.316  25.122  18.112  1.00  0.00     0.188 HD
ATOM     42  H10 UNL     1      10.122  25.938  20.359  1.00  0.00     0.208 HD
BRANCH  38  43
HETATM   43  C13 UNL     1       9.793  22.385  17.485  1.00  0.00     0.181 C 
BRANCH  43  44
HETATM   44  N3  UNL     1       8.385  22.235  17.275  1.00  0.00    -0.372 N 
ATOM     45  H3  UNL     1       7.909  21.466  17.747  1.00  0.00     0.161 HD
BRANCH  44  46
HETATM   46  C14 UNL     1       7.618  23.084  16.459  1.00  0.00     0.119 C 
HETATM   47  N4  UNL     1       8.189  23.746  15.476  1.00  0.00    -0.352 N 
HETATM   48  C15 UNL     1       7.179  24.552  14.776  1.00  0.00     0.401 C 
ATOM     49  H4  UNL     1       9.179  23.705  15.237  1.00  0.00     0.162 HD
HETATM   50  N5  UNL     1       5.997  23.885  15.109  1.00  0.00     0.158 N 
HETATM   51  C20 UNL     1       6.153  23.431  16.482  1.00  0.00     0.394 C 
BRANCH  50  52
HETATM   52  C16 UNL     1       4.724  24.430  14.831  1.00  0.00     0.384 C 
BRANCH  52  53
HETATM   53  O4  UNL     1       4.136  23.681  13.753  1.00  0.00    -0.366 OA
ATOM     54  H4  UNL     1       3.961  22.799  14.062  1.00  0.00     0.212 HD
ENDBRANCH  52  53
BRANCH  52  55
HETATM   55  C17 UNL     1       4.778  25.824  14.308  1.00  0.00     0.161 C 
HETATM   56  C18 UNL     1       3.628  26.183  13.378  1.00  0.00     0.152 C 
HETATM   57  N6  UNL     1       3.714  27.654  13.392  1.00  0.00    -0.363 N 
HETATM   58  C19 UNL     1       4.336  28.047  14.456  1.00  0.00     0.184 C 
ATOM     59  H6  UNL     1       3.340  28.269  12.669  1.00  0.00     0.162 HD
HETATM   60  N7  UNL     1       4.584  29.422  14.763  1.00  0.00    -0.064 NA
HETATM   61  N8  UNL     1       4.710  26.887  15.251  1.00  0.00    -0.354 N 
ATOM     62  H8  UNL     1       4.883  26.846  16.255  1.00  0.00     0.162 HD
ENDBRANCH  52  55
ENDBRANCH  50  52
BRANCH  51  63
HETATM   63  C21 UNL     1       5.987  24.509  17.479  1.00  0.00     0.215 C 
HETATM   64  O5  UNL     1       7.030  24.957  18.070  1.00  0.00    -0.646 OA
HETATM   65  O6  UNL     1       4.797  25.079  17.827  1.00  0.00    -0.646 OA
ENDBRANCH  51  63
ENDBRANCH  44  46
ENDBRANCH  43  44
ENDBRANCH  38  43
ENDBRANCH  35  36
ENDBRANCH   1  35
TORSDOF 16
ENDMDL
MODEL 3
REMARK VINA RESULT: -9.670083817      6.576     15.050
REMARK  16 active torsions:
REMARK  status: ('A' for Active; 'I' for Inactive)
REMARK    1  A    between atoms: O1_2  and  C2_3 
REMARK    2  A    between atoms: C5_6  and  C6_7 
REMARK    3  A    between atoms: N1_9  and  C8_10 
REMARK    4  A    between atoms: C8_10  and  O2_11 
REMARK    5  A    between atoms: O2_11  and  C9_12 
REMARK    6  A    between atoms: C9_12  and  C10_14 
REMARK    7  A    between atoms: C10_14  and  N2_15 
REMARK    8  A    between atoms: C12_17  and  C13_18 
REMARK    9  A    between atoms: C13_18  and  N3_19 
REMARK   10  A    between atoms: N3_19  and  C14_21 
REMARK   11  A    between atoms: N5_25  and  C16_26 
REMARK   12  A    between atoms: C16_26  and  O4_27 
REMARK   13  A    between atoms: C16_26  and  C17_29 
REMARK   14  A    between atoms: C20_37  and  C21_38 
REMARK   15  A    between atoms: C23_49  and  N13_50 
REMARK   16  A    between atoms: C25_61  and  N17_62 
ROOT
HETATM    1  C9  UNL     1       4.053  28.775  14.015  1.00  0.00     0.280 C 
HETATM    2  O3  UNL     1       4.515  29.048  15.150  1.00  0.00    -0.263 OA
ENDROOT
BRANCH   1   3
HETATM    3  O2  UNL     1       2.811  29.176  13.654  1.00  0.00    -0.299 OA
BRANCH   3   4
HETATM    4  C8  UNL     1       2.179  28.911  12.464  1.00  0.00     0.324 C 
BRANCH   4   5
HETATM    5  N1  UNL     1       1.366  27.708  12.469  1.00  0.00    -0.261 N 
HETATM    6  C7  UNL     1       1.123  26.796  13.405  1.00  0.00     0.141 A 
HETATM    7  C6  UNL     1       0.248  25.845  12.916  1.00  0.00     0.074 A 
HETATM    8  N12 UNL     1      -0.007  26.213  11.699  1.00  0.00    -0.282 N 
HETATM    9  N11 UNL     1       0.644  27.325  11.396  1.00  0.00    -0.018 NA
ATOM     10  H12 UNL     1      -0.626  25.713  11.060  1.00  0.00     0.184 HD
BRANCH   7  11
HETATM   11  C5  UNL     1      -0.192  24.753  13.724  1.00  0.00     0.008 A 
HETATM   12  C4  UNL     1      -0.958  25.041  14.897  1.00  0.00     0.017 A 
HETATM   13  C3  UNL     1      -1.455  24.057  15.700  1.00  0.00     0.039 A 
HETATM   14  C2  UNL     1      -1.251  22.733  15.430  1.00  0.00     0.083 A 
HETATM   15  C26 UNL     1      -0.524  22.401  14.323  1.00  0.00     0.056 A 
HETATM   16  C22 UNL     1      -0.020  23.423  13.516  1.00  0.00     0.037 A 
HETATM   17  C25 UNL     1      -0.431  21.030  14.141  1.00  0.00     0.128 C 
HETATM   18  C23 UNL     1       0.866  23.174  12.460  1.00  0.00     0.127 C 
HETATM   19  N14 UNL     1       0.784  22.197  11.547  1.00  0.00    -0.176 N 
HETATM   20  C24 UNL     1       0.219  20.974  11.775  1.00  0.00     0.679 C 
ATOM     21  H14 UNL     1       1.170  22.378  10.620  1.00  0.00     0.186 HD
HETATM   22  N15 UNL     1       0.002  20.255  10.731  1.00  0.00    -0.234 N 
HETATM   23  N16 UNL     1      -0.150  20.406  12.965  1.00  0.00    -0.176 N 
ATOM     24 2H15 UNL     1       0.276  20.679   9.844  1.00  0.00     0.174 HD
ATOM     25 1H15 UNL     1      -0.421  19.342  10.901  1.00  0.00     0.174 HD
ATOM     26  H16 UNL     1      -0.223  19.389  12.971  1.00  0.00     0.186 HD
BRANCH  14  27
HETATM   27  O1  UNL     1      -1.741  21.703  16.218  1.00  0.00    -0.355 OA
HETATM   28  C1  UNL     1      -2.806  22.050  17.118  1.00  0.00     0.210 C 
ENDBRANCH  14  27
BRANCH  18  29
HETATM   29  N13 UNL     1       1.870  23.987  12.465  1.00  0.00    -0.384 N 
ATOM     30 2H13 UNL     1       2.084  24.544  13.293  1.00  0.00     0.157 HD
ATOM     31 1H13 UNL     1       2.348  24.013  11.565  1.00  0.00     0.157 HD
ENDBRANCH  18  29
BRANCH  17  32
HETATM   32  N17 UNL     1      -0.639  20.331  15.188  1.00  0.00    -0.384 N 
ATOM     33 2H17 UNL     1       0.084  20.400  15.903  1.00  0.00     0.157 HD
ATOM     34 1H17 UNL     1      -1.487  19.769  15.255  1.00  0.00     0.157 HD
ENDBRANCH  17  32
ENDBRANCH   7  11
ENDBRANCH   4   5
ENDBRANCH   3   4
ENDBRANCH   1   3
BRANCH   1  35
HETATM   35  C10 UNL     1       4.898  27.985  13.035  1.00  0.00     0.260 C 
BRANCH  35  36
HETATM   36  N2  UNL     1       5.567  26.951  13.782  1.00  0.00    -0.278 N 
HETATM   37  C11 UNL     1       4.975  25.797  14.129  1.00  0.00     0.140 A 
HETATM   38  C12 UNL     1       5.892  25.045  14.824  1.00  0.00     0.061 A 
HETATM   39  N9  UNL     1       7.005  25.788  14.862  1.00  0.00    -0.287 N 
HETATM   40  N10 UNL     1       6.804  26.947  14.227  1.00  0.00    -0.240 N 
ATOM     41  H9  UNL     1       7.879  25.510  15.310  1.00  0.00     0.188 HD
ATOM     42  H10 UNL     1       7.488  27.694  14.110  1.00  0.00     0.208 HD
BRANCH  38  43
HETATM   43  C13 UNL     1       5.692  23.688  15.420  1.00  0.00     0.181 C 
BRANCH  43  44
HETATM   44  N3  UNL     1       6.923  22.963  15.512  1.00  0.00    -0.372 N 
ATOM     45  H3  UNL     1       7.294  22.538  14.662  1.00  0.00     0.161 HD
BRANCH  44  46
HETATM   46  C14 UNL     1       7.652  22.802  16.703  1.00  0.00     0.119 C 
HETATM   47  N4  UNL     1       7.134  22.130  17.707  1.00  0.00    -0.352 N 
HETATM   48  C15 UNL     1       8.089  22.102  18.823  1.00  0.00     0.401 C 
ATOM     49  H4  UNL     1       6.212  21.695  17.710  1.00  0.00     0.162 HD
HETATM   50  N5  UNL     1       9.303  22.339  18.169  1.00  0.00     0.158 N 
HETATM   51  C20 UNL     1       9.019  23.289  17.107  1.00  0.00     0.394 C 
BRANCH  50  52
HETATM   52  C16 UNL     1      10.494  22.613  18.876  1.00  0.00     0.384 C 
BRANCH  52  53
HETATM   53  O4  UNL     1      11.285  21.413  18.916  1.00  0.00    -0.366 OA
ATOM     54  H4  UNL     1      12.198  21.658  19.012  1.00  0.00     0.212 HD
ENDBRANCH  52  53
BRANCH  52  55
HETATM   55  C17 UNL     1      10.269  22.940  20.312  1.00  0.00     0.161 C 
HETATM   56  C18 UNL     1      11.372  22.452  21.240  1.00  0.00     0.152 C 
HETATM   57  N6  UNL     1      11.102  23.263  22.439  1.00  0.00    -0.363 N 
HETATM   58  C19 UNL     1      10.427  24.318  22.111  1.00  0.00     0.184 C 
ATOM     59  H6  UNL     1      11.401  23.029  23.385  1.00  0.00     0.162 HD
HETATM   60  N7  UNL     1      10.005  25.309  23.052  1.00  0.00    -0.064 NA
HETATM   61  N8  UNL     1      10.195  24.314  20.675  1.00  0.00    -0.354 N 
ATOM     62  H8  UNL     1      10.020  25.113  20.066  1.00  0.00     0.162 HD
ENDBRANCH  52  55
ENDBRANCH  50  52
BRANCH  51  63
HETATM   63  C21 UNL     1       8.851  24.677  17.589  1.00  0.00     0.215 C 
HETATM   64  O5  UNL     1       7.668  25.089  17.854  1.00  0.00    -0.646 OA
HETATM   65  O6  UNL     1       9.865  25.568  17.780  1.00  0.00    -0.646 OA
ENDBRANCH  51  63
ENDBRANCH  44  46
ENDBRANCH  43  44
ENDBRANCH  38  43
ENDBRANCH  35  36
ENDBRANCH   1  35
TORSDOF 16
ENDMDL
MODEL 4
REMARK VINA RESULT: -9.618952713      3.275      5.978
REMARK  16 active torsions:
REMARK  status: ('A' for Active; 'I' for Inactive)
REMARK    1  A    between atoms: O1_2  and  C2_3 
REMARK    2  A    between atoms: C5_6  and  C6_7 
REMARK    3  A    between atoms: N1_9  and  C8_10 
REMARK    4  A    between atoms: C8_10  and  O2_11 
REMARK    5  A    between atoms: O2_11  and  C9_12 
REMARK    6  A    between atoms: C9_12  and  C10_14 
REMARK    7  A    between atoms: C10_14  and  N2_15 
REMARK    8  A    between atoms: C12_17  and  C13_18 
REMARK    9  A    between atoms: C13_18  and  N3_19 
REMARK   10  A    between atoms: N3_19  and  C14_21 
REMARK   11  A    between atoms: N5_25  and  C16_26 
REMARK   12  A    between atoms: C16_26  and  O4_27 
REMARK   13  A    between atoms: C16_26  and  C17_29 
REMARK   14  A    between atoms: C20_37  and  C21_38 
REMARK   15  A    between atoms: C23_49  and  N13_50 
REMARK   16  A    between atoms: C25_61  and  N17_62 
ROOT
HETATM    1  C9  UNL     1       9.546  22.857  21.721  1.00  0.00     0.280 C 
HETATM    2  O3  UNL     1       8.802  23.469  22.526  1.00  0.00    -0.263 OA
ENDROOT
BRANCH   1   3
HETATM    3  O2  UNL     1      10.823  22.548  22.051  1.00  0.00    -0.299 OA
BRANCH   3   4
HETATM    4  C8  UNL     1      11.799  22.087  21.201  1.00  0.00     0.324 C 
BRANCH   4   5
HETATM    5  N1  UNL     1      12.963  21.530  21.867  1.00  0.00    -0.261 N 
HETATM    6  C7  UNL     1      13.335  21.499  23.142  1.00  0.00     0.141 A 
HETATM    7  C6  UNL     1      14.530  20.817  23.266  1.00  0.00     0.074 A 
HETATM    8  N12 UNL     1      14.843  20.461  22.058  1.00  0.00    -0.282 N 
HETATM    9  N11 UNL     1      13.927  20.870  21.194  1.00  0.00    -0.018 NA
ATOM     10  H12 UNL     1      15.681  19.937  21.808  1.00  0.00     0.184 HD
BRANCH   7  11
HETATM   11  C5  UNL     1      15.151  20.625  24.538  1.00  0.00     0.008 A 
HETATM   12  C4  UNL     1      15.642  21.774  25.234  1.00  0.00     0.017 A 
HETATM   13  C3  UNL     1      16.207  21.687  26.472  1.00  0.00     0.039 A 
HETATM   14  C2  UNL     1      16.339  20.492  27.123  1.00  0.00     0.083 A 
HETATM   15  C26 UNL     1      15.889  19.363  26.502  1.00  0.00     0.056 A 
HETATM   16  C22 UNL     1      15.317  19.472  25.233  1.00  0.00     0.037 A 
HETATM   17  C25 UNL     1      16.040  18.230  27.287  1.00  0.00     0.128 C 
HETATM   18  C23 UNL     1      14.980  18.350  24.465  1.00  0.00     0.127 C 
HETATM   19  N14 UNL     1      14.366  17.236  24.884  1.00  0.00    -0.176 N 
HETATM   20  C24 UNL     1      14.468  16.729  26.149  1.00  0.00     0.679 C 
ATOM     21  H14 UNL     1      13.784  16.732  24.214  1.00  0.00     0.186 HD
HETATM   22  N15 UNL     1      13.625  15.804  26.449  1.00  0.00    -0.234 N 
HETATM   23  N16 UNL     1      15.345  17.070  27.143  1.00  0.00    -0.176 N 
ATOM     24 2H15 UNL     1      12.972  15.551  25.709  1.00  0.00     0.174 HD
ATOM     25 1H15 UNL     1      13.701  15.426  27.394  1.00  0.00     0.174 HD
ATOM     26  H16 UNL     1      15.495  16.366  27.867  1.00  0.00     0.186 HD
BRANCH  14  27
HETATM   27  O1  UNL     1      16.904  20.360  28.381  1.00  0.00    -0.355 OA
HETATM   28  C1  UNL     1      16.676  21.448  29.291  1.00  0.00     0.210 C 
ENDBRANCH  14  27
BRANCH  18  29
HETATM   29  N13 UNL     1      15.382  18.460  23.242  1.00  0.00    -0.384 N 
ATOM     30 2H13 UNL     1      16.345  18.236  22.990  1.00  0.00     0.157 HD
ATOM     31 1H13 UNL     1      14.652  18.819  22.628  1.00  0.00     0.157 HD
ENDBRANCH  18  29
BRANCH  17  32
HETATM   32  N17 UNL     1      16.912  18.329  28.214  1.00  0.00    -0.384 N 
ATOM     33 2H17 UNL     1      17.764  17.791  28.063  1.00  0.00     0.157 HD
ATOM     34 1H17 UNL     1      16.719  18.922  29.021  1.00  0.00     0.157 HD
ENDBRANCH  17  32
ENDBRANCH   7  11
ENDBRANCH   4   5
ENDBRANCH   3   4
ENDBRANCH   1   3
BRANCH   1  35
HETATM   35  C10 UNL     1       9.007  22.456  20.361  1.00  0.00     0.260 C 
BRANCH  35  36
HETATM   36  N2  UNL     1       9.224  23.567  19.470  1.00  0.00    -0.278 N 
HETATM   37  C11 UNL     1       8.936  23.523  18.159  1.00  0.00     0.140 A 
HETATM   38  C12 UNL     1       9.261  24.743  17.616  1.00  0.00     0.061 A 
HETATM   39  N9  UNL     1       9.733  25.472  18.634  1.00  0.00    -0.287 N 
HETATM   40  N10 UNL     1       9.710  24.754  19.761  1.00  0.00    -0.240 N 
ATOM     41  H9  UNL     1      10.062  26.435  18.560  1.00  0.00     0.188 HD
ATOM     42  H10 UNL     1      10.014  25.070  20.681  1.00  0.00     0.208 HD
BRANCH  38  43
HETATM   43  C13 UNL     1       9.125  25.168  16.188  1.00  0.00     0.181 C 
BRANCH  43  44
HETATM   44  N3  UNL     1       8.282  24.278  15.449  1.00  0.00    -0.372 N 
ATOM     45  H3  UNL     1       8.695  23.421  15.081  1.00  0.00     0.161 HD
BRANCH  44  46
HETATM   46  C14 UNL     1       6.919  24.514  15.199  1.00  0.00     0.119 C 
HETATM   47  N4  UNL     1       6.105  23.507  14.976  1.00  0.00    -0.352 N 
HETATM   48  C15 UNL     1       4.745  24.015  14.750  1.00  0.00     0.401 C 
ATOM     49  H4  UNL     1       6.376  22.524  14.963  1.00  0.00     0.162 HD
HETATM   50  N5  UNL     1       4.799  25.267  15.371  1.00  0.00     0.158 N 
HETATM   51  C20 UNL     1       6.130  25.795  15.118  1.00  0.00     0.394 C 
BRANCH  50  52
HETATM   52  C16 UNL     1       3.770  26.223  15.223  1.00  0.00     0.384 C 
BRANCH  52  53
HETATM   53  O4  UNL     1       3.007  26.259  16.442  1.00  0.00    -0.366 OA
ATOM     54  H4  UNL     1       2.280  26.859  16.322  1.00  0.00     0.212 HD
ENDBRANCH  52  53
BRANCH  52  55
HETATM   55  C17 UNL     1       2.766  25.856  14.185  1.00  0.00     0.161 C 
HETATM   56  C18 UNL     1       1.324  26.113  14.597  1.00  0.00     0.152 C 
HETATM   57  N6  UNL     1       0.654  26.077  13.286  1.00  0.00    -0.363 N 
HETATM   58  C19 UNL     1       1.512  26.316  12.348  1.00  0.00     0.184 C 
ATOM     59  H6  UNL     1      -0.339  25.891  13.140  1.00  0.00     0.162 HD
HETATM   60  N7  UNL     1       1.173  26.350  10.958  1.00  0.00    -0.064 NA
HETATM   61  N8  UNL     1       2.821  26.543  12.940  1.00  0.00    -0.354 N 
ATOM     62  H8  UNL     1       3.601  27.073  12.551  1.00  0.00     0.162 HD
ENDBRANCH  52  55
ENDBRANCH  50  52
BRANCH  51  63
HETATM   63  C21 UNL     1       6.304  26.316  13.746  1.00  0.00     0.215 C 
HETATM   64  O5  UNL     1       6.943  25.598  12.900  1.00  0.00    -0.646 OA
HETATM   65  O6  UNL     1       5.832  27.515  13.297  1.00  0.00    -0.646 OA
ENDBRANCH  51  63
ENDBRANCH  44  46
ENDBRANCH  43  44
ENDBRANCH  38  43
ENDBRANCH  35  36
ENDBRANCH   1  35
TORSDOF 16
ENDMDL
MODEL 5
REMARK VINA RESULT: -9.546672027      3.101     15.004
REMARK  16 active torsions:
REMARK  status: ('A' for Active; 'I' for Inactive)
REMARK    1  A    between atoms: O1_2  and  C2_3 
REMARK    2  A    between atoms: C5_6  and  C6_7 
REMARK    3  A    between atoms: N1_9  and  C8_10 
REMARK    4  A    between atoms: C8_10  and  O2_11 
REMARK    5  A    between atoms: O2_11  and  C9_12 
REMARK    6  A    between atoms: C9_12  and  C10_14 
REMARK    7  A    between atoms: C10_14  and  N2_15 
REMARK    8  A    between atoms: C12_17  and  C13_18 
REMARK    9  A    between atoms: C13_18  and  N3_19 
REMARK   10  A    between atoms: N3_19  and  C14_21 
REMARK   11  A    between atoms: N5_25  and  C16_26 
REMARK   12  A    between atoms: C16_26  and  O4_27 
REMARK   13  A    between atoms: C16_26  and  C17_29 
REMARK   14  A    between atoms: C20_37  and  C21_38 
REMARK   15  A    between atoms: C23_49  and  N13_50 
REMARK   16  A    between atoms: C25_61  and  N17_62 
ROOT
HETATM    1  C9  UNL     1       9.015  24.805  17.912  1.00  0.00     0.280 C 
HETATM    2  O3  UNL     1       9.532  25.723  17.228  1.00  0.00    -0.263 OA
ENDROOT
BRANCH   1   3
HETATM    3  O2  UNL     1       7.740  24.904  18.358  1.00  0.00    -0.299 OA
BRANCH   3   4
HETATM    4  C8  UNL     1       6.727  24.001  18.148  1.00  0.00     0.324 C 
BRANCH   4   5
HETATM    5  N1  UNL     1       6.104  24.089  16.838  1.00  0.00    -0.261 N 
HETATM    6  C7  UNL     1       5.150  24.875  16.352  1.00  0.00     0.141 A 
HETATM    7  C6  UNL     1       4.930  24.578  15.021  1.00  0.00     0.074 A 
HETATM    8  N12 UNL     1       5.759  23.618  14.748  1.00  0.00    -0.282 N 
HETATM    9  N11 UNL     1       6.480  23.300  15.811  1.00  0.00    -0.018 NA
ATOM     10  H12 UNL     1       5.845  23.170  13.835  1.00  0.00     0.184 HD
BRANCH   7  11
HETATM   11  C5  UNL     1       3.959  25.286  14.250  1.00  0.00     0.008 A 
HETATM   12  C4  UNL     1       2.689  24.670  14.026  1.00  0.00     0.017 A 
HETATM   13  C3  UNL     1       1.689  25.293  13.339  1.00  0.00     0.039 A 
HETATM   14  C2  UNL     1       1.843  26.549  12.821  1.00  0.00     0.083 A 
HETATM   15  C26 UNL     1       3.038  27.183  13.004  1.00  0.00     0.056 A 
HETATM   16  C22 UNL     1       4.051  26.527  13.706  1.00  0.00     0.037 A 
HETATM   17  C25 UNL     1       3.047  28.463  12.472  1.00  0.00     0.128 C 
HETATM   18  C23 UNL     1       5.352  27.038  13.797  1.00  0.00     0.127 C 
HETATM   19  N14 UNL     1       5.709  28.306  14.039  1.00  0.00    -0.176 N 
HETATM   20  C24 UNL     1       4.969  29.397  13.678  1.00  0.00     0.679 C 
ATOM     21  H14 UNL     1       6.592  28.468  14.524  1.00  0.00     0.186 HD
HETATM   22  N15 UNL     1       5.331  30.515  14.201  1.00  0.00    -0.234 N 
HETATM   23  N16 UNL     1       3.893  29.465  12.834  1.00  0.00    -0.176 N 
ATOM     24 2H15 UNL     1       6.132  30.464  14.830  1.00  0.00     0.174 HD
ATOM     25 1H15 UNL     1       4.778  31.329  13.932  1.00  0.00     0.174 HD
ATOM     26  H16 UNL     1       3.702  30.380  12.426  1.00  0.00     0.186 HD
BRANCH  14  27
HETATM   27  O1  UNL     1       0.853  27.219  12.120  1.00  0.00    -0.355 OA
HETATM   28  C1  UNL     1      -0.331  26.462  11.825  1.00  0.00     0.210 C 
ENDBRANCH  14  27
BRANCH  18  29
HETATM   29  N13 UNL     1       6.246  26.135  13.563  1.00  0.00    -0.384 N 
ATOM     30 2H13 UNL     1       6.305  25.298  14.143  1.00  0.00     0.157 HD
ATOM     31 1H13 UNL     1       6.862  26.396  12.793  1.00  0.00     0.157 HD
ENDBRANCH  18  29
BRANCH  17  32
HETATM   32  N17 UNL     1       2.166  28.679  11.574  1.00  0.00    -0.384 N 
ATOM     33 2H17 UNL     1       1.777  29.622  11.570  1.00  0.00     0.157 HD
ATOM     34 1H17 UNL     1       1.911  27.930  10.930  1.00  0.00     0.157 HD
ENDBRANCH  17  32
ENDBRANCH   7  11
ENDBRANCH   4   5
ENDBRANCH   3   4
ENDBRANCH   1   3
BRANCH   1  35
HETATM   35  C10 UNL     1       9.829  23.569  18.241  1.00  0.00     0.260 C 
BRANCH  35  36
HETATM   36  N2  UNL     1      10.289  23.709  19.599  1.00  0.00    -0.278 N 
HETATM   37  C11 UNL     1      10.902  22.720  20.271  1.00  0.00     0.140 A 
HETATM   38  C12 UNL     1      11.207  23.190  21.526  1.00  0.00     0.061 A 
HETATM   39  N9  UNL     1      10.760  24.451  21.552  1.00  0.00    -0.287 N 
HETATM   40  N10 UNL     1      10.202  24.763  20.378  1.00  0.00    -0.240 N 
ATOM     41  H9  UNL     1      10.835  25.082  22.351  1.00  0.00     0.188 HD
ATOM     42  H10 UNL     1       9.782  25.660  20.132  1.00  0.00     0.208 HD
BRANCH  38  43
HETATM   43  C13 UNL     1      11.887  22.451  22.634  1.00  0.00     0.181 C 
BRANCH  43  44
HETATM   44  N3  UNL     1      13.169  21.956  22.232  1.00  0.00    -0.372 N 
ATOM     45  H3  UNL     1      13.511  22.208  21.304  1.00  0.00     0.161 HD
BRANCH  44  46
HETATM   46  C14 UNL     1      13.986  21.146  23.039  1.00  0.00     0.119 C 
HETATM   47  N4  UNL     1      14.712  21.684  23.993  1.00  0.00    -0.352 N 
HETATM   48  C15 UNL     1      15.466  20.632  24.689  1.00  0.00     0.401 C 
ATOM     49  H4  UNL     1      14.747  22.678  24.216  1.00  0.00     0.162 HD
HETATM   50  N5  UNL     1      14.709  19.493  24.395  1.00  0.00     0.158 N 
HETATM   51  C20 UNL     1      14.230  19.659  23.032  1.00  0.00     0.394 C 
BRANCH  50  52
HETATM   52  C16 UNL     1      15.172  18.190  24.680  1.00  0.00     0.384 C 
BRANCH  52  53
HETATM   53  O4  UNL     1      14.684  17.302  23.660  1.00  0.00    -0.366 OA
ATOM     54  H4  UNL     1      13.821  17.596  23.395  1.00  0.00     0.212 HD
ENDBRANCH  52  53
BRANCH  52  55
HETATM   55  C17 UNL     1      14.614  17.627  25.941  1.00  0.00     0.161 C 
HETATM   56  C18 UNL     1      13.331  18.300  26.407  1.00  0.00     0.152 C 
HETATM   57  N6  UNL     1      12.823  17.296  27.357  1.00  0.00    -0.363 N 
HETATM   58  C19 UNL     1      13.336  16.139  27.088  1.00  0.00     0.184 C 
ATOM     59  H6  UNL     1      12.165  17.485  28.114  1.00  0.00     0.162 HD
HETATM   60  N7  UNL     1      13.042  14.953  27.831  1.00  0.00    -0.064 NA
HETATM   61  N8  UNL     1      14.218  16.260  25.937  1.00  0.00    -0.354 N 
ATOM     62  H8  UNL     1      14.491  15.531  25.278  1.00  0.00     0.162 HD
ENDBRANCH  52  55
ENDBRANCH  50  52
BRANCH  51  63
HETATM   63  C21 UNL     1      15.266  19.403  22.009  1.00  0.00     0.215 C 
HETATM   64  O5  UNL     1      15.094  18.425  21.201  1.00  0.00    -0.646 OA
HETATM   65  O6  UNL     1      16.406  20.135  21.848  1.00  0.00    -0.646 OA
ENDBRANCH  51  63
ENDBRANCH  44  46
ENDBRANCH  43  44
ENDBRANCH  38  43
ENDBRANCH  35  36
ENDBRANCH   1  35
TORSDOF 16
ENDMDL
