MODEL 1
REMARK VINA RESULT: -5.662974817      0.000      0.000
REMARK  8 active torsions:
REMARK  status: ('A' for Active; 'I' for Inactive)
REMARK    1  A    between atoms: O1_2  and  C2_3 
REMARK    2  A    between atoms: C3_4  and  O2_5 
REMARK    3  A    between atoms: C5_8  and  N1_9 
REMARK    4  A    between atoms: C5_8  and  C6_15 
REMARK    5  A    between atoms: N1_9  and  N2_11 
REMARK    6  A    between atoms: N2_11  and  N3_12 
REMARK       I    between atoms: C6_15  and  N4_17 
REMARK    7  A    between atoms: N4_17  and  N5_19 
REMARK    8  A    between atoms: N5_19  and  N6_20 
ROOT
HETATM    1  C2  UNL     1      29.749 -27.462 -28.439  1.00  0.00     0.183 C 
HETATM    2  C3  UNL     1      31.034 -27.650 -29.212  1.00  0.00     0.152 C 
HETATM    3  C4  UNL     1      31.236 -26.647 -30.290  1.00  0.00     0.078 C 
HETATM    4  C5  UNL     1      29.999 -26.232 -31.034  1.00  0.00     0.147 C 
HETATM    5  C7  UNL     1      28.786 -26.059 -30.158  1.00  0.00     0.083 C 
HETATM    6  C8  UNL     1      29.213 -26.049 -28.715  1.00  0.00     0.204 C 
HETATM    7  F1  UNL     1      30.146 -25.102 -28.399  1.00  0.00    -0.247 F 
ENDROOT
BRANCH   4   8
HETATM    8  N1  UNL     1      29.705 -27.239 -32.064  1.00  0.00    -0.233 N 
ATOM      9  H1  UNL     1      28.787 -27.681 -32.072  1.00  0.00     0.198 HD
BRANCH   8  10
HETATM   10  N2  UNL     1      30.525 -27.566 -32.913  1.00  0.00    -0.247 NA
BRANCH  10  11
HETATM   11  N3  UNL     1      31.369 -27.530 -33.801  1.00  0.00    -0.261 N 
ATOM     12  H32 UNL     1      31.873 -26.735 -33.408  1.00  0.00     0.193 HD
ATOM     13  H31 UNL     1      31.909 -27.736 -34.641  1.00  0.00     0.193 HD
ENDBRANCH  10  11
ENDBRANCH   8  10
ENDBRANCH   4   8
BRANCH   4  14
HETATM   14  C6  UNL     1      30.189 -24.944 -31.748  1.00  0.00     0.278 C 
HETATM   15  O3  UNL     1      30.557 -23.940 -31.094  1.00  0.00    -0.268 OA
HETATM   16  N4  UNL     1      29.967 -24.801 -33.144  1.00  0.00    -0.181 N 
ATOM     17  H4  UNL     1      30.348 -25.477 -33.806  1.00  0.00     0.207 HD
BRANCH  16  18
HETATM   18  N5  UNL     1      29.295 -23.825 -33.538  1.00  0.00    -0.241 NA
BRANCH  18  19
HETATM   19  N6  UNL     1      28.811 -22.713 -33.773  1.00  0.00    -0.260 N 
ATOM     20  H62 UNL     1      29.549 -22.503 -34.446  1.00  0.00     0.193 HD
ATOM     21  H61 UNL     1      28.253 -21.860 -33.812  1.00  0.00     0.193 HD
ENDBRANCH  18  19
ENDBRANCH  16  18
ENDBRANCH   4  14
BRANCH   2  22
HETATM   22  O2  UNL     1      32.156 -27.580 -28.374  1.00  0.00    -0.393 OA
ATOM     23  H2  UNL     1      32.851 -28.155 -28.671  1.00  0.00     0.210 HD
ENDBRANCH   2  22
BRANCH   1  24
HETATM   24  O1  UNL     1      29.901 -27.685 -27.090  1.00  0.00    -0.385 OA
HETATM   25  C1  UNL     1      28.758 -27.363 -26.406  1.00  0.00     0.202 C 
ENDBRANCH   1  24
TORSDOF 8
ENDMDL
MODEL 2
REMARK VINA RESULT: -5.657307573      3.646      5.371
REMARK  8 active torsions:
REMARK  status: ('A' for Active; 'I' for Inactive)
REMARK    1  A    between atoms: O1_2  and  C2_3 
REMARK    2  A    between atoms: C3_4  and  O2_5 
REMARK    3  A    between atoms: C5_8  and  N1_9 
REMARK    4  A    between atoms: C5_8  and  C6_15 
REMARK    5  A    between atoms: N1_9  and  N2_11 
REMARK    6  A    between atoms: N2_11  and  N3_12 
REMARK       I    between atoms: C6_15  and  N4_17 
REMARK    7  A    between atoms: N4_17  and  N5_19 
REMARK    8  A    between atoms: N5_19  and  N6_20 
ROOT
HETATM    1  C2  UNL     1      29.989 -25.197 -31.421  1.00  0.00     0.183 C 
HETATM    2  C3  UNL     1      30.962 -26.350 -31.336  1.00  0.00     0.152 C 
HETATM    3  C4  UNL     1      30.764 -27.215 -30.143  1.00  0.00     0.078 C 
HETATM    4  C5  UNL     1      30.374 -26.502 -28.879  1.00  0.00     0.147 C 
HETATM    5  C7  UNL     1      29.388 -25.383 -29.085  1.00  0.00     0.083 C 
HETATM    6  C8  UNL     1      28.813 -25.477 -30.473  1.00  0.00     0.204 C 
HETATM    7  F1  UNL     1      28.220 -26.672 -30.769  1.00  0.00    -0.247 F 
ENDROOT
BRANCH   4   8
HETATM    8  N1  UNL     1      31.587 -25.960 -28.249  1.00  0.00    -0.233 N 
ATOM      9  H1  UNL     1      31.766 -24.958 -28.308  1.00  0.00     0.198 HD
BRANCH   8  10
HETATM   10  N2  UNL     1      32.391 -26.669 -27.656  1.00  0.00    -0.247 NA
BRANCH  10  11
HETATM   11  N3  UNL     1      33.160 -27.579 -27.369  1.00  0.00    -0.261 N 
ATOM     12  H32 UNL     1      33.589 -27.625 -28.293  1.00  0.00     0.193 HD
ATOM     13  H31 UNL     1      33.660 -28.307 -26.860  1.00  0.00     0.193 HD
ENDBRANCH  10  11
ENDBRANCH   8  10
ENDBRANCH   4   8
BRANCH   4  14
HETATM   14  C6  UNL     1      29.764 -27.424 -27.889  1.00  0.00     0.278 C 
HETATM   15  O3  UNL     1      29.277 -28.507 -28.293  1.00  0.00    -0.268 OA
HETATM   16  N4  UNL     1      29.706 -27.130 -26.501  1.00  0.00    -0.181 N 
ATOM     17  H4  UNL     1      30.528 -26.787 -26.003  1.00  0.00     0.207 HD
BRANCH  16  18
HETATM   18  N5  UNL     1      28.621 -27.303 -25.905  1.00  0.00    -0.241 NA
BRANCH  18  19
HETATM   19  N6  UNL     1      27.533 -27.702 -25.477  1.00  0.00    -0.260 N 
ATOM     20  H62 UNL     1      27.794 -28.675 -25.643  1.00  0.00     0.193 HD
ATOM     21  H61 UNL     1      26.594 -27.806 -25.093  1.00  0.00     0.193 HD
ENDBRANCH  18  19
ENDBRANCH  16  18
ENDBRANCH   4  14
BRANCH   2  22
HETATM   22  O2  UNL     1      30.877 -27.182 -32.461  1.00  0.00    -0.393 OA
ATOM     23  H2  UNL     1      31.271 -28.031 -32.300  1.00  0.00     0.210 HD
ENDBRANCH   2  22
BRANCH   1  24
HETATM   24  O1  UNL     1      29.552 -24.961 -32.703  1.00  0.00    -0.385 OA
HETATM   25  C1  UNL     1      29.099 -23.676 -32.841  1.00  0.00     0.202 C 
ENDBRANCH   1  24
TORSDOF 8
ENDMDL
MODEL 3
REMARK VINA RESULT: -5.046577576      1.612      2.132
REMARK  8 active torsions:
REMARK  status: ('A' for Active; 'I' for Inactive)
REMARK    1  A    between atoms: O1_2  and  C2_3 
REMARK    2  A    between atoms: C3_4  and  O2_5 
REMARK    3  A    between atoms: C5_8  and  N1_9 
REMARK    4  A    between atoms: C5_8  and  C6_15 
REMARK    5  A    between atoms: N1_9  and  N2_11 
REMARK    6  A    between atoms: N2_11  and  N3_12 
REMARK       I    between atoms: C6_15  and  N4_17 
REMARK    7  A    between atoms: N4_17  and  N5_19 
REMARK    8  A    between atoms: N5_19  and  N6_20 
ROOT
HETATM    1  C2  UNL     1      30.320 -26.846 -27.434  1.00  0.00     0.183 C 
HETATM    2  C3  UNL     1      30.883 -27.710 -28.539  1.00  0.00     0.152 C 
HETATM    3  C4  UNL     1      30.992 -27.014 -29.848  1.00  0.00     0.078 C 
HETATM    4  C5  UNL     1      29.879 -26.059 -30.173  1.00  0.00     0.147 C 
HETATM    5  C7  UNL     1      29.413 -25.239 -28.999  1.00  0.00     0.083 C 
HETATM    6  C8  UNL     1      30.402 -25.375 -27.873  1.00  0.00     0.204 C 
HETATM    7  F1  UNL     1      31.685 -25.031 -28.192  1.00  0.00    -0.247 F 
ENDROOT
BRANCH   4   8
HETATM    8  N1  UNL     1      28.741 -26.822 -30.706  1.00  0.00    -0.233 N 
ATOM      9  H1  UNL     1      28.898 -27.457 -31.488  1.00  0.00     0.198 HD
BRANCH   8  10
HETATM   10  N2  UNL     1      27.611 -26.723 -30.244  1.00  0.00    -0.247 NA
BRANCH  10  11
HETATM   11  N3  UNL     1      26.488 -26.987 -29.831  1.00  0.00    -0.261 N 
ATOM     12  H32 UNL     1      26.815 -27.520 -29.026  1.00  0.00     0.193 HD
ATOM     13  H31 UNL     1      25.475 -27.044 -29.733  1.00  0.00     0.193 HD
ENDBRANCH  10  11
ENDBRANCH   8  10
ENDBRANCH   4   8
BRANCH   4  14
HETATM   14  C6  UNL     1      30.269 -25.094 -31.231  1.00  0.00     0.278 C 
HETATM   15  O3  UNL     1      30.773 -23.997 -30.891  1.00  0.00    -0.268 OA
HETATM   16  N4  UNL     1      30.094 -25.360 -32.615  1.00  0.00    -0.181 N 
ATOM     17  H4  UNL     1      30.380 -26.254 -33.017  1.00  0.00     0.207 HD
BRANCH  16  18
HETATM   18  N5  UNL     1      29.580 -24.472 -33.327  1.00  0.00    -0.241 NA
BRANCH  18  19
HETATM   19  N6  UNL     1      29.080 -23.443 -33.795  1.00  0.00    -0.260 N 
ATOM     20  H62 UNL     1      29.147 -23.809 -34.745  1.00  0.00     0.193 HD
ATOM     21  H61 UNL     1      28.660 -22.529 -33.959  1.00  0.00     0.193 HD
ENDBRANCH  18  19
ENDBRANCH  16  18
ENDBRANCH   4  14
BRANCH   2  22
HETATM   22  O2  UNL     1      32.163 -28.185 -28.221  1.00  0.00    -0.393 OA
ATOM     23  H2  UNL     1      32.743 -27.480 -27.959  1.00  0.00     0.210 HD
ENDBRANCH   2  22
BRANCH   1  24
HETATM   24  O1  UNL     1      30.951 -27.043 -26.229  1.00  0.00    -0.385 OA
HETATM   25  C1  UNL     1      30.796 -25.957 -25.408  1.00  0.00     0.202 C 
ENDBRANCH   1  24
TORSDOF 8
ENDMDL
MODEL 4
REMARK VINA RESULT: -5.004928478      9.161      9.719
REMARK  8 active torsions:
REMARK  status: ('A' for Active; 'I' for Inactive)
REMARK    1  A    between atoms: O1_2  and  C2_3 
REMARK    2  A    between atoms: C3_4  and  O2_5 
REMARK    3  A    between atoms: C5_8  and  N1_9 
REMARK    4  A    between atoms: C5_8  and  C6_15 
REMARK    5  A    between atoms: N1_9  and  N2_11 
REMARK    6  A    between atoms: N2_11  and  N3_12 
REMARK       I    between atoms: C6_15  and  N4_17 
REMARK    7  A    between atoms: N4_17  and  N5_19 
REMARK    8  A    between atoms: N5_19  and  N6_20 
ROOT
HETATM    1  C2  UNL     1      21.996 -30.446 -33.205  1.00  0.00     0.183 C 
HETATM    2  C3  UNL     1      21.752 -31.529 -34.230  1.00  0.00     0.152 C 
HETATM    3  C4  UNL     1      22.485 -31.322 -35.507  1.00  0.00     0.078 C 
HETATM    4  C5  UNL     1      22.594 -29.897 -35.972  1.00  0.00     0.147 C 
HETATM    5  C7  UNL     1      22.854 -28.909 -34.865  1.00  0.00     0.083 C 
HETATM    6  C8  UNL     1      23.247 -29.653 -33.617  1.00  0.00     0.204 C 
HETATM    7  F1  UNL     1      24.325 -30.480 -33.757  1.00  0.00    -0.247 F 
ENDROOT
BRANCH   4   8
HETATM    8  N1  UNL     1      21.348 -29.528 -36.660  1.00  0.00    -0.233 N 
ATOM      9  H1  UNL     1      20.683 -30.262 -36.899  1.00  0.00     0.198 HD
BRANCH   8  10
HETATM   10  N2  UNL     1      21.081 -28.370 -36.956  1.00  0.00    -0.247 NA
BRANCH  10  11
HETATM   11  N3  UNL     1      20.813 -27.355 -37.588  1.00  0.00    -0.261 N 
ATOM     12  H32 UNL     1      20.084 -27.044 -36.946  1.00  0.00     0.193 HD
ATOM     13  H31 UNL     1      20.809 -26.620 -38.295  1.00  0.00     0.193 HD
ENDBRANCH  10  11
ENDBRANCH   8  10
ENDBRANCH   4   8
BRANCH   4  14
HETATM   14  C6  UNL     1      23.687 -29.719 -36.960  1.00  0.00     0.278 C 
HETATM   15  O3  UNL     1      24.419 -30.701 -37.234  1.00  0.00    -0.268 OA
HETATM   16  N4  UNL     1      23.942 -28.482 -37.608  1.00  0.00    -0.181 N 
ATOM     17  H4  UNL     1      23.182 -27.942 -38.023  1.00  0.00     0.207 HD
BRANCH  16  18
HETATM   18  N5  UNL     1      25.121 -28.073 -37.657  1.00  0.00    -0.241 NA
BRANCH  18  19
HETATM   19  N6  UNL     1      26.350 -27.938 -37.667  1.00  0.00    -0.260 N 
ATOM     20  H62 UNL     1      26.316 -27.439 -38.556  1.00  0.00     0.193 HD
ATOM     21  H61 UNL     1      27.351 -27.942 -37.473  1.00  0.00     0.193 HD
ENDBRANCH  18  19
ENDBRANCH  16  18
ENDBRANCH   4  14
BRANCH   2  22
HETATM   22  O2  UNL     1      22.125 -32.791 -33.746  1.00  0.00    -0.393 OA
ATOM     23  H2  UNL     1      22.967 -32.763 -33.308  1.00  0.00     0.210 HD
ENDBRANCH   2  22
BRANCH   1  24
HETATM   24  O1  UNL     1      22.115 -30.938 -31.927  1.00  0.00    -0.385 OA
HETATM   25  C1  UNL     1      22.201 -29.920 -31.013  1.00  0.00     0.202 C 
ENDBRANCH   1  24
TORSDOF 8
ENDMDL
MODEL 5
REMARK VINA RESULT: -4.973400494      9.133     10.100
REMARK  8 active torsions:
REMARK  status: ('A' for Active; 'I' for Inactive)
REMARK    1  A    between atoms: O1_2  and  C2_3 
REMARK    2  A    between atoms: C3_4  and  O2_5 
REMARK    3  A    between atoms: C5_8  and  N1_9 
REMARK    4  A    between atoms: C5_8  and  C6_15 
REMARK    5  A    between atoms: N1_9  and  N2_11 
REMARK    6  A    between atoms: N2_11  and  N3_12 
REMARK       I    between atoms: C6_15  and  N4_17 
REMARK    7  A    between atoms: N4_17  and  N5_19 
REMARK    8  A    between atoms: N5_19  and  N6_20 
ROOT
HETATM    1  C2  UNL     1      21.994 -29.559 -34.992  1.00  0.00     0.183 C 
HETATM    2  C3  UNL     1      22.225 -29.338 -36.469  1.00  0.00     0.152 C 
HETATM    3  C4  UNL     1      23.382 -30.097 -37.014  1.00  0.00     0.078 C 
HETATM    4  C5  UNL     1      24.572 -30.213 -36.104  1.00  0.00     0.147 C 
HETATM    5  C7  UNL     1      24.218 -30.450 -34.660  1.00  0.00     0.083 C 
HETATM    6  C8  UNL     1      22.762 -30.817 -34.559  1.00  0.00     0.204 C 
HETATM    7  F1  UNL     1      22.390 -31.899 -35.305  1.00  0.00    -0.247 F 
ENDROOT
BRANCH   4   8
HETATM    8  N1  UNL     1      25.368 -28.982 -36.206  1.00  0.00    -0.233 N 
ATOM      9  H1  UNL     1      25.649 -28.505 -35.350  1.00  0.00     0.198 HD
BRANCH   8  10
HETATM   10  N2  UNL     1      25.706 -28.507 -37.284  1.00  0.00    -0.247 NA
BRANCH  10  11
HETATM   11  N3  UNL     1      25.840 -27.754 -38.240  1.00  0.00    -0.261 N 
ATOM     12  H32 UNL     1      26.369 -27.052 -37.724  1.00  0.00     0.193 HD
ATOM     13  H31 UNL     1      25.792 -27.347 -39.174  1.00  0.00     0.193 HD
ENDBRANCH  10  11
ENDBRANCH   8  10
ENDBRANCH   4   8
BRANCH   4  14
HETATM   14  C6  UNL     1      25.468 -31.327 -36.505  1.00  0.00     0.278 C 
HETATM   15  O3  UNL     1      24.985 -32.287 -37.152  1.00  0.00    -0.268 OA
HETATM   16  N4  UNL     1      26.852 -31.351 -36.186  1.00  0.00    -0.181 N 
ATOM     17  H4  UNL     1      27.439 -30.531 -36.339  1.00  0.00     0.207 HD
BRANCH  16  18
HETATM   18  N5  UNL     1      27.330 -32.403 -35.713  1.00  0.00    -0.241 NA
BRANCH  18  19
HETATM   19  N6  UNL     1      27.537 -33.496 -35.173  1.00  0.00    -0.260 N 
ATOM     20  H62 UNL     1      27.909 -33.044 -34.337  1.00  0.00     0.193 HD
ATOM     21  H61 UNL     1      27.621 -34.481 -34.926  1.00  0.00     0.193 HD
ENDBRANCH  18  19
ENDBRANCH  16  18
ENDBRANCH   4  14
BRANCH   2  22
HETATM   22  O2  UNL     1      21.104 -29.702 -37.228  1.00  0.00    -0.393 OA
ATOM     23  H2  UNL     1      20.303 -29.347 -36.861  1.00  0.00     0.210 HD
ENDBRANCH   2  22
BRANCH   1  24
HETATM   24  O1  UNL     1      20.660 -29.653 -34.670  1.00  0.00    -0.385 OA
HETATM   25  C1  UNL     1      20.482 -29.684 -33.311  1.00  0.00     0.202 C 
ENDBRANCH   1  24
TORSDOF 8
ENDMDL
