MODEL 1
REMARK VINA RESULT: -5.404756476      0.000      0.000
REMARK  11 active torsions:
REMARK  status: ('A' for Active; 'I' for Inactive)
REMARK    1  A    between atoms: N1_1  and  S1_4 
REMARK    2  A    between atoms: S1_4  and  N2_5 
REMARK    3  A    between atoms: S1_4  and  N3_8 
REMARK    4  A    between atoms: C1_16  and  O1_17 
REMARK    5  A    between atoms: C2_20  and  C3_21 
REMARK    6  A    between atoms: C3_21  and  O2_22 
REMARK    7  A    between atoms: C3_21  and  C4_24 
REMARK    8  A    between atoms: C4_24  and  C5_26 
REMARK    9  A    between atoms: C5_26  and  O4_27 
REMARK   10  A    between atoms: C5_26  and  C6_29 
REMARK   11  A    between atoms: C6_29  and  O5_30 
ROOT
HETATM    1  S1  UNL     1       1.035 -26.848 -18.102  1.00  0.00     0.026 SA
HETATM    2  N7  UNL     1      -0.035 -26.497 -16.739  1.00  0.00    -0.308 N 
ATOM      3  H7  UNL     1      -1.043 -26.431 -16.881  1.00  0.00     0.173 HD
HETATM    4  C1  UNL     1       0.520 -26.308 -15.447  1.00  0.00     0.291 C 
HETATM    5  S2  UNL     1       2.267 -25.800 -15.746  1.00  0.00    -0.093 SA
HETATM    6  C2  UNL     1       2.054 -25.478 -17.539  1.00  0.00     0.196 C 
ENDROOT
BRANCH   1   7
HETATM    7  N1  UNL     1       2.548 -27.893 -18.172  1.00  0.00    -0.353 N 
ATOM      8  H12 UNL     1       3.419 -27.796 -18.694  1.00  0.00     0.166 HD
ATOM      9  H11 UNL     1       2.204 -28.590 -17.511  1.00  0.00     0.166 HD
ENDBRANCH   1   7
BRANCH   1  10
HETATM   10  N2  UNL     1      -0.015 -28.081 -18.565  1.00  0.00    -0.353 N 
ATOM     11  H22 UNL     1      -0.120 -29.043 -18.243  1.00  0.00     0.166 HD
ATOM     12  H21 UNL     1      -0.498 -27.525 -19.271  1.00  0.00     0.166 HD
ENDBRANCH   1  10
BRANCH   1  13
HETATM   13  N3  UNL     1       0.709 -25.883 -19.815  1.00  0.00    -0.120 N 
HETATM   14  N4  UNL     1       0.228 -24.733 -20.126  1.00  0.00    -0.195 N 
HETATM   15  N5  UNL     1       0.417 -24.984 -21.436  1.00  0.00     0.014 NA
ATOM     16  H4  UNL     1      -0.146 -23.946 -19.595  1.00  0.00     0.208 HD
HETATM   17  N6  UNL     1       0.909 -26.170 -21.055  1.00  0.00    -0.195 N 
ATOM     18  H6  UNL     1       1.290 -26.977 -21.549  1.00  0.00     0.208 HD
ENDBRANCH   1  13
BRANCH   6  19
HETATM   19  C3  UNL     1       3.329 -25.003 -18.213  1.00  0.00     0.218 C 
BRANCH  19  20
HETATM   20  O2  UNL     1       3.237 -25.376 -19.586  1.00  0.00    -0.386 OA
ATOM     21  H2  UNL     1       4.105 -25.277 -19.959  1.00  0.00     0.210 HD
ENDBRANCH  19  20
BRANCH  19  22
HETATM   22  C4  UNL     1       3.635 -23.595 -18.205  1.00  0.00     0.187 C 
HETATM   23  O3  UNL     1       2.888 -22.704 -18.606  1.00  0.00    -0.292 OA
BRANCH  22  24
HETATM   24  C5  UNL     1       4.953 -23.134 -17.686  1.00  0.00     0.213 C 
BRANCH  24  25
HETATM   25  O4  UNL     1       5.564 -24.191 -16.966  1.00  0.00    -0.386 OA
ATOM     26  H4  UNL     1       5.669 -23.929 -16.058  1.00  0.00     0.210 HD
ENDBRANCH  24  25
BRANCH  24  27
HETATM   27  C6  UNL     1       4.772 -22.013 -16.665  1.00  0.00     0.203 C 
BRANCH  27  28
HETATM   28  O5  UNL     1       3.629 -22.100 -15.924  1.00  0.00    -0.398 OA
ATOM     29  H5  UNL     1       3.755 -22.425 -15.040  1.00  0.00     0.209 HD
ENDBRANCH  27  28
ENDBRANCH  24  27
ENDBRANCH  22  24
ENDBRANCH  19  22
ENDBRANCH   6  19
BRANCH   4  30
HETATM   30  O1  UNL     1      -0.078 -25.272 -14.768  1.00  0.00    -0.367 OA
ATOM     31  H1  UNL     1       0.215 -25.215 -13.867  1.00  0.00     0.213 HD
ENDBRANCH   4  30
TORSDOF 11
ENDMDL
MODEL 2
REMARK VINA RESULT: -5.373952232      0.857      1.219
REMARK  11 active torsions:
REMARK  status: ('A' for Active; 'I' for Inactive)
REMARK    1  A    between atoms: N1_1  and  S1_4 
REMARK    2  A    between atoms: S1_4  and  N2_5 
REMARK    3  A    between atoms: S1_4  and  N3_8 
REMARK    4  A    between atoms: C1_16  and  O1_17 
REMARK    5  A    between atoms: C2_20  and  C3_21 
REMARK    6  A    between atoms: C3_21  and  O2_22 
REMARK    7  A    between atoms: C3_21  and  C4_24 
REMARK    8  A    between atoms: C4_24  and  C5_26 
REMARK    9  A    between atoms: C5_26  and  O4_27 
REMARK   10  A    between atoms: C5_26  and  C6_29 
REMARK   11  A    between atoms: C6_29  and  O5_30 
ROOT
HETATM    1  S1  UNL     1       0.947 -26.923 -17.951  1.00  0.00     0.026 SA
HETATM    2  N7  UNL     1      -0.259 -26.624 -16.692  1.00  0.00    -0.308 N 
ATOM      3  H7  UNL     1      -1.251 -26.593 -16.929  1.00  0.00     0.173 HD
HETATM    4  C1  UNL     1       0.164 -26.429 -15.352  1.00  0.00     0.291 C 
HETATM    5  S2  UNL     1       1.912 -25.857 -15.481  1.00  0.00    -0.093 SA
HETATM    6  C2  UNL     1       1.857 -25.523 -17.284  1.00  0.00     0.196 C 
ENDROOT
BRANCH   1   7
HETATM    7  N1  UNL     1       2.497 -27.912 -17.884  1.00  0.00    -0.353 N 
ATOM      8  H12 UNL     1       3.033 -28.286 -17.101  1.00  0.00     0.166 HD
ATOM      9  H11 UNL     1       2.620 -27.951 -18.896  1.00  0.00     0.166 HD
ENDBRANCH   1   7
BRANCH   1  10
HETATM   10  N2  UNL     1      -0.009 -28.187 -18.519  1.00  0.00    -0.353 N 
ATOM     11  H22 UNL     1      -0.360 -29.032 -18.069  1.00  0.00     0.166 HD
ATOM     12  H21 UNL     1      -0.107 -27.807 -19.461  1.00  0.00     0.166 HD
ENDBRANCH   1  10
BRANCH   1  13
HETATM   13  N3  UNL     1       0.749 -25.952 -19.679  1.00  0.00    -0.120 N 
HETATM   14  N4  UNL     1       0.351 -24.777 -20.015  1.00  0.00    -0.195 N 
HETATM   15  N5  UNL     1       0.577 -25.048 -21.316  1.00  0.00     0.014 NA
ATOM     16  H4  UNL     1       0.004 -23.966 -19.503  1.00  0.00     0.208 HD
HETATM   17  N6  UNL     1       0.981 -26.259 -20.909  1.00  0.00    -0.195 N 
ATOM     18  H6  UNL     1       1.332 -27.091 -21.383  1.00  0.00     0.208 HD
ENDBRANCH   1  13
BRANCH   6  19
HETATM   19  C3  UNL     1       3.172 -24.996 -17.831  1.00  0.00     0.218 C 
BRANCH  19  20
HETATM   20  O2  UNL     1       3.483 -25.772 -18.986  1.00  0.00    -0.386 OA
ATOM     21  H2  UNL     1       4.149 -25.297 -19.468  1.00  0.00     0.210 HD
ENDBRANCH  19  20
BRANCH  19  22
HETATM   22  C4  UNL     1       3.249 -23.618 -18.246  1.00  0.00     0.187 C 
HETATM   23  O3  UNL     1       3.195 -23.225 -19.410  1.00  0.00    -0.292 OA
BRANCH  22  24
HETATM   24  C5  UNL     1       3.414 -22.551 -17.221  1.00  0.00     0.213 C 
BRANCH  24  25
HETATM   25  O4  UNL     1       3.004 -21.311 -17.771  1.00  0.00    -0.386 OA
ATOM     26  H4  UNL     1       3.724 -20.693 -17.717  1.00  0.00     0.210 HD
ENDBRANCH  24  25
BRANCH  24  27
HETATM   27  C6  UNL     1       4.889 -22.359 -16.872  1.00  0.00     0.203 C 
BRANCH  27  28
HETATM   28  O5  UNL     1       5.672 -21.961 -17.917  1.00  0.00    -0.398 OA
ATOM     29  H5  UNL     1       6.299 -21.280 -17.703  1.00  0.00     0.209 HD
ENDBRANCH  27  28
ENDBRANCH  24  27
ENDBRANCH  22  24
ENDBRANCH  19  22
ENDBRANCH   6  19
BRANCH   4  30
HETATM   30  O1  UNL     1      -0.532 -25.423 -14.726  1.00  0.00    -0.367 OA
ATOM     31  H1  UNL     1       0.040 -24.746 -14.384  1.00  0.00     0.213 HD
ENDBRANCH   4  30
TORSDOF 11
ENDMDL
MODEL 3
REMARK VINA RESULT: -5.340221534      1.043      1.463
REMARK  11 active torsions:
REMARK  status: ('A' for Active; 'I' for Inactive)
REMARK    1  A    between atoms: N1_1  and  S1_4 
REMARK    2  A    between atoms: S1_4  and  N2_5 
REMARK    3  A    between atoms: S1_4  and  N3_8 
REMARK    4  A    between atoms: C1_16  and  O1_17 
REMARK    5  A    between atoms: C2_20  and  C3_21 
REMARK    6  A    between atoms: C3_21  and  O2_22 
REMARK    7  A    between atoms: C3_21  and  C4_24 
REMARK    8  A    between atoms: C4_24  and  C5_26 
REMARK    9  A    between atoms: C5_26  and  O4_27 
REMARK   10  A    between atoms: C5_26  and  C6_29 
REMARK   11  A    between atoms: C6_29  and  O5_30 
ROOT
HETATM    1  S1  UNL     1       1.280 -26.511 -17.940  1.00  0.00     0.026 SA
HETATM    2  N7  UNL     1       0.162 -26.385 -16.576  1.00  0.00    -0.308 N 
ATOM      3  H7  UNL     1      -0.797 -26.723 -16.664  1.00  0.00     0.173 HD
HETATM    4  C1  UNL     1       0.609 -25.812 -15.358  1.00  0.00     0.291 C 
HETATM    5  S2  UNL     1       2.033 -24.739 -15.829  1.00  0.00    -0.093 SA
HETATM    6  C2  UNL     1       1.706 -24.792 -17.633  1.00  0.00     0.196 C 
ENDROOT
BRANCH   1   7
HETATM    7  N1  UNL     1       3.075 -26.913 -17.958  1.00  0.00    -0.353 N 
ATOM      8  H12 UNL     1       3.650 -27.487 -17.340  1.00  0.00     0.166 HD
ATOM      9  H11 UNL     1       3.280 -26.365 -18.793  1.00  0.00     0.166 HD
ENDBRANCH   1   7
BRANCH   1  10
HETATM   10  N2  UNL     1       0.772 -28.101 -18.165  1.00  0.00    -0.353 N 
ATOM     11  H22 UNL     1       1.126 -28.852 -18.758  1.00  0.00     0.166 HD
ATOM     12  H21 UNL     1      -0.004 -28.041 -17.506  1.00  0.00     0.166 HD
ENDBRANCH   1  10
BRANCH   1  13
HETATM   13  N3  UNL     1       0.606 -26.006 -19.746  1.00  0.00    -0.120 N 
HETATM   14  N4  UNL     1      -0.435 -25.391 -20.182  1.00  0.00    -0.195 N 
HETATM   15  N5  UNL     1      -0.011 -25.530 -21.454  1.00  0.00     0.014 NA
ATOM     16  H4  UNL     1      -1.252 -24.967 -19.743  1.00  0.00     0.208 HD
HETATM   17  N6  UNL     1       1.053 -26.164 -20.944  1.00  0.00    -0.195 N 
ATOM     18  H6  UNL     1       1.884 -26.599 -21.344  1.00  0.00     0.208 HD
ENDBRANCH   1  13
BRANCH   6  19
HETATM   19  C3  UNL     1       2.704 -23.982 -18.442  1.00  0.00     0.218 C 
BRANCH  19  20
HETATM   20  O2  UNL     1       2.005 -23.475 -19.576  1.00  0.00    -0.386 OA
ATOM     21  H2  UNL     1       1.518 -22.713 -19.284  1.00  0.00     0.210 HD
ENDBRANCH  19  20
BRANCH  19  22
HETATM   22  C4  UNL     1       3.337 -22.844 -17.825  1.00  0.00     0.187 C 
HETATM   23  O3  UNL     1       2.828 -21.731 -17.700  1.00  0.00    -0.292 OA
BRANCH  22  24
HETATM   24  C5  UNL     1       4.720 -22.975 -17.288  1.00  0.00     0.213 C 
BRANCH  24  25
HETATM   25  O4  UNL     1       5.492 -21.868 -17.721  1.00  0.00    -0.386 OA
ATOM     26  H4  UNL     1       6.383 -22.156 -17.885  1.00  0.00     0.210 HD
ENDBRANCH  24  25
BRANCH  24  27
HETATM   27  C6  UNL     1       5.417 -24.198 -17.880  1.00  0.00     0.203 C 
BRANCH  27  28
HETATM   28  O5  UNL     1       5.525 -25.258 -17.026  1.00  0.00    -0.398 OA
ATOM     29  H5  UNL     1       4.784 -25.851 -17.038  1.00  0.00     0.209 HD
ENDBRANCH  27  28
ENDBRANCH  24  27
ENDBRANCH  22  24
ENDBRANCH  19  22
ENDBRANCH   6  19
BRANCH   4  30
HETATM   30  O1  UNL     1      -0.333 -24.985 -14.793  1.00  0.00    -0.367 OA
ATOM     31  H1  UNL     1      -0.317 -25.015 -13.844  1.00  0.00     0.213 HD
ENDBRANCH   4  30
TORSDOF 11
ENDMDL
MODEL 4
REMARK VINA RESULT: -5.316233981      0.790      1.334
REMARK  11 active torsions:
REMARK  status: ('A' for Active; 'I' for Inactive)
REMARK    1  A    between atoms: N1_1  and  S1_4 
REMARK    2  A    between atoms: S1_4  and  N2_5 
REMARK    3  A    between atoms: S1_4  and  N3_8 
REMARK    4  A    between atoms: C1_16  and  O1_17 
REMARK    5  A    between atoms: C2_20  and  C3_21 
REMARK    6  A    between atoms: C3_21  and  O2_22 
REMARK    7  A    between atoms: C3_21  and  C4_24 
REMARK    8  A    between atoms: C4_24  and  C5_26 
REMARK    9  A    between atoms: C5_26  and  O4_27 
REMARK   10  A    between atoms: C5_26  and  C6_29 
REMARK   11  A    between atoms: C6_29  and  O5_30 
ROOT
HETATM    1  S1  UNL     1       0.853 -27.287 -18.491  1.00  0.00     0.026 SA
HETATM    2  N7  UNL     1      -0.206 -27.002 -17.104  1.00  0.00    -0.308 N 
ATOM      3  H7  UNL     1      -1.196 -26.799 -17.247  1.00  0.00     0.173 HD
HETATM    4  C1  UNL     1       0.331 -27.058 -15.793  1.00  0.00     0.291 C 
HETATM    5  S2  UNL     1       2.133 -26.724 -15.999  1.00  0.00    -0.093 SA
HETATM    6  C2  UNL     1       2.007 -26.137 -17.732  1.00  0.00     0.196 C 
ENDROOT
BRANCH   1   7
HETATM    7  N1  UNL     1       2.237 -28.483 -18.689  1.00  0.00    -0.353 N 
ATOM      8  H12 UNL     1       2.591 -28.986 -19.503  1.00  0.00     0.166 HD
ATOM      9  H11 UNL     1       2.514 -28.461 -17.708  1.00  0.00     0.166 HD
ENDBRANCH   1   7
BRANCH   1  10
HETATM   10  N2  UNL     1      -0.319 -28.312 -19.132  1.00  0.00    -0.353 N 
ATOM     11  H22 UNL     1      -0.276 -29.025 -19.861  1.00  0.00     0.166 HD
ATOM     12  H21 UNL     1      -1.073 -27.967 -18.539  1.00  0.00     0.166 HD
ENDBRANCH   1  10
BRANCH   1  13
HETATM   13  N3  UNL     1       0.688 -26.065 -20.056  1.00  0.00    -0.120 N 
HETATM   14  N4  UNL     1       0.354 -24.833 -20.209  1.00  0.00    -0.195 N 
HETATM   15  N5  UNL     1       0.545 -24.924 -21.540  1.00  0.00     0.014 NA
ATOM     16  H4  UNL     1       0.062 -24.087 -19.578  1.00  0.00     0.208 HD
HETATM   17  N6  UNL     1       0.883 -26.201 -21.323  1.00  0.00    -0.195 N 
ATOM     18  H6  UNL     1       1.178 -26.974 -21.920  1.00  0.00     0.208 HD
ENDBRANCH   1  13
BRANCH   6  19
HETATM   19  C3  UNL     1       3.346 -25.727 -18.319  1.00  0.00     0.218 C 
BRANCH  19  20
HETATM   20  O2  UNL     1       3.207 -25.767 -19.738  1.00  0.00    -0.386 OA
ATOM     21  H2  UNL     1       4.073 -25.631 -20.105  1.00  0.00     0.210 HD
ENDBRANCH  19  20
BRANCH  19  22
HETATM   22  C4  UNL     1       3.871 -24.422 -18.008  1.00  0.00     0.187 C 
HETATM   23  O3  UNL     1       5.050 -24.172 -17.762  1.00  0.00    -0.292 OA
BRANCH  22  24
HETATM   24  C5  UNL     1       2.950 -23.253 -17.961  1.00  0.00     0.213 C 
BRANCH  24  25
HETATM   25  O4  UNL     1       2.646 -22.847 -19.285  1.00  0.00    -0.386 OA
ATOM     26  H4  UNL     1       1.733 -23.039 -19.467  1.00  0.00     0.210 HD
ENDBRANCH  24  25
BRANCH  24  27
HETATM   27  C6  UNL     1       3.638 -22.046 -17.327  1.00  0.00     0.203 C 
BRANCH  27  28
HETATM   28  O5  UNL     1       3.712 -22.086 -15.964  1.00  0.00    -0.398 OA
ATOM     29  H5  UNL     1       3.160 -21.454 -15.520  1.00  0.00     0.209 HD
ENDBRANCH  27  28
ENDBRANCH  24  27
ENDBRANCH  22  24
ENDBRANCH  19  22
ENDBRANCH   6  19
BRANCH   4  30
HETATM   30  O1  UNL     1      -0.161 -26.062 -14.983  1.00  0.00    -0.367 OA
ATOM     31  H1  UNL     1      -0.332 -26.366 -14.099  1.00  0.00     0.213 HD
ENDBRANCH   4  30
TORSDOF 11
ENDMDL
MODEL 5
REMARK VINA RESULT: -5.208291833      3.543      5.286
REMARK  11 active torsions:
REMARK  status: ('A' for Active; 'I' for Inactive)
REMARK    1  A    between atoms: N1_1  and  S1_4 
REMARK    2  A    between atoms: S1_4  and  N2_5 
REMARK    3  A    between atoms: S1_4  and  N3_8 
REMARK    4  A    between atoms: C1_16  and  O1_17 
REMARK    5  A    between atoms: C2_20  and  C3_21 
REMARK    6  A    between atoms: C3_21  and  O2_22 
REMARK    7  A    between atoms: C3_21  and  C4_24 
REMARK    8  A    between atoms: C4_24  and  C5_26 
REMARK    9  A    between atoms: C5_26  and  O4_27 
REMARK   10  A    between atoms: C5_26  and  C6_29 
REMARK   11  A    between atoms: C6_29  and  O5_30 
ROOT
HETATM    1  S1  UNL     1       4.603 -25.609 -17.602  1.00  0.00     0.026 SA
HETATM    2  N7  UNL     1       5.484 -26.196 -19.018  1.00  0.00    -0.308 N 
ATOM      3  H7  UNL     1       6.175 -25.602 -19.476  1.00  0.00     0.173 HD
HETATM    4  C1  UNL     1       5.221 -27.500 -19.512  1.00  0.00     0.291 C 
HETATM    5  S2  UNL     1       3.521 -27.902 -18.920  1.00  0.00    -0.093 SA
HETATM    6  C2  UNL     1       3.103 -26.193 -18.404  1.00  0.00     0.196 C 
ENDROOT
BRANCH   1   7
HETATM    7  N1  UNL     1       4.090 -26.506 -16.080  1.00  0.00    -0.353 N 
ATOM      8  H12 UNL     1       3.897 -26.183 -15.131  1.00  0.00     0.166 HD
ATOM      9  H11 UNL     1       4.069 -27.425 -16.521  1.00  0.00     0.166 HD
ENDBRANCH   1   7
BRANCH   1  10
HETATM   10  N2  UNL     1       6.062 -25.061 -16.964  1.00  0.00    -0.353 N 
ATOM     11  H22 UNL     1       6.395 -24.971 -16.004  1.00  0.00     0.166 HD
ATOM     12  H21 UNL     1       6.483 -24.856 -17.870  1.00  0.00     0.166 HD
ENDBRANCH   1  10
BRANCH   1  13
HETATM   13  N3  UNL     1       3.889 -23.750 -17.654  1.00  0.00    -0.120 N 
HETATM   14  N4  UNL     1       3.616 -22.861 -16.766  1.00  0.00    -0.195 N 
HETATM   15  N5  UNL     1       3.224 -21.996 -17.721  1.00  0.00     0.014 NA
ATOM     16  H4  UNL     1       3.673 -22.826 -15.748  1.00  0.00     0.208 HD
HETATM   17  N6  UNL     1       3.525 -22.958 -18.603  1.00  0.00    -0.195 N 
ATOM     18  H6  UNL     1       3.483 -23.033 -19.619  1.00  0.00     0.208 HD
ENDBRANCH   1  13
BRANCH   6  19
HETATM   19  C3  UNL     1       1.703 -26.071 -17.832  1.00  0.00     0.218 C 
BRANCH  19  20
HETATM   20  O2  UNL     1       1.666 -24.861 -17.077  1.00  0.00    -0.386 OA
ATOM     21  H2  UNL     1       2.532 -24.474 -17.132  1.00  0.00     0.210 HD
ENDBRANCH  19  20
BRANCH  19  22
HETATM   22  C4  UNL     1       0.585 -26.005 -18.740  1.00  0.00     0.187 C 
HETATM   23  O3  UNL     1      -0.567 -26.344 -18.472  1.00  0.00    -0.292 OA
BRANCH  22  24
HETATM   24  C5  UNL     1       0.794 -25.503 -20.126  1.00  0.00     0.213 C 
BRANCH  24  25
HETATM   25  O4  UNL     1       1.148 -24.132 -20.075  1.00  0.00    -0.386 OA
ATOM     26  H4  UNL     1       0.665 -23.660 -20.743  1.00  0.00     0.210 HD
ENDBRANCH  24  25
BRANCH  24  27
HETATM   27  C6  UNL     1      -0.510 -25.544 -20.920  1.00  0.00     0.203 C 
BRANCH  27  28
HETATM   28  O5  UNL     1      -1.362 -24.507 -20.666  1.00  0.00    -0.398 OA
ATOM     29  H5  UNL     1      -1.406 -24.248 -19.753  1.00  0.00     0.209 HD
ENDBRANCH  27  28
ENDBRANCH  24  27
ENDBRANCH  22  24
ENDBRANCH  19  22
ENDBRANCH   6  19
BRANCH   4  30
HETATM   30  O1  UNL     1       5.175 -27.539 -20.886  1.00  0.00    -0.367 OA
ATOM     31  H1  UNL     1       4.287 -27.600 -21.216  1.00  0.00     0.213 HD
ENDBRANCH   4  30
TORSDOF 11
ENDMDL
