MODEL 1
REMARK VINA RESULT: -8.737293640      0.000      0.000
REMARK  7 active torsions:
REMARK  status: ('A' for Active; 'I' for Inactive)
REMARK    1  A    between atoms: C5_5  and  C6_6 
REMARK    2  A    between atoms: C6_6  and  C7_7 
REMARK    3  A    between atoms: C7_7  and  O1_8 
REMARK    4  A    between atoms: C7_7  and  C8_10 
REMARK    5  A    between atoms: C8_10  and  N1_11 
REMARK    6  A    between atoms: C8_10  and  C9_15 
REMARK    7  A    between atoms: C9_15  and  C10_16 
ROOT
HETATM    1  C8  UNL     1       9.558 -18.765   7.095  1.00  0.00     0.217 C 
ENDROOT
BRANCH   1   2
HETATM    2  C7  UNL     1       8.486 -18.161   6.224  1.00  0.00     0.153 C 
BRANCH   2   3
HETATM    3  C6  UNL     1       7.755 -19.047   5.304  1.00  0.00     0.072 C 
BRANCH   3   4
HETATM    4  C5  UNL     1       6.612 -18.528   4.559  1.00  0.00    -0.056 A 
HETATM    5  C4  UNL     1       6.769 -18.306   3.184  1.00  0.00     0.007 A 
HETATM    6  C3  UNL     1       5.706 -17.849   2.414  1.00  0.00     0.007 A 
HETATM    7  C2  UNL     1       4.486 -17.605   2.968  1.00  0.00    -0.062 A 
HETATM    8  C1  UNL     1       3.361 -17.114   2.113  1.00  0.00     0.048 C 
HETATM    9  C14 UNL     1       4.308 -17.818   4.326  1.00  0.00     0.007 A 
HETATM   10  C13 UNL     1       5.365 -18.270   5.082  1.00  0.00     0.007 A 
ENDBRANCH   3   4
ENDBRANCH   2   3
BRANCH   2  11
HETATM   11  O1  UNL     1       9.145 -17.177   5.396  1.00  0.00    -0.393 OA
ATOM     12  H1  UNL     1      10.017 -17.516   5.227  1.00  0.00     0.210 HD
ENDBRANCH   2  11
ENDBRANCH   1   2
BRANCH   1  13
HETATM   13  N1  UNL     1       9.871 -17.914   8.230  1.00  0.00    -0.072 N 
ATOM     14  H13 UNL     1       9.537 -16.961   8.084  1.00  0.00     0.274 HD
ATOM     15  H12 UNL     1       9.305 -18.157   9.044  1.00  0.00     0.274 HD
ATOM     16  H11 UNL     1      10.866 -17.930   8.451  1.00  0.00     0.274 HD
ENDBRANCH   1  13
BRANCH   1  17
HETATM   17  C9  UNL     1       9.205 -20.137   7.551  1.00  0.00     0.093 C 
BRANCH  17  18
HETATM   18  C10 UNL     1      10.392 -20.954   7.868  1.00  0.00     0.027 A 
HETATM   19  C11 UNL     1      10.343 -22.311   8.263  1.00  0.00     0.114 A 
HETATM   20  N2  UNL     1      11.582 -22.774   8.465  1.00  0.00    -0.360 N 
HETATM   21  C12 UNL     1      12.431 -21.773   8.216  1.00  0.00     0.180 A 
ATOM     22  H2  UNL     1      11.833 -23.719   8.755  1.00  0.00     0.166 HD
HETATM   23  N3  UNL     1      11.707 -20.698   7.863  1.00  0.00    -0.355 N 
ATOM     24  H3  UNL     1      12.110 -19.793   7.619  1.00  0.00     0.166 HD
ENDBRANCH  17  18
ENDBRANCH   1  17
TORSDOF 7
ENDMDL
MODEL 2
REMARK VINA RESULT: -8.712489454      1.828      2.893
REMARK  7 active torsions:
REMARK  status: ('A' for Active; 'I' for Inactive)
REMARK    1  A    between atoms: C5_5  and  C6_6 
REMARK    2  A    between atoms: C6_6  and  C7_7 
REMARK    3  A    between atoms: C7_7  and  O1_8 
REMARK    4  A    between atoms: C7_7  and  C8_10 
REMARK    5  A    between atoms: C8_10  and  N1_11 
REMARK    6  A    between atoms: C8_10  and  C9_15 
REMARK    7  A    between atoms: C9_15  and  C10_16 
ROOT
HETATM    1  C8  UNL     1       6.427 -18.414   6.615  1.00  0.00     0.217 C 
ENDROOT
BRANCH   1   2
HETATM    2  C7  UNL     1       6.429 -17.287   5.614  1.00  0.00     0.153 C 
BRANCH   2   3
HETATM    3  C6  UNL     1       6.646 -17.615   4.195  1.00  0.00     0.072 C 
BRANCH   3   4
HETATM    4  C5  UNL     1       5.622 -17.276   3.212  1.00  0.00    -0.056 A 
HETATM    5  C4  UNL     1       4.370 -17.896   3.325  1.00  0.00     0.007 A 
HETATM    6  C3  UNL     1       3.343 -17.585   2.442  1.00  0.00     0.007 A 
HETATM    7  C2  UNL     1       3.518 -16.671   1.447  1.00  0.00    -0.062 A 
HETATM    8  C1  UNL     1       2.393 -16.357   0.513  1.00  0.00     0.048 C 
HETATM    9  C14 UNL     1       4.748 -16.045   1.318  1.00  0.00     0.007 A 
HETATM   10  C13 UNL     1       5.761 -16.359   2.195  1.00  0.00     0.007 A 
ENDBRANCH   3   4
ENDBRANCH   2   3
BRANCH   2  11
HETATM   11  O1  UNL     1       7.514 -16.411   5.994  1.00  0.00    -0.393 OA
ATOM     12  H1  UNL     1       7.155 -15.810   6.636  1.00  0.00     0.210 HD
ENDBRANCH   2  11
ENDBRANCH   1   2
BRANCH   1  13
HETATM   13  N1  UNL     1       5.078 -18.772   7.017  1.00  0.00    -0.072 N 
ATOM     14  H13 UNL     1       4.811 -18.303   7.883  1.00  0.00     0.274 HD
ATOM     15  H12 UNL     1       4.382 -18.363   6.393  1.00  0.00     0.274 HD
ATOM     16  H11 UNL     1       4.962 -19.783   7.091  1.00  0.00     0.274 HD
ENDBRANCH   1  13
BRANCH   1  17
HETATM   17  C9  UNL     1       7.160 -19.610   6.117  1.00  0.00     0.093 C 
BRANCH  17  18
HETATM   18  C10 UNL     1       8.453 -19.808   6.798  1.00  0.00     0.027 A 
HETATM   19  C11 UNL     1       9.047 -18.867   7.671  1.00  0.00     0.114 A 
HETATM   20  N2  UNL     1      10.206 -19.344   8.138  1.00  0.00    -0.360 N 
HETATM   21  C12 UNL     1      10.388 -20.555   7.603  1.00  0.00     0.180 A 
ATOM     22  H2  UNL     1      10.837 -18.870   8.785  1.00  0.00     0.166 HD
HETATM   23  N3  UNL     1       9.336 -20.815   6.809  1.00  0.00    -0.355 N 
ATOM     24  H3  UNL     1       9.223 -21.678   6.277  1.00  0.00     0.166 HD
ENDBRANCH  17  18
ENDBRANCH   1  17
TORSDOF 7
ENDMDL
MODEL 3
REMARK VINA RESULT: -8.694679759      0.122      1.121
REMARK  7 active torsions:
REMARK  status: ('A' for Active; 'I' for Inactive)
REMARK    1  A    between atoms: C5_5  and  C6_6 
REMARK    2  A    between atoms: C6_6  and  C7_7 
REMARK    3  A    between atoms: C7_7  and  O1_8 
REMARK    4  A    between atoms: C7_7  and  C8_10 
REMARK    5  A    between atoms: C8_10  and  N1_11 
REMARK    6  A    between atoms: C8_10  and  C9_15 
REMARK    7  A    between atoms: C9_15  and  C10_16 
ROOT
HETATM    1  C8  UNL     1       9.546 -18.731   7.195  1.00  0.00     0.217 C 
ENDROOT
BRANCH   1   2
HETATM    2  C7  UNL     1       8.485 -18.179   6.278  1.00  0.00     0.153 C 
BRANCH   2   3
HETATM    3  C6  UNL     1       7.662 -19.129   5.512  1.00  0.00     0.072 C 
BRANCH   3   4
HETATM    4  C5  UNL     1       6.639 -18.626   4.601  1.00  0.00    -0.056 A 
HETATM    5  C4  UNL     1       5.378 -18.320   5.131  1.00  0.00     0.007 A 
HETATM    6  C3  UNL     1       4.376 -17.800   4.321  1.00  0.00     0.007 A 
HETATM    7  C2  UNL     1       4.586 -17.573   2.995  1.00  0.00    -0.062 A 
HETATM    8  C1  UNL     1       3.487 -17.013   2.148  1.00  0.00     0.048 C 
HETATM    9  C14 UNL     1       5.825 -17.868   2.449  1.00  0.00     0.007 A 
HETATM   10  C13 UNL     1       6.813 -18.383   3.258  1.00  0.00     0.007 A 
ENDBRANCH   3   4
ENDBRANCH   2   3
BRANCH   2  11
HETATM   11  O1  UNL     1       9.177 -17.369   5.301  1.00  0.00    -0.393 OA
ATOM     12  H1  UNL     1       9.417 -16.565   5.746  1.00  0.00     0.210 HD
ENDBRANCH   2  11
ENDBRANCH   1   2
BRANCH   1  13
HETATM   13  N1  UNL     1       9.827 -17.826   8.296  1.00  0.00    -0.072 N 
ATOM     14  H13 UNL     1       9.094 -17.863   9.005  1.00  0.00     0.274 HD
ATOM     15  H12 UNL     1      10.610 -18.158   8.860  1.00  0.00     0.274 HD
ATOM     16  H11 UNL     1       9.982 -16.872   7.970  1.00  0.00     0.274 HD
ENDBRANCH   1  13
BRANCH   1  17
HETATM   17  C9  UNL     1       9.198 -20.085   7.705  1.00  0.00     0.093 C 
BRANCH  17  18
HETATM   18  C10 UNL     1      10.388 -20.921   7.954  1.00  0.00     0.027 A 
HETATM   19  C11 UNL     1      10.340 -22.280   8.343  1.00  0.00     0.114 A 
HETATM   20  N2  UNL     1      11.581 -22.763   8.475  1.00  0.00    -0.360 N 
HETATM   21  C12 UNL     1      12.431 -21.773   8.187  1.00  0.00     0.180 A 
ATOM     22  H2  UNL     1      11.833 -23.714   8.746  1.00  0.00     0.166 HD
HETATM   23  N3  UNL     1      11.704 -20.685   7.879  1.00  0.00    -0.355 N 
ATOM     24  H3  UNL     1      12.108 -19.785   7.618  1.00  0.00     0.166 HD
ENDBRANCH  17  18
ENDBRANCH   1  17
TORSDOF 7
ENDMDL
MODEL 4
REMARK VINA RESULT: -8.537643246      1.668      2.584
REMARK  7 active torsions:
REMARK  status: ('A' for Active; 'I' for Inactive)
REMARK    1  A    between atoms: C5_5  and  C6_6 
REMARK    2  A    between atoms: C6_6  and  C7_7 
REMARK    3  A    between atoms: C7_7  and  O1_8 
REMARK    4  A    between atoms: C7_7  and  C8_10 
REMARK    5  A    between atoms: C8_10  and  N1_11 
REMARK    6  A    between atoms: C8_10  and  C9_15 
REMARK    7  A    between atoms: C9_15  and  C10_16 
ROOT
HETATM    1  C8  UNL     1       9.755 -20.249   7.347  1.00  0.00     0.217 C 
ENDROOT
BRANCH   1   2
HETATM    2  C7  UNL     1       9.335 -19.124   8.258  1.00  0.00     0.153 C 
BRANCH   2   3
HETATM    3  C6  UNL     1       7.919 -18.724   8.266  1.00  0.00     0.072 C 
BRANCH   3   4
HETATM    4  C5  UNL     1       7.243 -18.441   7.004  1.00  0.00    -0.056 A 
HETATM    5  C4  UNL     1       6.237 -19.322   6.583  1.00  0.00     0.007 A 
HETATM    6  C3  UNL     1       5.531 -19.084   5.411  1.00  0.00     0.007 A 
HETATM    7  C2  UNL     1       5.792 -17.993   4.638  1.00  0.00    -0.062 A 
HETATM    8  C1  UNL     1       5.014 -17.763   3.381  1.00  0.00     0.048 C 
HETATM    9  C14 UNL     1       6.781 -17.107   5.035  1.00  0.00     0.007 A 
HETATM   10  C13 UNL     1       7.477 -17.350   6.198  1.00  0.00     0.007 A 
ENDBRANCH   3   4
ENDBRANCH   2   3
BRANCH   2  11
HETATM   11  O1  UNL     1      10.079 -17.960   7.832  1.00  0.00    -0.393 OA
ATOM     12  H1  UNL     1      10.193 -17.422   8.606  1.00  0.00     0.210 HD
ENDBRANCH   2  11
ENDBRANCH   1   2
BRANCH   1  13
HETATM   13  N1  UNL     1       9.849 -19.813   5.965  1.00  0.00    -0.072 N 
ATOM     14  H13 UNL     1      10.343 -18.924   5.887  1.00  0.00     0.274 HD
ATOM     15  H12 UNL     1      10.493 -20.400   5.433  1.00  0.00     0.274 HD
ATOM     16  H11 UNL     1       8.933 -19.770   5.519  1.00  0.00     0.274 HD
ENDBRANCH   1  13
BRANCH   1  17
HETATM   17  C9  UNL     1      11.028 -20.882   7.785  1.00  0.00     0.093 C 
BRANCH  17  18
HETATM   18  C10 UNL     1      10.899 -22.337   7.990  1.00  0.00     0.027 A 
HETATM   19  C11 UNL     1      11.895 -23.281   7.649  1.00  0.00     0.114 A 
HETATM   20  N2  UNL     1      11.487 -24.514   7.970  1.00  0.00    -0.360 N 
HETATM   21  C12 UNL     1      10.267 -24.407   8.506  1.00  0.00     0.180 A 
ATOM     22  H2  UNL     1      12.011 -25.379   7.832  1.00  0.00     0.166 HD
HETATM   23  N3  UNL     1       9.933 -23.106   8.510  1.00  0.00    -0.355 N 
ATOM     24  H3  UNL     1       9.048 -22.745   8.867  1.00  0.00     0.166 HD
ENDBRANCH  17  18
ENDBRANCH   1  17
TORSDOF 7
ENDMDL
MODEL 5
REMARK VINA RESULT: -8.431246616      2.171      3.506
REMARK  7 active torsions:
REMARK  status: ('A' for Active; 'I' for Inactive)
REMARK    1  A    between atoms: C5_5  and  C6_6 
REMARK    2  A    between atoms: C6_6  and  C7_7 
REMARK    3  A    between atoms: C7_7  and  O1_8 
REMARK    4  A    between atoms: C7_7  and  C8_10 
REMARK    5  A    between atoms: C8_10  and  N1_11 
REMARK    6  A    between atoms: C8_10  and  C9_15 
REMARK    7  A    between atoms: C9_15  and  C10_16 
ROOT
HETATM    1  C8  UNL     1       7.037 -18.158   5.033  1.00  0.00     0.217 C 
ENDROOT
BRANCH   1   2
HETATM    2  C7  UNL     1       5.755 -18.164   4.242  1.00  0.00     0.153 C 
BRANCH   2   3
HETATM    3  C6  UNL     1       5.621 -17.217   3.123  1.00  0.00     0.072 C 
BRANCH   3   4
HETATM    4  C5  UNL     1       4.562 -17.410   2.137  1.00  0.00    -0.056 A 
HETATM    5  C4  UNL     1       4.265 -18.720   1.739  1.00  0.00     0.007 A 
HETATM    6  C3  UNL     1       3.241 -18.971   0.833  1.00  0.00     0.007 A 
HETATM    7  C2  UNL     1       2.498 -17.957   0.309  1.00  0.00    -0.062 A 
HETATM    8  C1  UNL     1       1.402 -18.258  -0.664  1.00  0.00     0.048 C 
HETATM    9  C14 UNL     1       2.774 -16.653   0.690  1.00  0.00     0.007 A 
HETATM   10  C13 UNL     1       3.790 -16.412   1.586  1.00  0.00     0.007 A 
ENDBRANCH   3   4
ENDBRANCH   2   3
BRANCH   2  11
HETATM   11  O1  UNL     1       4.702 -17.832   5.176  1.00  0.00    -0.393 OA
ATOM     12  H1  UNL     1       4.160 -18.609   5.249  1.00  0.00     0.210 HD
ENDBRANCH   2  11
ENDBRANCH   1   2
BRANCH   1  13
HETATM   13  N1  UNL     1       7.498 -16.806   5.299  1.00  0.00    -0.072 N 
ATOM     14  H13 UNL     1       7.149 -16.150   4.601  1.00  0.00     0.274 HD
ATOM     15  H12 UNL     1       7.046 -16.415   6.126  1.00  0.00     0.274 HD
ATOM     16  H11 UNL     1       8.514 -16.762   5.374  1.00  0.00     0.274 HD
ENDBRANCH   1  13
BRANCH   1  17
HETATM   17  C9  UNL     1       6.920 -18.930   6.300  1.00  0.00     0.093 C 
BRANCH  17  18
HETATM   18  C10 UNL     1       8.220 -19.433   6.782  1.00  0.00     0.027 A 
HETATM   19  C11 UNL     1       9.038 -18.758   7.717  1.00  0.00     0.114 A 
HETATM   20  N2  UNL     1      10.141 -19.474   7.961  1.00  0.00    -0.360 N 
HETATM   21  C12 UNL     1      10.071 -20.586   7.223  1.00  0.00     0.180 A 
ATOM     22  H2  UNL     1      10.899 -19.219   8.596  1.00  0.00     0.166 HD
HETATM   23  N3  UNL     1       8.922 -20.545   6.528  1.00  0.00    -0.355 N 
ATOM     24  H3  UNL     1       8.619 -21.275   5.883  1.00  0.00     0.166 HD
ENDBRANCH  17  18
ENDBRANCH   1  17
TORSDOF 7
ENDMDL
