MODEL 1
REMARK VINA RESULT: -7.928648834      0.000      0.000
REMARK  6 active torsions:
REMARK  status: ('A' for Active; 'I' for Inactive)
REMARK    1  A    between atoms: C2_3  and  N2_4 
REMARK    2  A    between atoms: C2_3  and  C3_8 
REMARK    3  A    between atoms: C6_13  and  C7_14 
REMARK    4  A    between atoms: C7_14  and  C8_15 
REMARK    5  A    between atoms: C8_15  and  N4_16 
REMARK    6  A    between atoms: N4_16  and  C9_18 
ROOT
HETATM    1  N1  UNL     1       9.160 -17.917   8.954  1.00  0.00    -0.195 NA
HETATM    2  C1  UNL     1       8.824 -18.277   7.909  1.00  0.00     0.097 C 
HETATM    3  C2  UNL     1       8.401 -18.749   6.595  1.00  0.00     0.324 C 
ENDROOT
BRANCH   3   4
HETATM    4  N2  UNL     1       8.901 -20.077   6.308  1.00  0.00    -0.058 N 
ATOM      5  H23 UNL     1       9.664 -20.329   6.936  1.00  0.00     0.276 HD
ATOM      6  H22 UNL     1       8.227 -20.793   6.579  1.00  0.00     0.276 HD
ATOM      7  H21 UNL     1       9.176 -20.179   5.331  1.00  0.00     0.276 HD
ENDBRANCH   3   4
BRANCH   3   8
HETATM    8  C3  UNL     1       6.931 -18.755   6.437  1.00  0.00     0.009 A 
HETATM    9  C4  UNL     1       6.007 -18.977   7.439  1.00  0.00     0.098 A 
HETATM   10  N3  UNL     1       4.775 -18.909   6.935  1.00  0.00    -0.374 N 
HETATM   11  C5  UNL     1       4.903 -18.646   5.615  1.00  0.00     0.095 A 
ATOM     12  H3  UNL     1       3.902 -19.032   7.447  1.00  0.00     0.164 HD
HETATM   13  C6  UNL     1       6.217 -18.545   5.275  1.00  0.00    -0.031 A 
BRANCH  13  14
HETATM   14  C7  UNL     1       6.876 -18.272   3.976  1.00  0.00     0.060 C 
BRANCH  14  15
HETATM   15  C8  UNL     1       6.169 -17.223   3.173  1.00  0.00     0.126 C 
BRANCH  15  16
HETATM   16  N4  UNL     1       5.753 -17.832   1.924  1.00  0.00    -0.376 N 
ATOM     17  H4  UNL     1       6.464 -18.325   1.385  1.00  0.00     0.161 HD
BRANCH  16  18
HETATM   18  C9  UNL     1       4.575 -17.802   1.446  1.00  0.00     0.100 A 
HETATM   19  C10 UNL     1       3.987 -16.547   1.307  1.00  0.00     0.048 A 
HETATM   20  C11 UNL     1       2.707 -16.443   0.791  1.00  0.00     0.005 A 
HETATM   21  C12 UNL     1       2.055 -17.602   0.429  1.00  0.00     0.017 A 
HETATM   22  C13 UNL     1       2.644 -18.852   0.569  1.00  0.00     0.089 A 
HETATM   23  N5  UNL     1       3.880 -18.892   1.072  1.00  0.00    -0.353 N 
ATOM     24  H5  UNL     1       4.324 -19.804   1.179  1.00  0.00     0.166 HD
ENDBRANCH  16  18
ENDBRANCH  15  16
ENDBRANCH  14  15
ENDBRANCH  13  14
ENDBRANCH   3   8
TORSDOF 6
ENDMDL
MODEL 2
REMARK VINA RESULT: -7.824092617      1.729      7.193
REMARK  6 active torsions:
REMARK  status: ('A' for Active; 'I' for Inactive)
REMARK    1  A    between atoms: C2_3  and  N2_4 
REMARK    2  A    between atoms: C2_3  and  C3_8 
REMARK    3  A    between atoms: C6_13  and  C7_14 
REMARK    4  A    between atoms: C7_14  and  C8_15 
REMARK    5  A    between atoms: C8_15  and  N4_16 
REMARK    6  A    between atoms: N4_16  and  C9_18 
ROOT
HETATM    1  N1  UNL     1       0.030 -19.246   0.576  1.00  0.00    -0.195 NA
HETATM    2  C1  UNL     1       1.174 -19.236   0.738  1.00  0.00     0.097 C 
HETATM    3  C2  UNL     1       2.621 -19.226   0.926  1.00  0.00     0.324 C 
ENDROOT
BRANCH   3   4
HETATM    4  N2  UNL     1       3.312 -19.921  -0.140  1.00  0.00    -0.058 N 
ATOM      5  H23 UNL     1       3.302 -20.930   0.010  1.00  0.00     0.276 HD
ATOM      6  H22 UNL     1       2.783 -19.883  -1.011  1.00  0.00     0.276 HD
ATOM      7  H21 UNL     1       4.263 -19.575  -0.269  1.00  0.00     0.276 HD
ENDBRANCH   3   4
BRANCH   3   8
HETATM    8  C3  UNL     1       3.173 -17.859   1.030  1.00  0.00     0.009 A 
HETATM    9  C4  UNL     1       2.755 -16.756   0.310  1.00  0.00     0.098 A 
HETATM   10  N3  UNL     1       3.476 -15.692   0.663  1.00  0.00    -0.374 N 
HETATM   11  C5  UNL     1       4.354 -16.104   1.604  1.00  0.00     0.095 A 
ATOM     12  H3  UNL     1       3.383 -14.746   0.293  1.00  0.00     0.164 HD
HETATM   13  C6  UNL     1       4.195 -17.433   1.854  1.00  0.00    -0.031 A 
BRANCH  13  14
HETATM   14  C7  UNL     1       4.899 -18.348   2.784  1.00  0.00     0.060 C 
BRANCH  14  15
HETATM   15  C8  UNL     1       6.345 -17.998   2.962  1.00  0.00     0.126 C 
BRANCH  15  16
HETATM   16  N4  UNL     1       6.462 -17.225   4.184  1.00  0.00    -0.376 N 
ATOM     17  H4  UNL     1       6.202 -16.240   4.140  1.00  0.00     0.161 HD
BRANCH  16  18
HETATM   18  C9  UNL     1       6.862 -17.673   5.305  1.00  0.00     0.100 A 
HETATM   19  C10 UNL     1       5.886 -18.160   6.170  1.00  0.00     0.048 A 
HETATM   20  C11 UNL     1       6.254 -18.664   7.406  1.00  0.00     0.005 A 
HETATM   21  C12 UNL     1       7.592 -18.663   7.736  1.00  0.00     0.017 A 
HETATM   22  C13 UNL     1       8.564 -18.177   6.871  1.00  0.00     0.089 A 
HETATM   23  N5  UNL     1       8.151 -17.704   5.693  1.00  0.00    -0.353 N 
ATOM     24  H5  UNL     1       8.855 -17.343   5.049  1.00  0.00     0.166 HD
ENDBRANCH  16  18
ENDBRANCH  15  16
ENDBRANCH  14  15
ENDBRANCH  13  14
ENDBRANCH   3   8
TORSDOF 6
ENDMDL
MODEL 3
REMARK VINA RESULT: -7.805961257      0.864      1.233
REMARK  6 active torsions:
REMARK  status: ('A' for Active; 'I' for Inactive)
REMARK    1  A    between atoms: C2_3  and  N2_4 
REMARK    2  A    between atoms: C2_3  and  C3_8 
REMARK    3  A    between atoms: C6_13  and  C7_14 
REMARK    4  A    between atoms: C7_14  and  C8_15 
REMARK    5  A    between atoms: C8_15  and  N4_16 
REMARK    6  A    between atoms: N4_16  and  C9_18 
ROOT
HETATM    1  N1  UNL     1       9.132 -17.915   9.020  1.00  0.00    -0.195 NA
HETATM    2  C1  UNL     1       8.808 -18.358   8.003  1.00  0.00     0.097 C 
HETATM    3  C2  UNL     1       8.398 -18.934   6.727  1.00  0.00     0.324 C 
ENDROOT
BRANCH   3   4
HETATM    4  N2  UNL     1       8.707 -20.346   6.644  1.00  0.00    -0.058 N 
ATOM      5  H23 UNL     1       9.707 -20.499   6.516  1.00  0.00     0.276 HD
ATOM      6  H22 UNL     1       8.588 -20.805   7.547  1.00  0.00     0.276 HD
ATOM      7  H21 UNL     1       8.165 -20.814   5.917  1.00  0.00     0.276 HD
ENDBRANCH   3   4
BRANCH   3   8
HETATM    8  C3  UNL     1       6.957 -18.751   6.455  1.00  0.00     0.009 A 
HETATM    9  C4  UNL     1       5.922 -19.044   7.324  1.00  0.00     0.098 A 
HETATM   10  N3  UNL     1       4.757 -18.753   6.746  1.00  0.00    -0.374 N 
HETATM   11  C5  UNL     1       5.036 -18.276   5.512  1.00  0.00     0.095 A 
ATOM     12  H3  UNL     1       3.831 -18.868   7.156  1.00  0.00     0.164 HD
HETATM   13  C6  UNL     1       6.381 -18.261   5.301  1.00  0.00    -0.031 A 
BRANCH  13  14
HETATM   14  C7  UNL     1       7.186 -17.837   4.131  1.00  0.00     0.060 C 
BRANCH  14  15
HETATM   15  C8  UNL     1       6.623 -18.323   2.830  1.00  0.00     0.126 C 
BRANCH  15  16
HETATM   16  N4  UNL     1       5.993 -17.194   2.174  1.00  0.00    -0.376 N 
ATOM     17  H4  UNL     1       6.524 -16.324   2.129  1.00  0.00     0.161 HD
BRANCH  16  18
HETATM   18  C9  UNL     1       4.834 -17.197   1.652  1.00  0.00     0.100 A 
HETATM   19  C10 UNL     1       4.223 -18.438   1.490  1.00  0.00     0.048 A 
HETATM   20  C11 UNL     1       2.959 -18.512   0.929  1.00  0.00     0.005 A 
HETATM   21  C12 UNL     1       2.347 -17.338   0.547  1.00  0.00     0.017 A 
HETATM   22  C13 UNL     1       2.958 -16.102   0.710  1.00  0.00     0.089 A 
HETATM   23  N5  UNL     1       4.176 -16.090   1.257  1.00  0.00    -0.353 N 
ATOM     24  H5  UNL     1       4.636 -15.189   1.382  1.00  0.00     0.166 HD
ENDBRANCH  16  18
ENDBRANCH  15  16
ENDBRANCH  14  15
ENDBRANCH  13  14
ENDBRANCH   3   8
TORSDOF 6
ENDMDL
MODEL 4
REMARK VINA RESULT: -7.553326133      1.758      7.162
REMARK  6 active torsions:
REMARK  status: ('A' for Active; 'I' for Inactive)
REMARK    1  A    between atoms: C2_3  and  N2_4 
REMARK    2  A    between atoms: C2_3  and  C3_8 
REMARK    3  A    between atoms: C6_13  and  C7_14 
REMARK    4  A    between atoms: C7_14  and  C8_15 
REMARK    5  A    between atoms: C8_15  and  N4_16 
REMARK    6  A    between atoms: N4_16  and  C9_18 
ROOT
HETATM    1  N1  UNL     1       0.054 -19.254   0.608  1.00  0.00    -0.195 NA
HETATM    2  C1  UNL     1       1.197 -19.242   0.776  1.00  0.00     0.097 C 
HETATM    3  C2  UNL     1       2.643 -19.229   0.971  1.00  0.00     0.324 C 
ENDROOT
BRANCH   3   4
HETATM    4  N2  UNL     1       3.340 -19.936  -0.082  1.00  0.00    -0.058 N 
ATOM      5  H23 UNL     1       2.824 -20.767  -0.374  1.00  0.00     0.276 HD
ATOM      6  H22 UNL     1       3.314 -19.415  -0.958  1.00  0.00     0.276 HD
ATOM      7  H21 UNL     1       4.297 -20.169   0.182  1.00  0.00     0.276 HD
ENDBRANCH   3   4
BRANCH   3   8
HETATM    8  C3  UNL     1       3.194 -17.860   1.063  1.00  0.00     0.009 A 
HETATM    9  C4  UNL     1       2.778 -16.766   0.329  1.00  0.00     0.098 A 
HETATM   10  N3  UNL     1       3.497 -15.697   0.673  1.00  0.00    -0.374 N 
HETATM   11  C5  UNL     1       4.372 -16.099   1.622  1.00  0.00     0.095 A 
ATOM     12  H3  UNL     1       3.405 -14.756   0.292  1.00  0.00     0.164 HD
HETATM   13  C6  UNL     1       4.213 -17.425   1.886  1.00  0.00    -0.031 A 
BRANCH  13  14
HETATM   14  C7  UNL     1       4.913 -18.329   2.828  1.00  0.00     0.060 C 
BRANCH  14  15
HETATM   15  C8  UNL     1       6.363 -17.988   2.993  1.00  0.00     0.126 C 
BRANCH  15  16
HETATM   16  N4  UNL     1       6.494 -17.199   4.202  1.00  0.00    -0.376 N 
ATOM     17  H4  UNL     1       6.323 -16.197   4.127  1.00  0.00     0.161 HD
BRANCH  16  18
HETATM   18  C9  UNL     1       6.806 -17.652   5.349  1.00  0.00     0.100 A 
HETATM   19  C10 UNL     1       8.156 -17.622   5.690  1.00  0.00     0.048 A 
HETATM   20  C11 UNL     1       8.563 -18.098   6.924  1.00  0.00     0.005 A 
HETATM   21  C12 UNL     1       7.602 -18.593   7.779  1.00  0.00     0.017 A 
HETATM   22  C13 UNL     1       6.256 -18.622   7.437  1.00  0.00     0.089 A 
HETATM   23  N5  UNL     1       5.922 -18.149   6.234  1.00  0.00    -0.353 N 
ATOM     24  H5  UNL     1       4.937 -18.166   5.971  1.00  0.00     0.166 HD
ENDBRANCH  16  18
ENDBRANCH  15  16
ENDBRANCH  14  15
ENDBRANCH  13  14
ENDBRANCH   3   8
TORSDOF 6
ENDMDL
MODEL 5
REMARK VINA RESULT: -7.541655286      1.877      7.306
REMARK  6 active torsions:
REMARK  status: ('A' for Active; 'I' for Inactive)
REMARK    1  A    between atoms: C2_3  and  N2_4 
REMARK    2  A    between atoms: C2_3  and  C3_8 
REMARK    3  A    between atoms: C6_13  and  C7_14 
REMARK    4  A    between atoms: C7_14  and  C8_15 
REMARK    5  A    between atoms: C8_15  and  N4_16 
REMARK    6  A    between atoms: N4_16  and  C9_18 
ROOT
HETATM    1  N1  UNL     1       0.177 -19.315   0.759  1.00  0.00    -0.195 NA
HETATM    2  C1  UNL     1       1.327 -19.257   0.852  1.00  0.00     0.097 C 
HETATM    3  C2  UNL     1       2.780 -19.187   0.951  1.00  0.00     0.324 C 
ENDROOT
BRANCH   3   4
HETATM    4  N2  UNL     1       3.434 -19.862  -0.150  1.00  0.00    -0.058 N 
ATOM      5  H23 UNL     1       3.500 -20.866   0.018  1.00  0.00     0.276 HD
ATOM      6  H22 UNL     1       2.841 -19.876  -0.980  1.00  0.00     0.276 HD
ATOM      7  H21 UNL     1       4.349 -19.460  -0.356  1.00  0.00     0.276 HD
ENDBRANCH   3   4
BRANCH   3   8
HETATM    8  C3  UNL     1       3.282 -17.798   1.015  1.00  0.00     0.009 A 
HETATM    9  C4  UNL     1       2.736 -16.706   0.366  1.00  0.00     0.098 A 
HETATM   10  N3  UNL     1       3.446 -15.615   0.652  1.00  0.00    -0.374 N 
HETATM   11  C5  UNL     1       4.444 -15.999   1.479  1.00  0.00     0.095 A 
ATOM     12  H3  UNL     1       3.271 -14.670   0.311  1.00  0.00     0.164 HD
HETATM   13  C6  UNL     1       4.372 -17.336   1.724  1.00  0.00    -0.031 A 
BRANCH  13  14
HETATM   14  C7  UNL     1       5.217 -18.229   2.551  1.00  0.00     0.060 C 
BRANCH  14  15
HETATM   15  C8  UNL     1       5.365 -17.749   3.963  1.00  0.00     0.126 C 
BRANCH  15  16
HETATM   16  N4  UNL     1       6.777 -17.531   4.207  1.00  0.00    -0.376 N 
ATOM     17  H4  UNL     1       7.277 -16.927   3.554  1.00  0.00     0.161 HD
BRANCH  16  18
HETATM   18  C9  UNL     1       7.445 -18.029   5.167  1.00  0.00     0.100 A 
HETATM   19  C10 UNL     1       7.551 -19.417   5.204  1.00  0.00     0.048 A 
HETATM   20  C11 UNL     1       8.266 -20.024   6.221  1.00  0.00     0.005 A 
HETATM   21  C12 UNL     1       8.853 -19.219   7.174  1.00  0.00     0.017 A 
HETATM   22  C13 UNL     1       8.746 -17.835   7.136  1.00  0.00     0.089 A 
HETATM   23  N5  UNL     1       8.045 -17.305   6.131  1.00  0.00    -0.353 N 
ATOM     24  H5  UNL     1       7.959 -16.289   6.092  1.00  0.00     0.166 HD
ENDBRANCH  16  18
ENDBRANCH  15  16
ENDBRANCH  14  15
ENDBRANCH  13  14
ENDBRANCH   3   8
TORSDOF 6
ENDMDL
