MODEL 1
REMARK VINA RESULT: -7.768719209      0.000      0.000
REMARK  8 active torsions:
REMARK  status: ('A' for Active; 'I' for Inactive)
REMARK    1  A    between atoms: N1_1  and  N2_4 
REMARK    2  A    between atoms: N2_4  and  N3_5 
REMARK    3  A    between atoms: N3_5  and  C1_7 
REMARK    4  A    between atoms: C4_10  and  N4_11 
REMARK    5  A    between atoms: C5_14  and  S1_15 
REMARK    6  A    between atoms: S1_15  and  N5_16 
REMARK    7  A    between atoms: S1_15  and  N6_20 
REMARK    8  A    between atoms: N6_20  and  C6_22 
ROOT
HETATM    1  C1  UNL     1      18.232  81.946   4.715  1.00  0.00     0.064 A 
HETATM    2  C2  UNL     1      17.707  81.345   5.839  1.00  0.00     0.034 A 
HETATM    3  C3  UNL     1      17.707  81.979   7.047  1.00  0.00     0.040 A 
HETATM    4  C4  UNL     1      18.257  83.278   7.147  1.00  0.00     0.124 A 
HETATM    5  C5  UNL     1      18.783  83.902   6.060  1.00  0.00     0.093 A 
HETATM    6  C12 UNL     1      18.749  83.188   4.848  1.00  0.00     0.058 A 
ENDROOT
BRANCH   5   7
HETATM    7  S1  UNL     1      19.505  85.483   6.096  1.00  0.00     0.136 S 
HETATM    8  O3  UNL     1      18.409  86.476   6.430  1.00  0.00    -0.223 OA
BRANCH   7   9
HETATM    9  N5  UNL     1      20.468  85.516   7.318  1.00  0.00    -0.341 N 
ATOM     10  H52 UNL     1      21.370  85.043   7.379  1.00  0.00     0.167 HD
ATOM     11  H51 UNL     1      20.025  86.094   8.032  1.00  0.00     0.167 HD
ENDBRANCH   7   9
BRANCH   7  12
HETATM   12  N6  UNL     1      20.257  85.825   4.624  1.00  0.00    -0.327 N 
ATOM     13  H6  UNL     1      19.736  86.245   3.854  1.00  0.00     0.171 HD
BRANCH  12  14
HETATM   14  C6  UNL     1      21.632  85.515   4.488  1.00  0.00     0.091 C 
HETATM   15  C7  UNL     1      22.566  86.646   4.894  1.00  0.00     0.026 C 
HETATM   16  C8  UNL     1      23.903  85.963   5.187  1.00  0.00     0.002 C 
HETATM   17  C9  UNL     1      24.439  85.260   3.986  1.00  0.00     0.000 C 
HETATM   18  C10 UNL     1      23.493  85.162   2.839  1.00  0.00     0.002 C 
HETATM   19  C11 UNL     1      22.068  84.914   3.211  1.00  0.00     0.026 C 
ENDBRANCH  12  14
ENDBRANCH   7  12
ENDBRANCH   5   7
BRANCH   4  20
HETATM   20  N4  UNL     1      18.179  83.879   8.409  1.00  0.00    -0.114 N 
HETATM   21  O1  UNL     1      17.215  84.457   8.854  1.00  0.00    -0.532 OA
HETATM   22  O2  UNL     1      19.308  83.837   9.234  1.00  0.00    -0.532 OA
ENDBRANCH   4  20
BRANCH   1  23
HETATM   23  N3  UNL     1      18.199  81.225   3.480  1.00  0.00    -0.217 N 
ATOM     24  H3  UNL     1      17.467  80.545   3.274  1.00  0.00     0.203 HD
BRANCH  23  25
HETATM   25  N2  UNL     1      19.094  81.467   2.684  1.00  0.00    -0.243 NA
BRANCH  25  26
HETATM   26  N1  UNL     1      19.911  81.567   1.780  1.00  0.00    -0.260 N 
ATOM     27  H12 UNL     1      20.604  81.188   2.426  1.00  0.00     0.193 HD
ATOM     28  H11 UNL     1      20.469  81.710   0.939  1.00  0.00     0.193 HD
ENDBRANCH  25  26
ENDBRANCH  23  25
ENDBRANCH   1  23
TORSDOF 8
ENDMDL
MODEL 2
REMARK VINA RESULT: -7.648993877      2.558      4.080
REMARK  8 active torsions:
REMARK  status: ('A' for Active; 'I' for Inactive)
REMARK    1  A    between atoms: N1_1  and  N2_4 
REMARK    2  A    between atoms: N2_4  and  N3_5 
REMARK    3  A    between atoms: N3_5  and  C1_7 
REMARK    4  A    between atoms: C4_10  and  N4_11 
REMARK    5  A    between atoms: C5_14  and  S1_15 
REMARK    6  A    between atoms: S1_15  and  N5_16 
REMARK    7  A    between atoms: S1_15  and  N6_20 
REMARK    8  A    between atoms: N6_20  and  C6_22 
ROOT
HETATM    1  C1  UNL     1      18.500  84.603   7.269  1.00  0.00     0.064 A 
HETATM    2  C2  UNL     1      18.009  83.358   7.598  1.00  0.00     0.034 A 
HETATM    3  C3  UNL     1      18.009  82.335   6.694  1.00  0.00     0.040 A 
HETATM    4  C4  UNL     1      18.522  82.559   5.395  1.00  0.00     0.124 A 
HETATM    5  C5  UNL     1      19.014  83.774   5.035  1.00  0.00     0.093 A 
HETATM    6  C12 UNL     1      18.982  84.781   6.018  1.00  0.00     0.058 A 
ENDROOT
BRANCH   5   7
HETATM    7  S1  UNL     1      19.636  84.147   3.456  1.00  0.00     0.136 S 
HETATM    8  O3  UNL     1      20.393  82.929   2.966  1.00  0.00    -0.223 OA
BRANCH   7   9
HETATM    9  N5  UNL     1      18.412  84.274   2.503  1.00  0.00    -0.341 N 
ATOM     10  H52 UNL     1      17.776  85.071   2.452  1.00  0.00     0.167 HD
ATOM     11  H51 UNL     1      18.373  83.418   1.950  1.00  0.00     0.167 HD
ENDBRANCH   7   9
BRANCH   7  12
HETATM   12  N6  UNL     1      20.605  85.528   3.511  1.00  0.00    -0.327 N 
ATOM     13  H6  UNL     1      20.238  86.438   3.229  1.00  0.00     0.171 HD
BRANCH  12  14
HETATM   14  C6  UNL     1      21.941  85.390   3.958  1.00  0.00     0.091 C 
HETATM   15  C7  UNL     1      22.380  86.466   4.942  1.00  0.00     0.026 C 
HETATM   16  C8  UNL     1      23.574  85.858   5.679  1.00  0.00     0.002 C 
HETATM   17  C9  UNL     1      24.691  85.529   4.745  1.00  0.00     0.000 C 
HETATM   18  C10 UNL     1      24.353  85.633   3.298  1.00  0.00     0.002 C 
HETATM   19  C11 UNL     1      22.981  85.170   2.932  1.00  0.00     0.026 C 
ENDBRANCH  12  14
ENDBRANCH   7  12
ENDBRANCH   5   7
BRANCH   4  20
HETATM   20  N4  UNL     1      18.528  81.449   4.542  1.00  0.00    -0.114 N 
HETATM   21  O1  UNL     1      17.740  81.246   3.648  1.00  0.00    -0.532 OA
HETATM   22  O2  UNL     1      19.506  80.469   4.736  1.00  0.00    -0.532 OA
ENDBRANCH   4  20
BRANCH   1  23
HETATM   23  N3  UNL     1      18.471  85.631   8.264  1.00  0.00    -0.217 N 
ATOM     24  H3  UNL     1      18.665  85.432   9.246  1.00  0.00     0.203 HD
BRANCH  23  25
HETATM   25  N2  UNL     1      18.202  86.758   7.876  1.00  0.00    -0.243 NA
BRANCH  25  26
HETATM   26  N1  UNL     1      18.121  87.922   7.516  1.00  0.00    -0.260 N 
ATOM     27  H12 UNL     1      19.131  87.986   7.649  1.00  0.00     0.193 HD
ATOM     28  H11 UNL     1      17.896  88.865   7.200  1.00  0.00     0.193 HD
ENDBRANCH  25  26
ENDBRANCH  23  25
ENDBRANCH   1  23
TORSDOF 8
ENDMDL
MODEL 3
REMARK VINA RESULT: -7.098569252      3.383      6.065
REMARK  8 active torsions:
REMARK  status: ('A' for Active; 'I' for Inactive)
REMARK    1  A    between atoms: N1_1  and  N2_4 
REMARK    2  A    between atoms: N2_4  and  N3_5 
REMARK    3  A    between atoms: N3_5  and  C1_7 
REMARK    4  A    between atoms: C4_10  and  N4_11 
REMARK    5  A    between atoms: C5_14  and  S1_15 
REMARK    6  A    between atoms: S1_15  and  N5_16 
REMARK    7  A    between atoms: S1_15  and  N6_20 
REMARK    8  A    between atoms: N6_20  and  C6_22 
ROOT
HETATM    1  C1  UNL     1      18.965  85.534   6.476  1.00  0.00     0.064 A 
HETATM    2  C2  UNL     1      18.518  84.630   7.415  1.00  0.00     0.034 A 
HETATM    3  C3  UNL     1      18.234  83.339   7.077  1.00  0.00     0.040 A 
HETATM    4  C4  UNL     1      18.400  82.922   5.736  1.00  0.00     0.124 A 
HETATM    5  C5  UNL     1      18.839  83.786   4.782  1.00  0.00     0.093 A 
HETATM    6  C12 UNL     1      19.112  85.101   5.203  1.00  0.00     0.058 A 
ENDROOT
BRANCH   5   7
HETATM    7  S1  UNL     1      19.044  83.370   3.108  1.00  0.00     0.136 S 
HETATM    8  O3  UNL     1      17.991  84.122   2.319  1.00  0.00    -0.223 OA
BRANCH   7   9
HETATM    9  N5  UNL     1      20.403  83.977   2.651  1.00  0.00    -0.341 N 
ATOM     10  H52 UNL     1      21.135  83.483   2.140  1.00  0.00     0.167 HD
ATOM     11  H51 UNL     1      20.415  84.949   2.960  1.00  0.00     0.167 HD
ENDBRANCH   7   9
BRANCH   7  12
HETATM   12  N6  UNL     1      18.938  81.699   2.894  1.00  0.00    -0.327 N 
ATOM     13  H6  UNL     1      19.454  81.059   3.499  1.00  0.00     0.171 HD
BRANCH  12  14
HETATM   14  C6  UNL     1      18.112  81.210   1.853  1.00  0.00     0.091 C 
HETATM   15  C7  UNL     1      17.570  79.809   2.098  1.00  0.00     0.026 C 
HETATM   16  C8  UNL     1      16.343  79.700   1.192  1.00  0.00     0.002 C 
HETATM   17  C9  UNL     1      16.702  79.867  -0.247  1.00  0.00     0.000 C 
HETATM   18  C10 UNL     1      18.097  80.325  -0.498  1.00  0.00     0.002 C 
HETATM   19  C11 UNL     1      18.618  81.336   0.470  1.00  0.00     0.026 C 
ENDBRANCH  12  14
ENDBRANCH   7  12
ENDBRANCH   5   7
BRANCH   4  20
HETATM   20  N4  UNL     1      18.130  81.573   5.478  1.00  0.00    -0.114 N 
HETATM   21  O1  UNL     1      17.041  81.108   5.236  1.00  0.00    -0.532 OA
HETATM   22  O2  UNL     1      19.193  80.664   5.521  1.00  0.00    -0.532 OA
ENDBRANCH   4  20
BRANCH   1  23
HETATM   23  N3  UNL     1      19.245  86.872   6.898  1.00  0.00    -0.217 N 
ATOM     24  H3  UNL     1      20.118  87.341   6.651  1.00  0.00     0.203 HD
BRANCH  23  25
HETATM   25  N2  UNL     1      18.386  87.424   7.569  1.00  0.00    -0.243 NA
BRANCH  25  26
HETATM   26  N1  UNL     1      17.522  87.810   8.341  1.00  0.00    -0.260 N 
ATOM     27  H12 UNL     1      16.842  87.609   7.608  1.00  0.00     0.193 HD
ATOM     28  H11 UNL     1      16.922  88.158   9.089  1.00  0.00     0.193 HD
ENDBRANCH  25  26
ENDBRANCH  23  25
ENDBRANCH   1  23
TORSDOF 8
ENDMDL
MODEL 4
REMARK VINA RESULT: -7.079069787      2.626      4.133
REMARK  8 active torsions:
REMARK  status: ('A' for Active; 'I' for Inactive)
REMARK    1  A    between atoms: N1_1  and  N2_4 
REMARK    2  A    between atoms: N2_4  and  N3_5 
REMARK    3  A    between atoms: N3_5  and  C1_7 
REMARK    4  A    between atoms: C4_10  and  N4_11 
REMARK    5  A    between atoms: C5_14  and  S1_15 
REMARK    6  A    between atoms: S1_15  and  N5_16 
REMARK    7  A    between atoms: S1_15  and  N6_20 
REMARK    8  A    between atoms: N6_20  and  C6_22 
ROOT
HETATM    1  C1  UNL     1      18.505  84.328   6.960  1.00  0.00     0.064 A 
HETATM    2  C2  UNL     1      18.179  83.002   7.146  1.00  0.00     0.034 A 
HETATM    3  C3  UNL     1      18.219  82.111   6.113  1.00  0.00     0.040 A 
HETATM    4  C4  UNL     1      18.602  82.559   4.827  1.00  0.00     0.124 A 
HETATM    5  C5  UNL     1      18.930  83.860   4.606  1.00  0.00     0.093 A 
HETATM    6  C12 UNL     1      18.866  84.721   5.717  1.00  0.00     0.058 A 
ENDROOT
BRANCH   5   7
HETATM    7  S1  UNL     1      19.383  84.503   3.057  1.00  0.00     0.136 S 
HETATM    8  O3  UNL     1      18.332  84.064   2.056  1.00  0.00    -0.223 OA
BRANCH   7   9
HETATM    9  N5  UNL     1      19.236  86.051   3.146  1.00  0.00    -0.341 N 
ATOM     10  H52 UNL     1      18.358  86.569   3.106  1.00  0.00     0.167 HD
ATOM     11  H51 UNL     1      20.175  86.435   3.250  1.00  0.00     0.167 HD
ENDBRANCH   7   9
BRANCH   7  12
HETATM   12  N6  UNL     1      20.932  83.989   2.630  1.00  0.00    -0.327 N 
ATOM     13  H6  UNL     1      21.073  83.324   1.869  1.00  0.00     0.171 HD
BRANCH  12  14
HETATM   14  C6  UNL     1      22.032  84.506   3.357  1.00  0.00     0.091 C 
HETATM   15  C7  UNL     1      21.848  85.944   3.820  1.00  0.00     0.026 C 
HETATM   16  C8  UNL     1      22.831  86.111   4.980  1.00  0.00     0.002 C 
HETATM   17  C9  UNL     1      24.241  85.888   4.545  1.00  0.00     0.000 C 
HETATM   18  C10 UNL     1      24.396  85.336   3.170  1.00  0.00     0.002 C 
HETATM   19  C11 UNL     1      23.378  84.316   2.777  1.00  0.00     0.026 C 
ENDBRANCH  12  14
ENDBRANCH   7  12
ENDBRANCH   5   7
BRANCH   4  20
HETATM   20  N4  UNL     1      18.661  81.577   3.831  1.00  0.00    -0.114 N 
HETATM   21  O1  UNL     1      17.721  80.946   3.410  1.00  0.00    -0.532 OA
HETATM   22  O2  UNL     1      19.908  81.268   3.277  1.00  0.00    -0.532 OA
ENDBRANCH   4  20
BRANCH   1  23
HETATM   23  N3  UNL     1      18.443  85.209   8.086  1.00  0.00    -0.217 N 
ATOM     24  H3  UNL     1      18.567  84.869   9.040  1.00  0.00     0.203 HD
BRANCH  23  25
HETATM   25  N2  UNL     1      18.233  86.388   7.845  1.00  0.00    -0.243 NA
BRANCH  25  26
HETATM   26  N1  UNL     1      17.974  87.581   7.792  1.00  0.00    -0.260 N 
ATOM     27  H12 UNL     1      18.930  87.755   8.102  1.00  0.00     0.193 HD
ATOM     28  H11 UNL     1      17.611  88.529   7.699  1.00  0.00     0.193 HD
ENDBRANCH  25  26
ENDBRANCH  23  25
ENDBRANCH   1  23
TORSDOF 8
ENDMDL
MODEL 5
REMARK VINA RESULT: -7.078831222      2.661      4.374
REMARK  8 active torsions:
REMARK  status: ('A' for Active; 'I' for Inactive)
REMARK    1  A    between atoms: N1_1  and  N2_4 
REMARK    2  A    between atoms: N2_4  and  N3_5 
REMARK    3  A    between atoms: N3_5  and  C1_7 
REMARK    4  A    between atoms: C4_10  and  N4_11 
REMARK    5  A    between atoms: C5_14  and  S1_15 
REMARK    6  A    between atoms: S1_15  and  N5_16 
REMARK    7  A    between atoms: S1_15  and  N6_20 
REMARK    8  A    between atoms: N6_20  and  C6_22 
ROOT
HETATM    1  C1  UNL     1      18.547  84.516   7.069  1.00  0.00     0.064 A 
HETATM    2  C2  UNL     1      18.074  83.238   7.273  1.00  0.00     0.034 A 
HETATM    3  C3  UNL     1      18.135  82.294   6.289  1.00  0.00     0.040 A 
HETATM    4  C4  UNL     1      18.694  82.637   5.036  1.00  0.00     0.124 A 
HETATM    5  C5  UNL     1      19.170  83.888   4.799  1.00  0.00     0.093 A 
HETATM    6  C12 UNL     1      19.074  84.808   5.859  1.00  0.00     0.058 A 
ENDROOT
BRANCH   5   7
HETATM    7  S1  UNL     1      19.846  84.405   3.283  1.00  0.00     0.136 S 
HETATM    8  O3  UNL     1      18.793  84.181   2.215  1.00  0.00    -0.223 OA
BRANCH   7   9
HETATM    9  N5  UNL     1      20.019  85.950   3.365  1.00  0.00    -0.341 N 
ATOM     10  H52 UNL     1      19.432  86.588   3.903  1.00  0.00     0.167 HD
ATOM     11  H51 UNL     1      20.821  86.192   2.783  1.00  0.00     0.167 HD
ENDBRANCH   7   9
BRANCH   7  12
HETATM   12  N6  UNL     1      21.279  83.574   2.958  1.00  0.00    -0.327 N 
ATOM     13  H6  UNL     1      21.334  82.561   3.066  1.00  0.00     0.171 HD
BRANCH  12  14
HETATM   14  C6  UNL     1      22.402  84.322   2.530  1.00  0.00     0.091 C 
HETATM   15  C7  UNL     1      23.390  83.530   1.685  1.00  0.00     0.026 C 
HETATM   16  C8  UNL     1      24.181  84.587   0.914  1.00  0.00     0.002 C 
HETATM   17  C9  UNL     1      24.914  85.507   1.831  1.00  0.00     0.000 C 
HETATM   18  C10 UNL     1      24.561  85.371   3.273  1.00  0.00     0.002 C 
HETATM   19  C11 UNL     1      23.115  85.118   3.551  1.00  0.00     0.026 C 
ENDBRANCH  12  14
ENDBRANCH   7  12
ENDBRANCH   5   7
BRANCH   4  20
HETATM   20  N4  UNL     1      18.762  81.603   4.094  1.00  0.00    -0.114 N 
HETATM   21  O1  UNL     1      19.772  81.047   3.732  1.00  0.00    -0.532 OA
HETATM   22  O2  UNL     1      17.573  81.175   3.493  1.00  0.00    -0.532 OA
ENDBRANCH   4  20
BRANCH   1  23
HETATM   23  N3  UNL     1      18.453  85.457   8.144  1.00  0.00    -0.217 N 
ATOM     24  H3  UNL     1      18.587  85.176   9.115  1.00  0.00     0.203 HD
BRANCH  23  25
HETATM   25  N2  UNL     1      18.202  86.612   7.837  1.00  0.00    -0.243 NA
BRANCH  25  26
HETATM   26  N1  UNL     1      18.144  87.790   7.516  1.00  0.00    -0.260 N 
ATOM     27  H12 UNL     1      18.948  87.618   6.912  1.00  0.00     0.193 HD
ATOM     28  H11 UNL     1      17.970  88.781   7.349  1.00  0.00     0.193 HD
ENDBRANCH  25  26
ENDBRANCH  23  25
ENDBRANCH   1  23
TORSDOF 8
ENDMDL
