MODEL 1
REMARK VINA RESULT: -7.346780375      0.000      0.000
REMARK  10 active torsions:
REMARK  status: ('A' for Active; 'I' for Inactive)
REMARK    1  A    between atoms: C2_2  and  C3_3 
REMARK    2  A    between atoms: C3_3  and  C4_4 
REMARK    3  A    between atoms: C4_4  and  C5_5 
REMARK    4  A    between atoms: C5_5  and  O2_7 
REMARK    5  A    between atoms: O2_7  and  C6_8 
REMARK    6  A    between atoms: C7_9  and  O3_10 
REMARK    7  A    between atoms: C15_19  and  O4_20 
REMARK    8  A    between atoms: C19_25  and  O5_27 
REMARK    9  A    between atoms: O5_27  and  C21_28 
REMARK   10  A    between atoms: C21_28  and  C22_30 
ROOT
HETATM    1  C6  UNL     1     -19.425   7.853  -2.477  1.00  0.00     0.195 C 
HETATM    2  C7  UNL     1     -19.214   8.962  -1.603  1.00  0.00     0.151 C 
HETATM    3  C8  UNL     1     -18.789   9.906  -0.656  1.00  0.00     0.044 C 
HETATM    4  C9  UNL     1     -17.232   9.791  -0.592  1.00  0.00    -0.027 C 
HETATM    5  C10 UNL     1     -16.618  10.979  -1.198  1.00  0.00     0.019 C 
HETATM    6  C11 UNL     1     -16.385  11.530   0.211  1.00  0.00    -0.040 C 
HETATM    7  C12 UNL     1     -17.447  12.492   0.680  1.00  0.00     0.015 C 
HETATM    8  C13 UNL     1     -15.031  12.124   0.373  1.00  0.00     0.015 C 
HETATM    9  C14 UNL     1     -16.606  10.124   0.701  1.00  0.00     0.031 C 
HETATM   10  C15 UNL     1     -15.405   9.220   0.730  1.00  0.00     0.124 C 
HETATM   11  C16 UNL     1     -15.257   8.592  -0.633  1.00  0.00     0.037 C 
HETATM   12  C17 UNL     1     -16.763   8.419  -0.968  1.00  0.00    -0.000 C 
HETATM   13  C18 UNL     1     -16.839   7.874  -2.278  1.00  0.00     0.046 C 
HETATM   14  C19 UNL     1     -18.064   7.303  -2.940  1.00  0.00     0.096 C 
HETATM   15  C20 UNL     1     -18.060   5.796  -2.644  1.00  0.00     0.049 C 
ENDROOT
BRANCH   1  16
HETATM   16  O2  UNL     1     -20.192   6.812  -1.871  1.00  0.00    -0.310 OA
BRANCH  16  17
HETATM   17  C5  UNL     1     -21.522   6.559  -2.049  1.00  0.00     0.259 C 
HETATM   18  O1  UNL     1     -22.328   7.093  -1.232  1.00  0.00    -0.265 OA
BRANCH  17  19
HETATM   19  C4  UNL     1     -22.022   5.704  -3.145  1.00  0.00     0.111 C 
BRANCH  19  20
HETATM   20  C3  UNL     1     -21.177   4.473  -3.263  1.00  0.00     0.009 C 
BRANCH  20  21
HETATM   21  C2  UNL     1     -21.215   3.926  -4.651  1.00  0.00    -0.004 C 
HETATM   22  C1  UNL     1     -19.804   3.391  -4.941  1.00  0.00     0.005 C 
ENDBRANCH  20  21
ENDBRANCH  19  20
ENDBRANCH  17  19
ENDBRANCH  16  17
ENDBRANCH   1  16
BRANCH   2  23
HETATM   23  O3  UNL     1     -18.507   9.627  -2.634  1.00  0.00    -0.393 OA
ATOM     24  H3  UNL     1     -19.134  10.339  -2.595  1.00  0.00     0.210 HD
ENDBRANCH   2  23
BRANCH  14  25
HETATM   25  O5  UNL     1     -17.819   7.529  -4.308  1.00  0.00    -0.308 OA
BRANCH  25  26
HETATM   26  C21 UNL     1     -18.303   6.917  -5.402  1.00  0.00     0.259 C 
HETATM   27  O6  UNL     1     -17.544   6.099  -5.965  1.00  0.00    -0.265 OA
BRANCH  26  28
HETATM   28  C22 UNL     1     -19.665   7.149  -5.971  1.00  0.00     0.106 C 
HETATM   29  C23 UNL     1     -20.024   8.621  -5.849  1.00  0.00     0.015 C 
ENDBRANCH  26  28
ENDBRANCH  25  26
ENDBRANCH  14  25
BRANCH  10  30
HETATM   30  O4  UNL     1     -14.263   9.766   1.221  1.00  0.00    -0.395 OA
ATOM     31  H4  UNL     1     -13.494   9.209   1.200  1.00  0.00     0.210 HD
ENDBRANCH  10  30
TORSDOF 10
ENDMDL
MODEL 2
REMARK VINA RESULT: -7.134649869      2.014      3.960
REMARK  10 active torsions:
REMARK  status: ('A' for Active; 'I' for Inactive)
REMARK    1  A    between atoms: C2_2  and  C3_3 
REMARK    2  A    between atoms: C3_3  and  C4_4 
REMARK    3  A    between atoms: C4_4  and  C5_5 
REMARK    4  A    between atoms: C5_5  and  O2_7 
REMARK    5  A    between atoms: O2_7  and  C6_8 
REMARK    6  A    between atoms: C7_9  and  O3_10 
REMARK    7  A    between atoms: C15_19  and  O4_20 
REMARK    8  A    between atoms: C19_25  and  O5_27 
REMARK    9  A    between atoms: O5_27  and  C21_28 
REMARK   10  A    between atoms: C21_28  and  C22_30 
ROOT
HETATM    1  C6  UNL     1     -19.660   7.812  -3.930  1.00  0.00     0.195 C 
HETATM    2  C7  UNL     1     -18.464   8.578  -3.789  1.00  0.00     0.151 C 
HETATM    3  C8  UNL     1     -17.366   9.353  -3.385  1.00  0.00     0.044 C 
HETATM    4  C9  UNL     1     -17.074   8.959  -1.901  1.00  0.00    -0.027 C 
HETATM    5  C10 UNL     1     -15.824   8.192  -1.826  1.00  0.00     0.019 C 
HETATM    6  C11 UNL     1     -15.115   9.467  -1.363  1.00  0.00    -0.040 C 
HETATM    7  C12 UNL     1     -14.420  10.220  -2.469  1.00  0.00     0.015 C 
HETATM    8  C13 UNL     1     -14.183   9.221  -0.230  1.00  0.00     0.015 C 
HETATM    9  C14 UNL     1     -16.484  10.009  -1.052  1.00  0.00     0.031 C 
HETATM   10  C15 UNL     1     -17.045   9.690   0.306  1.00  0.00     0.124 C 
HETATM   11  C16 UNL     1     -17.728   8.348   0.229  1.00  0.00     0.037 C 
HETATM   12  C17 UNL     1     -18.307   8.470  -1.207  1.00  0.00    -0.000 C 
HETATM   13  C18 UNL     1     -18.962   7.243  -1.498  1.00  0.00     0.046 C 
HETATM   14  C19 UNL     1     -19.881   6.973  -2.659  1.00  0.00     0.096 C 
HETATM   15  C20 UNL     1     -21.306   7.264  -2.167  1.00  0.00     0.049 C 
ENDROOT
BRANCH   1  16
HETATM   16  O2  UNL     1     -20.807   8.622  -4.187  1.00  0.00    -0.310 OA
BRANCH  16  17
HETATM   17  C5  UNL     1     -20.850   9.785  -4.901  1.00  0.00     0.259 C 
HETATM   18  O1  UNL     1     -20.903  10.867  -4.245  1.00  0.00    -0.265 OA
BRANCH  17  19
HETATM   19  C4  UNL     1     -20.834   9.804  -6.378  1.00  0.00     0.111 C 
BRANCH  19  20
HETATM   20  C3  UNL     1     -22.034  10.535  -6.896  1.00  0.00     0.009 C 
BRANCH  20  21
HETATM   21  C2  UNL     1     -22.236  10.273  -8.352  1.00  0.00    -0.004 C 
HETATM   22  C1  UNL     1     -23.670  10.719  -8.674  1.00  0.00     0.005 C 
ENDBRANCH  20  21
ENDBRANCH  19  20
ENDBRANCH  17  19
ENDBRANCH  16  17
ENDBRANCH   1  16
BRANCH   2  23
HETATM   23  O3  UNL     1     -17.731   7.381  -3.605  1.00  0.00    -0.393 OA
ATOM     24  H3  UNL     1     -18.063   7.058  -4.435  1.00  0.00     0.210 HD
ENDBRANCH   2  23
BRANCH  14  25
HETATM   25  O5  UNL     1     -19.717   5.592  -2.878  1.00  0.00    -0.308 OA
BRANCH  25  26
HETATM   26  C21 UNL     1     -19.804   4.863  -4.004  1.00  0.00     0.259 C 
HETATM   27  O6  UNL     1     -18.724   4.553  -4.553  1.00  0.00    -0.265 OA
BRANCH  26  28
HETATM   28  C22 UNL     1     -21.086   4.408  -4.621  1.00  0.00     0.106 C 
HETATM   29  C23 UNL     1     -22.054   3.982  -3.529  1.00  0.00     0.015 C 
ENDBRANCH  26  28
ENDBRANCH  25  26
ENDBRANCH  14  25
BRANCH  10  30
HETATM   30  O4  UNL     1     -16.186   9.821   1.349  1.00  0.00    -0.395 OA
ATOM     31  H4  UNL     1     -15.553   9.121   1.456  1.00  0.00     0.210 HD
ENDBRANCH  10  30
TORSDOF 10
ENDMDL
MODEL 3
REMARK VINA RESULT: -6.939862197      1.981      4.151
REMARK  10 active torsions:
REMARK  status: ('A' for Active; 'I' for Inactive)
REMARK    1  A    between atoms: C2_2  and  C3_3 
REMARK    2  A    between atoms: C3_3  and  C4_4 
REMARK    3  A    between atoms: C4_4  and  C5_5 
REMARK    4  A    between atoms: C5_5  and  O2_7 
REMARK    5  A    between atoms: O2_7  and  C6_8 
REMARK    6  A    between atoms: C7_9  and  O3_10 
REMARK    7  A    between atoms: C15_19  and  O4_20 
REMARK    8  A    between atoms: C19_25  and  O5_27 
REMARK    9  A    between atoms: O5_27  and  C21_28 
REMARK   10  A    between atoms: C21_28  and  C22_30 
ROOT
HETATM    1  C6  UNL     1     -19.607   7.796  -3.967  1.00  0.00     0.195 C 
HETATM    2  C7  UNL     1     -18.409   8.555  -3.817  1.00  0.00     0.151 C 
HETATM    3  C8  UNL     1     -17.312   9.330  -3.406  1.00  0.00     0.044 C 
HETATM    4  C9  UNL     1     -17.052   8.961  -1.910  1.00  0.00    -0.027 C 
HETATM    5  C10 UNL     1     -15.810   8.187  -1.795  1.00  0.00     0.019 C 
HETATM    6  C11 UNL     1     -15.100   9.465  -1.343  1.00  0.00    -0.040 C 
HETATM    7  C12 UNL     1     -14.377  10.192  -2.449  1.00  0.00     0.015 C 
HETATM    8  C13 UNL     1     -14.193   9.233  -0.187  1.00  0.00     0.015 C 
HETATM    9  C14 UNL     1     -16.470  10.023  -1.069  1.00  0.00     0.031 C 
HETATM   10  C15 UNL     1     -17.061   9.734   0.283  1.00  0.00     0.124 C 
HETATM   11  C16 UNL     1     -17.752   8.396   0.218  1.00  0.00     0.037 C 
HETATM   12  C17 UNL     1     -18.302   8.496  -1.230  1.00  0.00    -0.000 C 
HETATM   13  C18 UNL     1     -18.961   7.268  -1.512  1.00  0.00     0.046 C 
HETATM   14  C19 UNL     1     -19.860   6.983  -2.685  1.00  0.00     0.096 C 
HETATM   15  C20 UNL     1     -21.292   7.294  -2.227  1.00  0.00     0.049 C 
ENDROOT
BRANCH   1  16
HETATM   16  O2  UNL     1     -20.743   8.610  -4.261  1.00  0.00    -0.310 OA
BRANCH  16  17
HETATM   17  C5  UNL     1     -20.850   9.546  -5.249  1.00  0.00     0.259 C 
HETATM   18  O1  UNL     1     -20.555   9.183  -6.426  1.00  0.00    -0.265 OA
BRANCH  17  19
HETATM   19  C4  UNL     1     -21.294  10.929  -4.981  1.00  0.00     0.111 C 
BRANCH  19  20
HETATM   20  C3  UNL     1     -20.107  11.822  -4.789  1.00  0.00     0.009 C 
BRANCH  20  21
HETATM   21  C2  UNL     1     -19.762  11.952  -3.342  1.00  0.00    -0.004 C 
HETATM   22  C1  UNL     1     -18.516  12.849  -3.277  1.00  0.00     0.005 C 
ENDBRANCH  20  21
ENDBRANCH  19  20
ENDBRANCH  17  19
ENDBRANCH  16  17
ENDBRANCH   1  16
BRANCH   2  23
HETATM   23  O3  UNL     1     -17.688   7.357  -3.596  1.00  0.00    -0.393 OA
ATOM     24  H3  UNL     1     -17.101   7.587  -4.308  1.00  0.00     0.210 HD
ENDBRANCH   2  23
BRANCH  14  25
HETATM   25  O5  UNL     1     -19.702   5.597  -2.875  1.00  0.00    -0.308 OA
BRANCH  25  26
HETATM   26  C21 UNL     1     -19.778   4.846  -3.988  1.00  0.00     0.259 C 
HETATM   27  O6  UNL     1     -18.693   4.512  -4.510  1.00  0.00    -0.265 OA
BRANCH  26  28
HETATM   28  C22 UNL     1     -21.054   4.396  -4.620  1.00  0.00     0.106 C 
HETATM   29  C23 UNL     1     -22.041   3.985  -3.539  1.00  0.00     0.015 C 
ENDBRANCH  26  28
ENDBRANCH  25  26
ENDBRANCH  14  25
BRANCH  10  30
HETATM   30  O4  UNL     1     -16.221   9.878   1.341  1.00  0.00    -0.395 OA
ATOM     31  H4  UNL     1     -15.879   9.074   1.712  1.00  0.00     0.210 HD
ENDBRANCH  10  30
TORSDOF 10
ENDMDL
MODEL 4
REMARK VINA RESULT: -6.890522460      2.252      4.887
REMARK  10 active torsions:
REMARK  status: ('A' for Active; 'I' for Inactive)
REMARK    1  A    between atoms: C2_2  and  C3_3 
REMARK    2  A    between atoms: C3_3  and  C4_4 
REMARK    3  A    between atoms: C4_4  and  C5_5 
REMARK    4  A    between atoms: C5_5  and  O2_7 
REMARK    5  A    between atoms: O2_7  and  C6_8 
REMARK    6  A    between atoms: C7_9  and  O3_10 
REMARK    7  A    between atoms: C15_19  and  O4_20 
REMARK    8  A    between atoms: C19_25  and  O5_27 
REMARK    9  A    between atoms: O5_27  and  C21_28 
REMARK   10  A    between atoms: C21_28  and  C22_30 
ROOT
HETATM    1  C6  UNL     1     -18.672   4.915  -4.777  1.00  0.00     0.195 C 
HETATM    2  C7  UNL     1     -17.784   5.889  -4.231  1.00  0.00     0.151 C 
HETATM    3  C8  UNL     1     -17.142   6.965  -3.598  1.00  0.00     0.044 C 
HETATM    4  C9  UNL     1     -18.007   7.314  -2.344  1.00  0.00    -0.027 C 
HETATM    5  C10 UNL     1     -17.296   6.922  -1.121  1.00  0.00     0.019 C 
HETATM    6  C11 UNL     1     -16.887   8.385  -0.936  1.00  0.00    -0.040 C 
HETATM    7  C12 UNL     1     -15.512   8.711  -1.461  1.00  0.00     0.015 C 
HETATM    8  C13 UNL     1     -17.033   8.842   0.472  1.00  0.00     0.015 C 
HETATM    9  C14 UNL     1     -17.984   8.722  -1.908  1.00  0.00     0.031 C 
HETATM   10  C15 UNL     1     -19.361   8.914  -1.336  1.00  0.00     0.124 C 
HETATM   11  C16 UNL     1     -20.024   7.562  -1.245  1.00  0.00     0.037 C 
HETATM   12  C17 UNL     1     -19.443   6.937  -2.541  1.00  0.00    -0.000 C 
HETATM   13  C18 UNL     1     -19.921   5.600  -2.610  1.00  0.00     0.046 C 
HETATM   14  C19 UNL     1     -19.836   4.679  -3.798  1.00  0.00     0.096 C 
HETATM   15  C20 UNL     1     -21.138   4.863  -4.590  1.00  0.00     0.049 C 
ENDROOT
BRANCH   1  16
HETATM   16  O2  UNL     1     -19.180   5.289  -6.059  1.00  0.00    -0.310 OA
BRANCH  16  17
HETATM   17  C5  UNL     1     -19.056   6.502  -6.671  1.00  0.00     0.259 C 
HETATM   18  O1  UNL     1     -18.068   6.661  -7.448  1.00  0.00    -0.265 OA
BRANCH  17  19
HETATM   19  C4  UNL     1     -20.023   7.598  -6.454  1.00  0.00     0.111 C 
BRANCH  19  20
HETATM   20  C3  UNL     1     -19.392   8.686  -5.641  1.00  0.00     0.009 C 
BRANCH  20  21
HETATM   21  C2  UNL     1     -20.241   9.914  -5.638  1.00  0.00    -0.004 C 
HETATM   22  C1  UNL     1     -21.268   9.724  -4.512  1.00  0.00     0.005 C 
ENDBRANCH  20  21
ENDBRANCH  19  20
ENDBRANCH  17  19
ENDBRANCH  16  17
ENDBRANCH   1  16
BRANCH   2  23
HETATM   23  O3  UNL     1     -17.588   5.061  -3.099  1.00  0.00    -0.393 OA
ATOM     24  H3  UNL     1     -18.149   4.403  -3.492  1.00  0.00     0.210 HD
ENDBRANCH   2  23
BRANCH  14  25
HETATM   25  O5  UNL     1     -19.803   3.402  -3.206  1.00  0.00    -0.308 OA
BRANCH  25  26
HETATM   26  C21 UNL     1     -18.990   2.353  -3.420  1.00  0.00     0.259 C 
HETATM   27  O6  UNL     1     -18.842   1.996  -4.608  1.00  0.00    -0.265 OA
BRANCH  26  28
HETATM   28  C22 UNL     1     -18.268   1.608  -2.345  1.00  0.00     0.106 C 
HETATM   29  C23 UNL     1     -17.090   2.435  -1.855  1.00  0.00     0.015 C 
ENDBRANCH  26  28
ENDBRANCH  25  26
ENDBRANCH  14  25
BRANCH  10  30
HETATM   30  O4  UNL     1     -19.434   9.649  -0.197  1.00  0.00    -0.395 OA
ATOM     31  H4  UNL     1     -19.911   9.254   0.523  1.00  0.00     0.210 HD
ENDBRANCH  10  30
TORSDOF 10
ENDMDL
MODEL 5
REMARK VINA RESULT: -6.863199907      1.896      6.970
REMARK  10 active torsions:
REMARK  status: ('A' for Active; 'I' for Inactive)
REMARK    1  A    between atoms: C2_2  and  C3_3 
REMARK    2  A    between atoms: C3_3  and  C4_4 
REMARK    3  A    between atoms: C4_4  and  C5_5 
REMARK    4  A    between atoms: C5_5  and  O2_7 
REMARK    5  A    between atoms: O2_7  and  C6_8 
REMARK    6  A    between atoms: C7_9  and  O3_10 
REMARK    7  A    between atoms: C15_19  and  O4_20 
REMARK    8  A    between atoms: C19_25  and  O5_27 
REMARK    9  A    between atoms: O5_27  and  C21_28 
REMARK   10  A    between atoms: C21_28  and  C22_30 
ROOT
HETATM    1  C6  UNL     1     -18.697   9.052  -1.358  1.00  0.00     0.195 C 
HETATM    2  C7  UNL     1     -19.702   8.166  -1.849  1.00  0.00     0.151 C 
HETATM    3  C8  UNL     1     -20.535   7.287  -2.560  1.00  0.00     0.044 C 
HETATM    4  C9  UNL     1     -19.595   6.440  -3.478  1.00  0.00    -0.027 C 
HETATM    5  C10 UNL     1     -19.529   5.058  -2.986  1.00  0.00     0.019 C 
HETATM    6  C11 UNL     1     -20.532   4.665  -4.074  1.00  0.00    -0.040 C 
HETATM    7  C12 UNL     1     -21.963   4.614  -3.603  1.00  0.00     0.015 C 
HETATM    8  C13 UNL     1     -20.159   3.397  -4.758  1.00  0.00     0.015 C 
HETATM    9  C14 UNL     1     -20.178   5.964  -4.745  1.00  0.00     0.031 C 
HETATM   10  C15 UNL     1     -18.992   5.948  -5.670  1.00  0.00     0.124 C 
HETATM   11  C16 UNL     1     -17.751   6.177  -4.845  1.00  0.00     0.037 C 
HETATM   12  C17 UNL     1     -18.341   7.184  -3.821  1.00  0.00    -0.000 C 
HETATM   13  C18 UNL     1     -17.308   7.491  -2.894  1.00  0.00     0.046 C 
HETATM   14  C19 UNL     1     -17.320   8.598  -1.875  1.00  0.00     0.096 C 
HETATM   15  C20 UNL     1     -16.664   9.815  -2.543  1.00  0.00     0.049 C 
ENDROOT
BRANCH   1  16
HETATM   16  O2  UNL     1     -18.933  10.411  -1.726  1.00  0.00    -0.310 OA
BRANCH  16  17
HETATM   17  C5  UNL     1     -18.949  11.497  -0.898  1.00  0.00     0.259 C 
HETATM   18  O1  UNL     1     -18.543  11.326   0.289  1.00  0.00    -0.265 OA
BRANCH  17  19
HETATM   19  C4  UNL     1     -19.413  12.825  -1.349  1.00  0.00     0.111 C 
BRANCH  19  20
HETATM   20  C3  UNL     1     -18.251  13.640  -1.827  1.00  0.00     0.009 C 
BRANCH  20  21
HETATM   21  C2  UNL     1     -18.043  13.468  -3.295  1.00  0.00    -0.004 C 
HETATM   22  C1  UNL     1     -16.526  13.549  -3.526  1.00  0.00     0.005 C 
ENDBRANCH  20  21
ENDBRANCH  19  20
ENDBRANCH  17  19
ENDBRANCH  16  17
ENDBRANCH   1  16
BRANCH   2  23
HETATM   23  O3  UNL     1     -19.041   7.083  -1.219  1.00  0.00    -0.393 OA
ATOM     24  H3  UNL     1     -18.228   7.575  -1.242  1.00  0.00     0.210 HD
ENDBRANCH   2  23
BRANCH  14  25
HETATM   25  O5  UNL     1     -16.490   8.098  -0.855  1.00  0.00    -0.308 OA
BRANCH  25  26
HETATM   26  C21 UNL     1     -15.917   8.712   0.195  1.00  0.00     0.259 C 
HETATM   27  O6  UNL     1     -16.591   8.764   1.246  1.00  0.00    -0.265 OA
BRANCH  26  28
HETATM   28  C22 UNL     1     -14.552   9.318   0.180  1.00  0.00     0.106 C 
HETATM   29  C23 UNL     1     -13.672   8.567  -0.806  1.00  0.00     0.015 C 
ENDBRANCH  26  28
ENDBRANCH  25  26
ENDBRANCH  14  25
BRANCH  10  30
HETATM   30  O4  UNL     1     -18.913   4.889  -6.515  1.00  0.00    -0.395 OA
ATOM     31  H4  UNL     1     -18.182   4.299  -6.375  1.00  0.00     0.210 HD
ENDBRANCH  10  30
TORSDOF 10
ENDMDL
