MODEL 1
REMARK VINA RESULT: -5.140865822      0.000      0.000
REMARK  2 active torsions:
REMARK  status: ('A' for Active; 'I' for Inactive)
REMARK    1  A    between atoms: N1_1  and  C1_4 
REMARK    2  A    between atoms: N3_8  and  O1_9 
ROOT
HETATM    1  C1  UNL     1      20.353  11.306 -19.680  1.00  0.00     0.132 A 
HETATM    2  N2  UNL     1      19.560  10.663 -18.807  1.00  0.00    -0.335 N 
ATOM      3  H2  UNL     1      18.587  10.469 -19.044  1.00  0.00     0.168 HD
HETATM    4  C2  UNL     1      20.061  10.275 -17.612  1.00  0.00     0.217 A 
HETATM    5  N3  UNL     1      21.339  10.515 -17.269  1.00  0.00    -0.200 N 
HETATM    6  C3  UNL     1      22.188  11.159 -18.108  1.00  0.00     0.181 A 
HETATM    7  N4  UNL     1      23.479  11.528 -18.039  1.00  0.00    -0.267 N 
ATOM      8  H4  UNL     1      24.119  11.372 -17.260  1.00  0.00     0.190 HD
HETATM    9  N5  UNL     1      23.757  12.133 -19.182  1.00  0.00    -0.240 N 
ATOM     10  H5  UNL     1      24.667  12.524 -19.424  1.00  0.00     0.208 HD
HETATM   11  N6  UNL     1      22.699  12.161 -19.963  1.00  0.00    -0.279 N 
ATOM     12  H6  UNL     1      22.663  12.574 -20.895  1.00  0.00     0.189 HD
HETATM   13  C4  UNL     1      21.673  11.559 -19.338  1.00  0.00     0.141 A 
ENDROOT
BRANCH   1  14
HETATM   14  N1  UNL     1      19.923  11.695 -20.828  1.00  0.00    -0.383 N 
ATOM     15  H12 UNL     1      18.927  11.890 -20.942  1.00  0.00     0.157 HD
ATOM     16  H11 UNL     1      20.548  11.813 -21.625  1.00  0.00     0.157 HD
ENDBRANCH   1  14
BRANCH   5  17
HETATM   17  O1  UNL     1      21.839  10.114 -16.045  1.00  0.00    -0.280 OA
ATOM     18  H1  UNL     1      21.862  10.707 -15.304  1.00  0.00     0.245 HD
ENDBRANCH   5  17
TORSDOF 2
ENDMDL
MODEL 2
REMARK VINA RESULT: -5.130333212      1.894      2.875
REMARK  2 active torsions:
REMARK  status: ('A' for Active; 'I' for Inactive)
REMARK    1  A    between atoms: N1_1  and  C1_4 
REMARK    2  A    between atoms: N3_8  and  O1_9 
ROOT
HETATM    1  C1  UNL     1      20.144  11.047 -19.188  1.00  0.00     0.132 A 
HETATM    2  N2  UNL     1      20.147  11.495 -20.455  1.00  0.00    -0.335 N 
ATOM      3  H2  UNL     1      19.292  11.471 -21.010  1.00  0.00     0.168 HD
HETATM    4  C2  UNL     1      21.293  11.977 -20.988  1.00  0.00     0.217 A 
HETATM    5  N3  UNL     1      22.437  12.022 -20.283  1.00  0.00    -0.200 N 
HETATM    6  C3  UNL     1      22.496  11.586 -19.001  1.00  0.00     0.181 A 
HETATM    7  N4  UNL     1      23.470  11.511 -18.076  1.00  0.00    -0.267 N 
ATOM      8  H4  UNL     1      24.442  11.800 -18.188  1.00  0.00     0.190 HD
HETATM    9  N5  UNL     1      22.919  10.988 -16.994  1.00  0.00    -0.240 N 
ATOM     10  H5  UNL     1      23.414  10.809 -16.121  1.00  0.00     0.208 HD
HETATM   11  N6  UNL     1      21.645  10.732 -17.197  1.00  0.00    -0.279 N 
ATOM     12  H6  UNL     1      21.007  10.326 -16.513  1.00  0.00     0.189 HD
HETATM   13  C4  UNL     1      21.318  11.090 -18.451  1.00  0.00     0.141 A 
ENDROOT
BRANCH   1  14
HETATM   14  N1  UNL     1      19.080  10.579 -18.637  1.00  0.00    -0.383 N 
ATOM     15  H12 UNL     1      18.794  10.944 -17.728  1.00  0.00     0.157 HD
ATOM     16  H11 UNL     1      18.517   9.856 -19.084  1.00  0.00     0.157 HD
ENDBRANCH   1  14
BRANCH   5  17
HETATM   17  O1  UNL     1      23.601  12.518 -20.840  1.00  0.00    -0.280 OA
ATOM     18  H1  UNL     1      24.082  12.025 -21.494  1.00  0.00     0.245 HD
ENDBRANCH   5  17
TORSDOF 2
ENDMDL
MODEL 3
REMARK VINA RESULT: -4.962856813      1.933      3.732
REMARK  2 active torsions:
REMARK  status: ('A' for Active; 'I' for Inactive)
REMARK    1  A    between atoms: N1_1  and  C1_4 
REMARK    2  A    between atoms: N3_8  and  O1_9 
ROOT
HETATM    1  C1  UNL     1      21.977  10.806 -17.595  1.00  0.00     0.132 A 
HETATM    2  N2  UNL     1      23.266  11.181 -17.543  1.00  0.00    -0.335 N 
ATOM      3  H2  UNL     1      23.834  10.956 -16.726  1.00  0.00     0.168 HD
HETATM    4  C2  UNL     1      23.806  11.858 -18.582  1.00  0.00     0.217 A 
HETATM    5  N3  UNL     1      23.086  12.171 -19.673  1.00  0.00    -0.200 N 
HETATM    6  C3  UNL     1      21.781  11.820 -19.785  1.00  0.00     0.181 A 
HETATM    7  N4  UNL     1      20.838  11.990 -20.729  1.00  0.00    -0.267 N 
ATOM      8  H4  UNL     1      20.949  12.465 -21.625  1.00  0.00     0.190 HD
HETATM    9  N5  UNL     1      19.738  11.421 -20.266  1.00  0.00    -0.240 N 
ATOM     10  H5  UNL     1      18.849  11.388 -20.763  1.00  0.00     0.208 HD
HETATM   11  N6  UNL     1      19.948  10.902 -19.075  1.00  0.00    -0.279 N 
ATOM     12  H6  UNL     1      19.253  10.410 -18.513  1.00  0.00     0.189 HD
HETATM   13  C4  UNL     1      21.225  11.122 -18.717  1.00  0.00     0.141 A 
ENDROOT
BRANCH   1  14
HETATM   14  N1  UNL     1      21.419  10.161 -16.633  1.00  0.00    -0.383 N 
ATOM     15  H12 UNL     1      21.418   9.141 -16.658  1.00  0.00     0.157 HD
ATOM     16  H11 UNL     1      20.979  10.640 -15.848  1.00  0.00     0.157 HD
ENDBRANCH   1  14
BRANCH   5  17
HETATM   17  O1  UNL     1      23.650  12.864 -20.728  1.00  0.00    -0.280 OA
ATOM     18  H1  UNL     1      23.370  13.745 -20.943  1.00  0.00     0.245 HD
ENDBRANCH   5  17
TORSDOF 2
ENDMDL
MODEL 4
REMARK VINA RESULT: -4.711574281      1.222      1.669
REMARK  2 active torsions:
REMARK  status: ('A' for Active; 'I' for Inactive)
REMARK    1  A    between atoms: N1_1  and  C1_4 
REMARK    2  A    between atoms: N3_8  and  O1_9 
ROOT
HETATM    1  C1  UNL     1      21.362  11.816 -20.664  1.00  0.00     0.132 A 
HETATM    2  N2  UNL     1      20.051  11.526 -20.626  1.00  0.00    -0.335 N 
ATOM      3  H2  UNL     1      19.487  11.583 -21.473  1.00  0.00     0.168 HD
HETATM    4  C2  UNL     1      19.484  11.157 -19.454  1.00  0.00     0.217 A 
HETATM    5  N3  UNL     1      20.198  11.072 -18.318  1.00  0.00    -0.200 N 
HETATM    6  C3  UNL     1      21.525  11.351 -18.294  1.00  0.00     0.181 A 
HETATM    7  N4  UNL     1      22.469  11.352 -17.336  1.00  0.00    -0.267 N 
ATOM      8  H4  UNL     1      22.341  11.118 -16.351  1.00  0.00     0.190 HD
HETATM    9  N5  UNL     1      23.597  11.717 -17.922  1.00  0.00    -0.240 N 
ATOM     10  H5  UNL     1      24.494  11.809 -17.446  1.00  0.00     0.208 HD
HETATM   11  N6  UNL     1      23.403  11.946 -19.203  1.00  0.00    -0.279 N 
ATOM     12  H6  UNL     1      24.120  12.240 -19.866  1.00  0.00     0.189 HD
HETATM   13  C4  UNL     1      22.109  11.730 -19.498  1.00  0.00     0.141 A 
ENDROOT
BRANCH   1  14
HETATM   14  N1  UNL     1      21.947  12.171 -21.753  1.00  0.00    -0.383 N 
ATOM     15  H12 UNL     1      21.399  12.633 -22.479  1.00  0.00     0.157 HD
ATOM     16  H11 UNL     1      22.940  12.003 -21.909  1.00  0.00     0.157 HD
ENDBRANCH   1  14
BRANCH   5  17
HETATM   17  O1  UNL     1      19.607  10.694 -17.128  1.00  0.00    -0.280 OA
ATOM     18  H1  UNL     1      19.718   9.818 -16.779  1.00  0.00     0.245 HD
ENDBRANCH   5  17
TORSDOF 2
ENDMDL
MODEL 5
REMARK VINA RESULT: -4.613257419      0.835      2.847
REMARK  2 active torsions:
REMARK  status: ('A' for Active; 'I' for Inactive)
REMARK    1  A    between atoms: N1_1  and  C1_4 
REMARK    2  A    between atoms: N3_8  and  O1_9 
ROOT
HETATM    1  C1  UNL     1      22.387  11.910 -19.799  1.00  0.00     0.132 A 
HETATM    2  N2  UNL     1      23.420  11.806 -18.946  1.00  0.00    -0.335 N 
ATOM      3  H2  UNL     1      24.336  12.173 -19.202  1.00  0.00     0.168 HD
HETATM    4  C2  UNL     1      23.236  11.209 -17.746  1.00  0.00     0.217 A 
HETATM    5  N3  UNL     1      22.042  10.713 -17.378  1.00  0.00    -0.200 N 
HETATM    6  C3  UNL     1      20.962  10.789 -18.195  1.00  0.00     0.181 A 
HETATM    7  N4  UNL     1      19.680  10.394 -18.099  1.00  0.00    -0.267 N 
ATOM      8  H4  UNL     1      19.245   9.915 -17.310  1.00  0.00     0.190 HD
HETATM    9  N5  UNL     1      19.093  10.749 -19.230  1.00  0.00    -0.240 N 
ATOM     10  H5  UNL     1      18.112  10.582 -19.451  1.00  0.00     0.208 HD
HETATM   11  N6  UNL     1      19.949  11.348 -20.030  1.00  0.00    -0.279 N 
ATOM     12  H6  UNL     1      19.734  11.712 -20.959  1.00  0.00     0.189 HD
HETATM   13  C4  UNL     1      21.150  11.404 -19.429  1.00  0.00     0.141 A 
ENDROOT
BRANCH   1  14
HETATM   14  N1  UNL     1      22.512  12.469 -20.950  1.00  0.00    -0.383 N 
ATOM     15  H12 UNL     1      21.737  12.414 -21.612  1.00  0.00     0.157 HD
ATOM     16  H11 UNL     1      23.362  12.964 -21.218  1.00  0.00     0.157 HD
ENDBRANCH   1  14
BRANCH   5  17
HETATM   17  O1  UNL     1      21.867  10.105 -16.149  1.00  0.00    -0.280 OA
ATOM     18  H1  UNL     1      21.000   9.911 -15.816  1.00  0.00     0.245 HD
ENDBRANCH   5  17
TORSDOF 2
ENDMDL
