MODEL 1
REMARK VINA RESULT: -8.343984616      0.000      0.000
REMARK  6 active torsions:
REMARK  status: ('A' for Active; 'I' for Inactive)
REMARK    1  A    between atoms: N1_2  and  C2_5 
REMARK    2  A    between atoms: C2_5  and  C3_6 
REMARK    3  A    between atoms: C2_5  and  C4_13 
REMARK       I    between atoms: C3_6  and  N2_8 
REMARK    4  A    between atoms: N2_8  and  N3_10 
REMARK       I    between atoms: C4_13  and  N4_15 
REMARK    5  A    between atoms: N4_15  and  N5_17 
REMARK       I    between atoms: N5_17  and  C5_19 
REMARK    6  A    between atoms: C5_19  and  C6_21 
ROOT
HETATM    1  C4  UNL     1      18.030  19.683  35.921  1.00  0.00     0.276 C 
HETATM    2  O2  UNL     1      17.232  19.741  36.918  1.00  0.00    -0.269 OA
HETATM    3  N4  UNL     1      19.427  19.744  36.153  1.00  0.00    -0.265 N 
ATOM      4  H4  UNL     1      20.080  19.692  35.371  1.00  0.00     0.190 HD
ENDROOT
BRANCH   1   5
HETATM    5  C2  UNL     1      17.509  19.550  34.542  1.00  0.00     0.370 C 
BRANCH   5   6
HETATM    6  N1  UNL     1      18.425  20.330  33.684  1.00  0.00    -0.057 N 
HETATM    7  C1  UNL     1      17.611  21.206  32.877  1.00  0.00     0.268 C 
ATOM      8  H12 UNL     1      19.050  19.743  33.131  1.00  0.00     0.278 HD
ATOM      9  H11 UNL     1      19.143  20.825  34.212  1.00  0.00     0.278 HD
ENDBRANCH   5   6
BRANCH   5  10
HETATM   10  C3  UNL     1      17.617  18.119  34.083  1.00  0.00     0.276 C 
HETATM   11  O1  UNL     1      16.586  17.536  33.630  1.00  0.00    -0.269 OA
HETATM   12  N2  UNL     1      18.796  17.377  34.123  1.00  0.00    -0.274 N 
ATOM     13  H2  UNL     1      19.643  17.813  34.486  1.00  0.00     0.189 HD
BRANCH  12  14
HETATM   14  N3  UNL     1      18.849  16.025  33.671  1.00  0.00    -0.343 N 
ATOM     15  H32 UNL     1      18.684  15.285  34.353  1.00  0.00     0.176 HD
ATOM     16  H31 UNL     1      19.045  15.790  32.698  1.00  0.00     0.176 HD
ENDBRANCH  12  14
ENDBRANCH   5  10
ENDBRANCH   1   5
BRANCH   3  17
HETATM   17  N5  UNL     1      19.904  19.875  37.465  1.00  0.00    -0.263 N 
HETATM   18  C5  UNL     1      20.146  21.186  37.965  1.00  0.00     0.270 C 
HETATM   19  O3  UNL     1      19.923  22.195  37.219  1.00  0.00    -0.266 OA
ATOM     20  H5  UNL     1      20.074  19.053  38.045  1.00  0.00     0.190 HD
BRANCH  18  21
HETATM   21  C6  UNL     1      20.644  21.387  39.318  1.00  0.00     0.033 A 
HETATM   22  C7  UNL     1      20.236  22.521  39.999  1.00  0.00     0.017 A 
HETATM   23  C8  UNL     1      20.685  22.784  41.286  1.00  0.00     0.001 A 
HETATM   24  C9  UNL     1      21.552  21.891  41.886  1.00  0.00     0.000 A 
HETATM   25  C10 UNL     1      21.980  20.747  41.229  1.00  0.00     0.001 A 
HETATM   26  C11 UNL     1      21.506  20.521  39.941  1.00  0.00     0.017 A 
ENDBRANCH  18  21
ENDBRANCH   3  17
TORSDOF 6
ENDMDL
MODEL 2
REMARK VINA RESULT: -8.335167733      2.892      3.546
REMARK  6 active torsions:
REMARK  status: ('A' for Active; 'I' for Inactive)
REMARK    1  A    between atoms: N1_2  and  C2_5 
REMARK    2  A    between atoms: C2_5  and  C3_6 
REMARK    3  A    between atoms: C2_5  and  C4_13 
REMARK       I    between atoms: C3_6  and  N2_8 
REMARK    4  A    between atoms: N2_8  and  N3_10 
REMARK       I    between atoms: C4_13  and  N4_15 
REMARK    5  A    between atoms: N4_15  and  N5_17 
REMARK       I    between atoms: N5_17  and  C5_19 
REMARK    6  A    between atoms: C5_19  and  C6_21 
ROOT
HETATM    1  C4  UNL     1      17.454  20.053  34.979  1.00  0.00     0.276 C 
HETATM    2  O2  UNL     1      18.648  19.991  35.434  1.00  0.00    -0.269 OA
HETATM    3  N4  UNL     1      16.483  20.799  35.692  1.00  0.00    -0.265 N 
ATOM      4  H4  UNL     1      15.528  20.865  35.342  1.00  0.00     0.190 HD
ENDROOT
BRANCH   1   5
HETATM    5  C2  UNL     1      17.087  19.361  33.723  1.00  0.00     0.370 C 
BRANCH   5   6
HETATM    6  N1  UNL     1      17.913  19.977  32.662  1.00  0.00    -0.057 N 
HETATM    7  C1  UNL     1      17.645  21.394  32.683  1.00  0.00     0.268 C 
ATOM      8  H12 UNL     1      17.764  19.555  31.746  1.00  0.00     0.278 HD
ATOM      9  H11 UNL     1      18.905  19.756  32.750  1.00  0.00     0.278 HD
ENDBRANCH   5   6
BRANCH   5  10
HETATM   10  C3  UNL     1      17.498  17.913  33.788  1.00  0.00     0.276 C 
HETATM   11  O1  UNL     1      16.631  17.014  33.569  1.00  0.00    -0.269 OA
HETATM   12  N2  UNL     1      18.791  17.485  34.080  1.00  0.00    -0.274 N 
ATOM     13  H2  UNL     1      19.513  18.180  34.267  1.00  0.00     0.189 HD
BRANCH  12  14
HETATM   14  N3  UNL     1      19.133  16.101  34.126  1.00  0.00    -0.343 N 
ATOM     15  H32 UNL     1      18.386  15.427  34.297  1.00  0.00     0.176 HD
ATOM     16  H31 UNL     1      20.092  15.778  33.994  1.00  0.00     0.176 HD
ENDBRANCH  12  14
ENDBRANCH   5  10
ENDBRANCH   1   5
BRANCH   3  17
HETATM   17  N5  UNL     1      16.846  21.444  36.883  1.00  0.00    -0.263 N 
HETATM   18  C5  UNL     1      15.864  22.236  37.544  1.00  0.00     0.270 C 
HETATM   19  O3  UNL     1      14.695  22.335  37.047  1.00  0.00    -0.266 OA
ATOM     20  H5  UNL     1      17.786  21.349  37.264  1.00  0.00     0.190 HD
BRANCH  18  21
HETATM   21  C6  UNL     1      16.181  22.933  38.783  1.00  0.00     0.033 A 
HETATM   22  C7  UNL     1      15.162  23.618  39.422  1.00  0.00     0.017 A 
HETATM   23  C8  UNL     1      15.396  24.318  40.598  1.00  0.00     0.001 A 
HETATM   24  C9  UNL     1      16.672  24.321  41.129  1.00  0.00     0.000 A 
HETATM   25  C10 UNL     1      17.714  23.645  40.511  1.00  0.00     0.001 A 
HETATM   26  C11 UNL     1      17.436  22.957  39.336  1.00  0.00     0.017 A 
ENDBRANCH  18  21
ENDBRANCH   3  17
TORSDOF 6
ENDMDL
MODEL 3
REMARK VINA RESULT: -8.297825831      0.265      1.103
REMARK  6 active torsions:
REMARK  status: ('A' for Active; 'I' for Inactive)
REMARK    1  A    between atoms: N1_2  and  C2_5 
REMARK    2  A    between atoms: C2_5  and  C3_6 
REMARK    3  A    between atoms: C2_5  and  C4_13 
REMARK       I    between atoms: C3_6  and  N2_8 
REMARK    4  A    between atoms: N2_8  and  N3_10 
REMARK       I    between atoms: C4_13  and  N4_15 
REMARK    5  A    between atoms: N4_15  and  N5_17 
REMARK       I    between atoms: N5_17  and  C5_19 
REMARK    6  A    between atoms: C5_19  and  C6_21 
ROOT
HETATM    1  C4  UNL     1      17.893  19.750  35.971  1.00  0.00     0.276 C 
HETATM    2  O2  UNL     1      17.032  19.934  36.899  1.00  0.00    -0.269 OA
HETATM    3  N4  UNL     1      19.270  19.720  36.305  1.00  0.00    -0.265 N 
ATOM      4  H4  UNL     1      19.971  19.568  35.579  1.00  0.00     0.190 HD
ENDROOT
BRANCH   1   5
HETATM    5  C2  UNL     1      17.462  19.564  34.567  1.00  0.00     0.370 C 
BRANCH   5   6
HETATM    6  N1  UNL     1      18.409  20.346  33.744  1.00  0.00    -0.057 N 
HETATM    7  C1  UNL     1      17.626  21.239  32.926  1.00  0.00     0.268 C 
ATOM      8  H12 UNL     1      19.044  19.760  33.202  1.00  0.00     0.278 HD
ATOM      9  H11 UNL     1      19.116  20.828  34.299  1.00  0.00     0.278 HD
ENDBRANCH   5   6
BRANCH   5  10
HETATM   10  C3  UNL     1      17.637  18.125  34.157  1.00  0.00     0.276 C 
HETATM   11  O1  UNL     1      16.628  17.472  33.751  1.00  0.00    -0.269 OA
HETATM   12  N2  UNL     1      18.854  17.448  34.194  1.00  0.00    -0.274 N 
ATOM     13  H2  UNL     1      19.685  17.942  34.519  1.00  0.00     0.189 HD
BRANCH  12  14
HETATM   14  N3  UNL     1      18.970  16.086  33.790  1.00  0.00    -0.343 N 
ATOM     15  H32 UNL     1      19.325  15.413  34.469  1.00  0.00     0.176 HD
ATOM     16  H31 UNL     1      18.709  15.778  32.853  1.00  0.00     0.176 HD
ENDBRANCH  12  14
ENDBRANCH   5  10
ENDBRANCH   1   5
BRANCH   3  17
HETATM   17  N5  UNL     1      19.662  19.903  37.638  1.00  0.00    -0.263 N 
HETATM   18  C5  UNL     1      20.018  21.215  38.061  1.00  0.00     0.270 C 
HETATM   19  O3  UNL     1      19.970  22.179  37.230  1.00  0.00    -0.266 OA
ATOM     20  H5  UNL     1      19.691  19.117  38.287  1.00  0.00     0.190 HD
BRANCH  18  21
HETATM   21  C6  UNL     1      20.435  21.467  39.434  1.00  0.00     0.033 A 
HETATM   22  C7  UNL     1      21.541  20.785  39.912  1.00  0.00     0.017 A 
HETATM   23  C8  UNL     1      21.985  20.965  41.215  1.00  0.00     0.001 A 
HETATM   24  C9  UNL     1      21.304  21.842  42.037  1.00  0.00     0.000 A 
HETATM   25  C10 UNL     1      20.192  22.539  41.587  1.00  0.00     0.001 A 
HETATM   26  C11 UNL     1      19.780  22.330  40.275  1.00  0.00     0.017 A 
ENDBRANCH  18  21
ENDBRANCH   3  17
TORSDOF 6
ENDMDL
MODEL 4
REMARK VINA RESULT: -8.170369018      0.986      1.243
REMARK  6 active torsions:
REMARK  status: ('A' for Active; 'I' for Inactive)
REMARK    1  A    between atoms: N1_2  and  C2_5 
REMARK    2  A    between atoms: C2_5  and  C3_6 
REMARK    3  A    between atoms: C2_5  and  C4_13 
REMARK       I    between atoms: C3_6  and  N2_8 
REMARK    4  A    between atoms: N2_8  and  N3_10 
REMARK       I    between atoms: C4_13  and  N4_15 
REMARK    5  A    between atoms: N4_15  and  N5_17 
REMARK       I    between atoms: N5_17  and  C5_19 
REMARK    6  A    between atoms: C5_19  and  C6_21 
ROOT
HETATM    1  C4  UNL     1      18.558  20.348  35.340  1.00  0.00     0.276 C 
HETATM    2  O2  UNL     1      18.806  21.598  35.435  1.00  0.00    -0.269 OA
HETATM    3  N4  UNL     1      19.109  19.461  36.298  1.00  0.00    -0.265 N 
ATOM      4  H4  UNL     1      18.916  18.461  36.243  1.00  0.00     0.190 HD
ENDROOT
BRANCH   1   5
HETATM    5  C2  UNL     1      17.703  19.828  34.249  1.00  0.00     0.370 C 
BRANCH   5   6
HETATM    6  N1  UNL     1      18.322  20.295  32.990  1.00  0.00    -0.057 N 
HETATM    7  C1  UNL     1      17.530  21.403  32.512  1.00  0.00     0.268 C 
ATOM      8  H12 UNL     1      18.429  19.553  32.299  1.00  0.00     0.278 HD
ATOM      9  H11 UNL     1      19.310  20.525  33.092  1.00  0.00     0.278 HD
ENDBRANCH   5   6
BRANCH   5  10
HETATM   10  C3  UNL     1      17.764  18.323  34.214  1.00  0.00     0.276 C 
HETATM   11  O1  UNL     1      16.687  17.659  34.309  1.00  0.00    -0.269 OA
HETATM   12  N2  UNL     1      18.945  17.596  34.084  1.00  0.00    -0.274 N 
ATOM     13  H2  UNL     1      19.830  18.097  34.010  1.00  0.00     0.189 HD
BRANCH  12  14
HETATM   14  N3  UNL     1      18.951  16.170  34.051  1.00  0.00    -0.343 N 
ATOM     15  H32 UNL     1      18.074  15.682  34.233  1.00  0.00     0.176 HD
ATOM     16  H31 UNL     1      19.799  15.639  33.853  1.00  0.00     0.176 HD
ENDBRANCH  12  14
ENDBRANCH   5  10
ENDBRANCH   1   5
BRANCH   3  17
HETATM   17  N5  UNL     1      19.920  19.968  37.323  1.00  0.00    -0.263 N 
HETATM   18  C5  UNL     1      19.376  20.042  38.637  1.00  0.00     0.270 C 
HETATM   19  O3  UNL     1      18.183  19.648  38.848  1.00  0.00    -0.266 OA
ATOM     20  H5  UNL     1      20.873  20.276  37.132  1.00  0.00     0.190 HD
BRANCH  18  21
HETATM   21  C6  UNL     1      20.168  20.563  39.743  1.00  0.00     0.033 A 
HETATM   22  C7  UNL     1      19.606  21.547  40.538  1.00  0.00     0.017 A 
HETATM   23  C8  UNL     1      20.310  22.099  41.599  1.00  0.00     0.001 A 
HETATM   24  C9  UNL     1      21.592  21.650  41.855  1.00  0.00     0.000 A 
HETATM   25  C10 UNL     1      22.182  20.667  41.075  1.00  0.00     0.001 A 
HETATM   26  C11 UNL     1      21.443  20.139  40.023  1.00  0.00     0.017 A 
ENDBRANCH  18  21
ENDBRANCH   3  17
TORSDOF 6
ENDMDL
MODEL 5
REMARK VINA RESULT: -8.119888577      1.373      1.500
REMARK  6 active torsions:
REMARK  status: ('A' for Active; 'I' for Inactive)
REMARK    1  A    between atoms: N1_2  and  C2_5 
REMARK    2  A    between atoms: C2_5  and  C3_6 
REMARK    3  A    between atoms: C2_5  and  C4_13 
REMARK       I    between atoms: C3_6  and  N2_8 
REMARK    4  A    between atoms: N2_8  and  N3_10 
REMARK       I    between atoms: C4_13  and  N4_15 
REMARK    5  A    between atoms: N4_15  and  N5_17 
REMARK       I    between atoms: N5_17  and  C5_19 
REMARK    6  A    between atoms: C5_19  and  C6_21 
ROOT
HETATM    1  C4  UNL     1      17.592  19.752  35.291  1.00  0.00     0.276 C 
HETATM    2  O2  UNL     1      17.401  21.012  35.402  1.00  0.00    -0.269 OA
HETATM    3  N4  UNL     1      18.737  19.173  35.892  1.00  0.00    -0.265 N 
ATOM      4  H4  UNL     1      18.903  18.169  35.819  1.00  0.00     0.190 HD
ENDROOT
BRANCH   1   5
HETATM    5  C2  UNL     1      16.632  18.905  34.548  1.00  0.00     0.370 C 
BRANCH   5   6
HETATM    6  N1  UNL     1      16.312  19.642  33.307  1.00  0.00    -0.057 N 
HETATM    7  C1  UNL     1      17.566  19.993  32.685  1.00  0.00     0.268 C 
ATOM      8  H12 UNL     1      15.706  20.447  33.466  1.00  0.00     0.278 HD
ATOM      9  H11 UNL     1      15.688  19.127  32.687  1.00  0.00     0.278 HD
ENDBRANCH   5   6
BRANCH   5  10
HETATM   10  C3  UNL     1      17.295  17.623  34.117  1.00  0.00     0.276 C 
HETATM   11  O1  UNL     1      16.605  16.739  33.525  1.00  0.00    -0.269 OA
HETATM   12  N2  UNL     1      18.642  17.335  34.330  1.00  0.00    -0.274 N 
ATOM     13  H2  UNL     1      19.225  18.022  34.807  1.00  0.00     0.189 HD
BRANCH  12  14
HETATM   14  N3  UNL     1      19.226  16.108  33.899  1.00  0.00    -0.343 N 
ATOM     15  H32 UNL     1      19.537  16.039  32.930  1.00  0.00     0.176 HD
ATOM     16  H31 UNL     1      19.337  15.314  34.529  1.00  0.00     0.176 HD
ENDBRANCH  12  14
ENDBRANCH   5  10
ENDBRANCH   1   5
BRANCH   3  17
HETATM   17  N5  UNL     1      19.640  19.990  36.587  1.00  0.00    -0.263 N 
HETATM   18  C5  UNL     1      19.484  20.116  37.997  1.00  0.00     0.270 C 
HETATM   19  O3  UNL     1      18.543  19.490  38.585  1.00  0.00    -0.266 OA
ATOM     20  H5  UNL     1      20.387  20.480  36.097  1.00  0.00     0.190 HD
BRANCH  18  21
HETATM   21  C6  UNL     1      20.388  20.952  38.775  1.00  0.00     0.033 A 
HETATM   22  C7  UNL     1      20.676  22.218  38.294  1.00  0.00     0.017 A 
HETATM   23  C8  UNL     1      21.542  23.062  38.976  1.00  0.00     0.001 A 
HETATM   24  C9  UNL     1      22.119  22.620  40.151  1.00  0.00     0.000 A 
HETATM   25  C10 UNL     1      21.851  21.356  40.656  1.00  0.00     0.001 A 
HETATM   26  C11 UNL     1      20.977  20.542  39.944  1.00  0.00     0.017 A 
ENDBRANCH  18  21
ENDBRANCH   3  17
TORSDOF 6
ENDMDL
