MODEL 1
REMARK VINA RESULT: -6.880684606      0.000      0.000
REMARK  17 active torsions:
REMARK  status: ('A' for Active; 'I' for Inactive)
REMARK    1  A    between atoms: C11_11  and  O1_12 
REMARK    2  A    between atoms: C12_14  and  O2_15 
REMARK    3  A    between atoms: O2_15  and  C13_16 
REMARK    4  A    between atoms: C13_16  and  C14_21 
REMARK    5  A    between atoms: N1_17  and  O3_19 
REMARK    6  A    between atoms: C14_21  and  C15_22 
REMARK    7  A    between atoms: C14_21  and  C19_26 
REMARK    8  A    between atoms: C15_22  and  C16_23 
REMARK    9  A    between atoms: C16_23  and  C17_24 
REMARK   10  A    between atoms: C19_26  and  C20_27 
REMARK   11  A    between atoms: C23_30  and  C25_32 
REMARK   12  A    between atoms: C25_32  and  O4_33 
REMARK   13  A    between atoms: O4_33  and  C26_34 
REMARK   14  A    between atoms: C26_34  and  C27_36 
REMARK   15  A    between atoms: C31_40  and  C33_42 
REMARK   16  A    between atoms: C33_42  and  C34_43 
REMARK   17  A    between atoms: C34_43  and  O7_45 
ROOT
HETATM    1  C1  UNL     1      19.374  48.421  -2.819  1.00  0.00     0.015 C 
HETATM    2  C2  UNL     1      19.292  47.163  -2.512  1.00  0.00    -0.079 C 
HETATM    3  C3  UNL     1      19.571  46.211  -3.626  1.00  0.00     0.035 C 
HETATM    4  C4  UNL     1      18.364  46.178  -4.503  1.00  0.00     0.021 C 
HETATM    5  C5  UNL     1      17.088  45.713  -3.834  1.00  0.00     0.009 C 
HETATM    6  C6  UNL     1      16.121  46.904  -4.029  1.00  0.00     0.023 C 
HETATM    7  C7  UNL     1      17.306  45.343  -2.431  1.00  0.00    -0.061 C 
HETATM    8  C8  UNL     1      17.407  44.038  -2.109  1.00  0.00    -0.015 C 
HETATM    9  C9  UNL     1      17.316  42.919  -3.075  1.00  0.00     0.035 C 
HETATM   10  C10 UNL     1      18.627  42.444  -3.591  1.00  0.00     0.017 C 
HETATM   11  C11 UNL     1      16.303  43.304  -4.098  1.00  0.00     0.156 C 
HETATM   12  C12 UNL     1      16.437  44.638  -4.705  1.00  0.00     0.172 C 
HETATM   13  C23 UNL     1      17.497  46.123  -1.165  1.00  0.00     0.014 C 
HETATM   14  C24 UNL     1      16.567  47.300  -1.123  1.00  0.00     0.023 C 
HETATM   15  C31 UNL     1      18.944  46.687  -1.144  1.00  0.00     0.001 C 
HETATM   16  C32 UNL     1      19.955  45.633  -0.779  1.00  0.00     0.021 C 
ENDROOT
BRANCH  12  17
HETATM   17  O2  UNL     1      17.041  44.577  -5.966  1.00  0.00    -0.328 OA
BRANCH  17  18
HETATM   18  C13 UNL     1      16.549  44.001  -7.126  1.00  0.00     0.142 C 
HETATM   19  N1  UNL     1      15.346  44.415  -7.440  1.00  0.00    -0.251 N 
ATOM     20  H1  UNL     1      14.912  45.095  -6.816  1.00  0.00     0.196 HD
BRANCH  19  21
HETATM   21  O3  UNL     1      14.631  44.025  -8.510  1.00  0.00    -0.288 OA
ATOM     22  H3  UNL     1      14.161  44.597  -9.106  1.00  0.00     0.244 HD
ENDBRANCH  19  21
BRANCH  18  23
HETATM   23  C14 UNL     1      17.293  43.030  -7.933  1.00  0.00     0.062 C 
BRANCH  23  24
HETATM   24  C15 UNL     1      18.770  43.305  -7.757  1.00  0.00     0.013 C 
BRANCH  24  25
HETATM   25  C16 UNL     1      19.586  42.083  -7.522  1.00  0.00     0.000 C 
BRANCH  25  26
HETATM   26  C17 UNL     1      20.632  42.193  -6.468  1.00  0.00    -0.005 C 
HETATM   27  C18 UNL     1      20.825  43.665  -6.149  1.00  0.00     0.005 C 
ENDBRANCH  25  26
ENDBRANCH  24  25
ENDBRANCH  23  24
BRANCH  23  28
HETATM   28  C19 UNL     1      16.929  41.617  -7.710  1.00  0.00     0.016 C 
BRANCH  28  29
HETATM   29  C20 UNL     1      16.361  40.967  -8.923  1.00  0.00    -0.022 C 
HETATM   30  C21 UNL     1      15.068  40.277  -8.496  1.00  0.00     0.009 C 
HETATM   31  C22 UNL     1      17.250  39.869  -9.472  1.00  0.00     0.009 C 
ENDBRANCH  28  29
ENDBRANCH  23  28
ENDBRANCH  18  23
ENDBRANCH  17  18
ENDBRANCH  12  17
BRANCH  11  32
HETATM   32  O1  UNL     1      15.039  43.233  -3.433  1.00  0.00    -0.392 OA
ATOM     33  H1  UNL     1      14.385  43.278  -4.121  1.00  0.00     0.210 HD
ENDBRANCH  11  32
BRANCH  13  34
HETATM   34  C25 UNL     1      17.341  45.370   0.090  1.00  0.00     0.194 C 
BRANCH  34  35
HETATM   35  O4  UNL     1      16.162  45.232   0.748  1.00  0.00    -0.317 OA
BRANCH  35  36
HETATM   36  C26 UNL     1      15.382  44.305   1.307  1.00  0.00     0.283 C 
HETATM   37  O5  UNL     1      15.306  44.257   2.555  1.00  0.00    -0.260 OA
BRANCH  36  38
HETATM   38  C27 UNL     1      14.601  43.328   0.514  1.00  0.00     0.084 C 
HETATM   39  C28 UNL     1      15.137  42.182   0.193  1.00  0.00    -0.082 C 
HETATM   40  C29 UNL     1      14.320  41.188  -0.624  1.00  0.00     0.043 C 
HETATM   41  C30 UNL     1      16.495  41.719   0.539  1.00  0.00     0.043 C 
ENDBRANCH  36  38
ENDBRANCH  35  36
ENDBRANCH  34  35
ENDBRANCH  13  34
BRANCH  15  42
HETATM   42  C33 UNL     1      19.109  47.812  -0.182  1.00  0.00     0.126 C 
BRANCH  42  43
HETATM   43  C34 UNL     1      20.043  47.581   0.934  1.00  0.00     0.259 C 
HETATM   44  O6  UNL     1      21.265  47.758   0.902  1.00  0.00    -0.265 OA
BRANCH  43  45
HETATM   45  O7  UNL     1      19.507  47.118   2.146  1.00  0.00    -0.326 OA
HETATM   46  C35 UNL     1      18.399  47.775   2.726  1.00  0.00     0.213 C 
ENDBRANCH  43  45
ENDBRANCH  42  43
ENDBRANCH  15  42
TORSDOF 17
ENDMDL
MODEL 2
REMARK VINA RESULT: -6.788280945      2.508      5.652
REMARK  17 active torsions:
REMARK  status: ('A' for Active; 'I' for Inactive)
REMARK    1  A    between atoms: C11_11  and  O1_12 
REMARK    2  A    between atoms: C12_14  and  O2_15 
REMARK    3  A    between atoms: O2_15  and  C13_16 
REMARK    4  A    between atoms: C13_16  and  C14_21 
REMARK    5  A    between atoms: N1_17  and  O3_19 
REMARK    6  A    between atoms: C14_21  and  C15_22 
REMARK    7  A    between atoms: C14_21  and  C19_26 
REMARK    8  A    between atoms: C15_22  and  C16_23 
REMARK    9  A    between atoms: C16_23  and  C17_24 
REMARK   10  A    between atoms: C19_26  and  C20_27 
REMARK   11  A    between atoms: C23_30  and  C25_32 
REMARK   12  A    between atoms: C25_32  and  O4_33 
REMARK   13  A    between atoms: O4_33  and  C26_34 
REMARK   14  A    between atoms: C26_34  and  C27_36 
REMARK   15  A    between atoms: C31_40  and  C33_42 
REMARK   16  A    between atoms: C33_42  and  C34_43 
REMARK   17  A    between atoms: C34_43  and  O7_45 
ROOT
HETATM    1  C1  UNL     1      15.396  47.064   1.528  1.00  0.00     0.015 C 
HETATM    2  C2  UNL     1      16.304  47.715   0.867  1.00  0.00    -0.079 C 
HETATM    3  C3  UNL     1      16.146  47.709  -0.617  1.00  0.00     0.035 C 
HETATM    4  C4  UNL     1      16.598  46.376  -1.112  1.00  0.00     0.021 C 
HETATM    5  C5  UNL     1      18.043  46.031  -0.822  1.00  0.00     0.009 C 
HETATM    6  C6  UNL     1      17.946  44.720  -0.006  1.00  0.00     0.023 C 
HETATM    7  C7  UNL     1      18.739  47.119  -0.124  1.00  0.00    -0.061 C 
HETATM    8  C8  UNL     1      19.554  47.928  -0.829  1.00  0.00    -0.015 C 
HETATM    9  C9  UNL     1      19.812  47.811  -2.283  1.00  0.00     0.035 C 
HETATM   10  C10 UNL     1      18.944  48.669  -3.133  1.00  0.00     0.017 C 
HETATM   11  C11 UNL     1      19.827  46.358  -2.610  1.00  0.00     0.156 C 
HETATM   12  C12 UNL     1      18.704  45.547  -2.112  1.00  0.00     0.172 C 
HETATM   13  C23 UNL     1      18.740  47.618   1.289  1.00  0.00     0.014 C 
HETATM   14  C24 UNL     1      18.732  46.471   2.255  1.00  0.00     0.023 C 
HETATM   15  C31 UNL     1      17.434  48.423   1.531  1.00  0.00     0.001 C 
HETATM   16  C32 UNL     1      17.499  49.800   0.926  1.00  0.00     0.021 C 
ENDROOT
BRANCH  12  17
HETATM   17  O2  UNL     1      17.752  45.310  -3.109  1.00  0.00    -0.328 OA
BRANCH  17  18
HETATM   18  C13 UNL     1      17.456  44.117  -3.748  1.00  0.00     0.142 C 
HETATM   19  N1  UNL     1      16.610  43.368  -3.082  1.00  0.00    -0.251 N 
ATOM     20  H1  UNL     1      16.272  43.732  -2.191  1.00  0.00     0.196 HD
BRANCH  19  21
HETATM   21  O3  UNL     1      16.149  42.165  -3.465  1.00  0.00    -0.288 OA
ATOM     22  H3  UNL     1      15.238  41.894  -3.474  1.00  0.00     0.244 HD
ENDBRANCH  19  21
BRANCH  18  23
HETATM   23  C14 UNL     1      18.020  43.723  -5.041  1.00  0.00     0.062 C 
BRANCH  23  24
HETATM   24  C15 UNL     1      17.048  44.135  -6.124  1.00  0.00     0.013 C 
BRANCH  24  25
HETATM   25  C16 UNL     1      17.339  43.535  -7.455  1.00  0.00     0.000 C 
BRANCH  25  26
HETATM   26  C17 UNL     1      17.201  42.055  -7.545  1.00  0.00    -0.005 C 
HETATM   27  C18 UNL     1      18.290  41.538  -8.467  1.00  0.00     0.005 C 
ENDBRANCH  25  26
ENDBRANCH  24  25
ENDBRANCH  23  24
BRANCH  23  28
HETATM   28  C19 UNL     1      19.402  44.177  -5.290  1.00  0.00     0.016 C 
BRANCH  28  29
HETATM   29  C20 UNL     1      20.406  43.087  -5.142  1.00  0.00    -0.022 C 
HETATM   30  C21 UNL     1      21.043  42.878  -6.513  1.00  0.00     0.009 C 
HETATM   31  C22 UNL     1      19.779  41.757  -4.773  1.00  0.00     0.009 C 
ENDBRANCH  28  29
ENDBRANCH  23  28
ENDBRANCH  18  23
ENDBRANCH  17  18
ENDBRANCH  12  17
BRANCH  11  32
HETATM   32  O1  UNL     1      21.039  45.849  -2.046  1.00  0.00    -0.392 OA
ATOM     33  H1  UNL     1      21.277  46.459  -1.357  1.00  0.00     0.210 HD
ENDBRANCH  11  32
BRANCH  13  34
HETATM   34  C25 UNL     1      19.842  48.521   1.656  1.00  0.00     0.194 C 
BRANCH  34  35
HETATM   35  O4  UNL     1      20.727  48.268   2.653  1.00  0.00    -0.317 OA
BRANCH  35  36
HETATM   36  C26 UNL     1      21.991  48.501   3.009  1.00  0.00     0.283 C 
HETATM   37  O5  UNL     1      22.347  48.231   4.178  1.00  0.00    -0.260 OA
BRANCH  36  38
HETATM   38  C27 UNL     1      22.996  49.069   2.080  1.00  0.00     0.084 C 
HETATM   39  C28 UNL     1      23.339  48.398   1.013  1.00  0.00    -0.082 C 
HETATM   40  C29 UNL     1      24.374  48.996   0.067  1.00  0.00     0.043 C 
HETATM   41  C30 UNL     1      22.824  47.078   0.601  1.00  0.00     0.043 C 
ENDBRANCH  36  38
ENDBRANCH  35  36
ENDBRANCH  34  35
ENDBRANCH  13  34
BRANCH  15  42
HETATM   42  C33 UNL     1      17.120  48.589   2.978  1.00  0.00     0.126 C 
BRANCH  42  43
HETATM   43  C34 UNL     1      16.902  49.970   3.441  1.00  0.00     0.259 C 
HETATM   44  O6  UNL     1      15.828  50.580   3.419  1.00  0.00    -0.265 OA
BRANCH  43  45
HETATM   45  O7  UNL     1      18.008  50.665   3.956  1.00  0.00    -0.326 OA
HETATM   46  C35 UNL     1      18.810  50.075   4.958  1.00  0.00     0.213 C 
ENDBRANCH  43  45
ENDBRANCH  42  43
ENDBRANCH  15  42
TORSDOF 17
ENDMDL
MODEL 3
REMARK VINA RESULT: -6.665399508      1.381      2.671
REMARK  17 active torsions:
REMARK  status: ('A' for Active; 'I' for Inactive)
REMARK    1  A    between atoms: C11_11  and  O1_12 
REMARK    2  A    between atoms: C12_14  and  O2_15 
REMARK    3  A    between atoms: O2_15  and  C13_16 
REMARK    4  A    between atoms: C13_16  and  C14_21 
REMARK    5  A    between atoms: N1_17  and  O3_19 
REMARK    6  A    between atoms: C14_21  and  C15_22 
REMARK    7  A    between atoms: C14_21  and  C19_26 
REMARK    8  A    between atoms: C15_22  and  C16_23 
REMARK    9  A    between atoms: C16_23  and  C17_24 
REMARK   10  A    between atoms: C19_26  and  C20_27 
REMARK   11  A    between atoms: C23_30  and  C25_32 
REMARK   12  A    between atoms: C25_32  and  O4_33 
REMARK   13  A    between atoms: O4_33  and  C26_34 
REMARK   14  A    between atoms: C26_34  and  C27_36 
REMARK   15  A    between atoms: C31_40  and  C33_42 
REMARK   16  A    between atoms: C33_42  and  C34_43 
REMARK   17  A    between atoms: C34_43  and  O7_45 
ROOT
HETATM    1  C1  UNL     1      19.871  48.205  -2.700  1.00  0.00     0.015 C 
HETATM    2  C2  UNL     1      19.594  46.992  -2.330  1.00  0.00    -0.079 C 
HETATM    3  C3  UNL     1      19.832  45.937  -3.358  1.00  0.00     0.035 C 
HETATM    4  C4  UNL     1      18.709  46.002  -4.339  1.00  0.00     0.021 C 
HETATM    5  C5  UNL     1      17.331  45.754  -3.764  1.00  0.00     0.009 C 
HETATM    6  C6  UNL     1      16.554  47.045  -4.115  1.00  0.00     0.023 C 
HETATM    7  C7  UNL     1      17.378  45.457  -2.328  1.00  0.00    -0.061 C 
HETATM    8  C8  UNL     1      17.273  44.175  -1.924  1.00  0.00    -0.015 C 
HETATM    9  C9  UNL     1      17.112  43.014  -2.829  1.00  0.00     0.035 C 
HETATM   10  C10 UNL     1      18.384  42.337  -3.194  1.00  0.00     0.017 C 
HETATM   11  C11 UNL     1      16.250  43.456  -3.961  1.00  0.00     0.156 C 
HETATM   12  C12 UNL     1      16.615  44.716  -4.629  1.00  0.00     0.172 C 
HETATM   13  C23 UNL     1      17.567  46.290  -1.097  1.00  0.00     0.014 C 
HETATM   14  C24 UNL     1      16.806  47.579  -1.209  1.00  0.00     0.023 C 
HETATM   15  C31 UNL     1      19.070  46.661  -0.975  1.00  0.00     0.001 C 
HETATM   16  C32 UNL     1      19.895  45.512  -0.459  1.00  0.00     0.021 C 
ENDROOT
BRANCH  12  17
HETATM   17  O2  UNL     1      17.308  44.489  -5.823  1.00  0.00    -0.328 OA
BRANCH  17  18
HETATM   18  C13 UNL     1      16.816  43.997  -7.020  1.00  0.00     0.142 C 
HETATM   19  N1  UNL     1      15.604  44.415  -7.295  1.00  0.00    -0.251 N 
ATOM     20  H1  UNL     1      15.165  45.039  -6.618  1.00  0.00     0.196 HD
BRANCH  19  21
HETATM   21  O3  UNL     1      14.887  44.097  -8.387  1.00  0.00    -0.288 OA
ATOM     22  H3  UNL     1      14.485  44.712  -8.989  1.00  0.00     0.244 HD
ENDBRANCH  19  21
BRANCH  18  23
HETATM   23  C14 UNL     1      17.567  43.102  -7.904  1.00  0.00     0.062 C 
BRANCH  23  24
HETATM   24  C15 UNL     1      19.042  43.378  -7.711  1.00  0.00     0.013 C 
BRANCH  24  25
HETATM   25  C16 UNL     1      19.859  42.155  -7.482  1.00  0.00     0.000 C 
BRANCH  25  26
HETATM   26  C17 UNL     1      20.632  42.118  -6.210  1.00  0.00    -0.005 C 
HETATM   27  C18 UNL     1      20.995  43.545  -5.840  1.00  0.00     0.005 C 
ENDBRANCH  25  26
ENDBRANCH  24  25
ENDBRANCH  23  24
BRANCH  23  28
HETATM   28  C19 UNL     1      17.220  41.671  -7.794  1.00  0.00     0.016 C 
BRANCH  28  29
HETATM   29  C20 UNL     1      16.707  41.099  -9.069  1.00  0.00    -0.022 C 
HETATM   30  C21 UNL     1      17.564  39.877  -9.387  1.00  0.00     0.009 C 
HETATM   31  C22 UNL     1      16.879  42.039 -10.245  1.00  0.00     0.009 C 
ENDBRANCH  28  29
ENDBRANCH  23  28
ENDBRANCH  18  23
ENDBRANCH  17  18
ENDBRANCH  12  17
BRANCH  11  32
HETATM   32  O1  UNL     1      14.936  43.597  -3.413  1.00  0.00    -0.392 OA
ATOM     33  H1  UNL     1      14.341  43.496  -4.146  1.00  0.00     0.210 HD
ENDBRANCH  11  32
BRANCH  13  34
HETATM   34  C25 UNL     1      17.206  45.653   0.179  1.00  0.00     0.194 C 
BRANCH  34  35
HETATM   35  O4  UNL     1      16.482  46.263   1.152  1.00  0.00    -0.317 OA
BRANCH  35  36
HETATM   36  C26 UNL     1      16.591  46.726   2.398  1.00  0.00     0.283 C 
HETATM   37  O5  UNL     1      17.515  46.291   3.122  1.00  0.00    -0.260 OA
BRANCH  36  38
HETATM   38  C27 UNL     1      15.666  47.735   2.964  1.00  0.00     0.084 C 
HETATM   39  C28 UNL     1      15.915  49.006   2.794  1.00  0.00    -0.082 C 
HETATM   40  C29 UNL     1      14.954  50.031   3.383  1.00  0.00     0.043 C 
HETATM   41  C30 UNL     1      17.063  49.587   2.072  1.00  0.00     0.043 C 
ENDBRANCH  36  38
ENDBRANCH  35  36
ENDBRANCH  34  35
ENDBRANCH  13  34
BRANCH  15  42
HETATM   42  C33 UNL     1      19.306  47.818  -0.068  1.00  0.00     0.126 C 
BRANCH  42  43
HETATM   43  C34 UNL     1      20.391  47.663   0.916  1.00  0.00     0.259 C 
HETATM   44  O6  UNL     1      20.249  47.430   2.120  1.00  0.00    -0.265 OA
BRANCH  43  45
HETATM   45  O7  UNL     1      21.711  47.788   0.452  1.00  0.00    -0.326 OA
HETATM   46  C35 UNL     1      22.741  48.164   1.343  1.00  0.00     0.213 C 
ENDBRANCH  43  45
ENDBRANCH  42  43
ENDBRANCH  15  42
TORSDOF 17
ENDMDL
MODEL 4
REMARK VINA RESULT: -6.483345386      1.199      1.721
REMARK  17 active torsions:
REMARK  status: ('A' for Active; 'I' for Inactive)
REMARK    1  A    between atoms: C11_11  and  O1_12 
REMARK    2  A    between atoms: C12_14  and  O2_15 
REMARK    3  A    between atoms: O2_15  and  C13_16 
REMARK    4  A    between atoms: C13_16  and  C14_21 
REMARK    5  A    between atoms: N1_17  and  O3_19 
REMARK    6  A    between atoms: C14_21  and  C15_22 
REMARK    7  A    between atoms: C14_21  and  C19_26 
REMARK    8  A    between atoms: C15_22  and  C16_23 
REMARK    9  A    between atoms: C16_23  and  C17_24 
REMARK   10  A    between atoms: C19_26  and  C20_27 
REMARK   11  A    between atoms: C23_30  and  C25_32 
REMARK   12  A    between atoms: C25_32  and  O4_33 
REMARK   13  A    between atoms: O4_33  and  C26_34 
REMARK   14  A    between atoms: C26_34  and  C27_36 
REMARK   15  A    between atoms: C31_40  and  C33_42 
REMARK   16  A    between atoms: C33_42  and  C34_43 
REMARK   17  A    between atoms: C34_43  and  O7_45 
ROOT
HETATM    1  C1  UNL     1      19.509  48.301  -2.707  1.00  0.00     0.015 C 
HETATM    2  C2  UNL     1      19.295  47.064  -2.376  1.00  0.00    -0.079 C 
HETATM    3  C3  UNL     1      19.611  46.054  -3.428  1.00  0.00     0.035 C 
HETATM    4  C4  UNL     1      18.504  46.083  -4.429  1.00  0.00     0.021 C 
HETATM    5  C5  UNL     1      17.132  45.741  -3.888  1.00  0.00     0.009 C 
HETATM    6  C6  UNL     1      16.289  46.996  -4.218  1.00  0.00     0.023 C 
HETATM    7  C7  UNL     1      17.171  45.406  -2.460  1.00  0.00    -0.061 C 
HETATM    8  C8  UNL     1      17.132  44.110  -2.094  1.00  0.00    -0.015 C 
HETATM    9  C9  UNL     1      17.054  42.967  -3.034  1.00  0.00     0.035 C 
HETATM   10  C10 UNL     1      18.369  42.375  -3.393  1.00  0.00     0.017 C 
HETATM   11  C11 UNL     1      16.189  43.393  -4.170  1.00  0.00     0.156 C 
HETATM   12  C12 UNL     1      16.492  44.690  -4.795  1.00  0.00     0.172 C 
HETATM   13  C23 UNL     1      17.290  46.213  -1.203  1.00  0.00     0.014 C 
HETATM   14  C24 UNL     1      16.459  47.459  -1.293  1.00  0.00     0.023 C 
HETATM   15  C31 UNL     1      18.767  46.665  -1.042  1.00  0.00     0.001 C 
HETATM   16  C32 UNL     1      19.647  45.550  -0.542  1.00  0.00     0.021 C 
ENDROOT
BRANCH  12  17
HETATM   17  O2  UNL     1      17.218  44.538  -5.982  1.00  0.00    -0.328 OA
BRANCH  17  18
HETATM   18  C13 UNL     1      16.801  43.976  -7.177  1.00  0.00     0.142 C 
HETATM   19  N1  UNL     1      15.617  44.390  -7.559  1.00  0.00    -0.251 N 
ATOM     20  H1  UNL     1      15.143  45.060  -6.954  1.00  0.00     0.196 HD
BRANCH  19  21
HETATM   21  O3  UNL     1      14.971  44.012  -8.676  1.00  0.00    -0.288 OA
ATOM     22  H3  UNL     1      14.237  43.410  -8.719  1.00  0.00     0.244 HD
ENDBRANCH  19  21
BRANCH  18  23
HETATM   23  C14 UNL     1      17.596  43.018  -7.949  1.00  0.00     0.062 C 
BRANCH  23  24
HETATM   24  C15 UNL     1      19.059  43.306  -7.692  1.00  0.00     0.013 C 
BRANCH  24  25
HETATM   25  C16 UNL     1      19.872  42.090  -7.417  1.00  0.00     0.000 C 
BRANCH  25  26
HETATM   26  C17 UNL     1      20.712  42.135  -6.187  1.00  0.00    -0.005 C 
HETATM   27  C18 UNL     1      20.964  43.592  -5.844  1.00  0.00     0.005 C 
ENDBRANCH  25  26
ENDBRANCH  24  25
ENDBRANCH  23  24
BRANCH  23  28
HETATM   28  C19 UNL     1      17.235  41.600  -7.756  1.00  0.00     0.016 C 
BRANCH  28  29
HETATM   29  C20 UNL     1      16.747  40.951  -9.005  1.00  0.00    -0.022 C 
HETATM   30  C21 UNL     1      15.464  40.205  -8.648  1.00  0.00     0.009 C 
HETATM   31  C22 UNL     1      17.702  39.899  -9.531  1.00  0.00     0.009 C 
ENDBRANCH  28  29
ENDBRANCH  23  28
ENDBRANCH  18  23
ENDBRANCH  17  18
ENDBRANCH  12  17
BRANCH  11  32
HETATM   32  O1  UNL     1      14.859  43.443  -3.643  1.00  0.00    -0.392 OA
ATOM     33  H1  UNL     1      14.539  44.316  -3.839  1.00  0.00     0.210 HD
ENDBRANCH  11  32
BRANCH  13  34
HETATM   34  C25 UNL     1      16.943  45.519   0.048  1.00  0.00     0.194 C 
BRANCH  34  35
HETATM   35  O4  UNL     1      15.738  45.626   0.663  1.00  0.00    -0.317 OA
BRANCH  35  36
HETATM   36  C26 UNL     1      14.505  45.118   0.635  1.00  0.00     0.283 C 
HETATM   37  O5  UNL     1      13.943  44.845   1.720  1.00  0.00    -0.260 OA
BRANCH  36  38
HETATM   38  C27 UNL     1      13.770  44.861  -0.625  1.00  0.00     0.084 C 
HETATM   39  C28 UNL     1      13.053  45.813  -1.158  1.00  0.00    -0.082 C 
HETATM   40  C29 UNL     1      12.302  45.532  -2.455  1.00  0.00     0.043 C 
HETATM   41  C30 UNL     1      12.874  47.179  -0.631  1.00  0.00     0.043 C 
ENDBRANCH  36  38
ENDBRANCH  35  36
ENDBRANCH  34  35
ENDBRANCH  13  34
BRANCH  15  42
HETATM   42  C33 UNL     1      18.920  47.807  -0.098  1.00  0.00     0.126 C 
BRANCH  42  43
HETATM   43  C34 UNL     1      19.880  47.616   1.002  1.00  0.00     0.259 C 
HETATM   44  O6  UNL     1      19.598  47.298   2.162  1.00  0.00    -0.265 OA
BRANCH  43  45
HETATM   45  O7  UNL     1      21.242  47.812   0.718  1.00  0.00    -0.326 OA
HETATM   46  C35 UNL     1      22.131  48.197   1.746  1.00  0.00     0.213 C 
ENDBRANCH  43  45
ENDBRANCH  42  43
ENDBRANCH  15  42
TORSDOF 17
ENDMDL
MODEL 5
REMARK VINA RESULT: -6.386910122      1.562      2.303
REMARK  17 active torsions:
REMARK  status: ('A' for Active; 'I' for Inactive)
REMARK    1  A    between atoms: C11_11  and  O1_12 
REMARK    2  A    between atoms: C12_14  and  O2_15 
REMARK    3  A    between atoms: O2_15  and  C13_16 
REMARK    4  A    between atoms: C13_16  and  C14_21 
REMARK    5  A    between atoms: N1_17  and  O3_19 
REMARK    6  A    between atoms: C14_21  and  C15_22 
REMARK    7  A    between atoms: C14_21  and  C19_26 
REMARK    8  A    between atoms: C15_22  and  C16_23 
REMARK    9  A    between atoms: C16_23  and  C17_24 
REMARK   10  A    between atoms: C19_26  and  C20_27 
REMARK   11  A    between atoms: C23_30  and  C25_32 
REMARK   12  A    between atoms: C25_32  and  O4_33 
REMARK   13  A    between atoms: O4_33  and  C26_34 
REMARK   14  A    between atoms: C26_34  and  C27_36 
REMARK   15  A    between atoms: C31_40  and  C33_42 
REMARK   16  A    between atoms: C33_42  and  C34_43 
REMARK   17  A    between atoms: C34_43  and  O7_45 
ROOT
HETATM    1  C1  UNL     1      20.243  47.767  -2.232  1.00  0.00     0.015 C 
HETATM    2  C2  UNL     1      19.620  46.711  -1.805  1.00  0.00    -0.079 C 
HETATM    3  C3  UNL     1      19.792  45.484  -2.636  1.00  0.00     0.035 C 
HETATM    4  C4  UNL     1      18.925  45.631  -3.841  1.00  0.00     0.021 C 
HETATM    5  C5  UNL     1      17.444  45.770  -3.562  1.00  0.00     0.009 C 
HETATM    6  C6  UNL     1      17.078  47.125  -4.211  1.00  0.00     0.023 C 
HETATM    7  C7  UNL     1      17.144  45.694  -2.127  1.00  0.00    -0.061 C 
HETATM    8  C8  UNL     1      16.663  44.541  -1.622  1.00  0.00    -0.015 C 
HETATM    9  C9  UNL     1      16.406  43.314  -2.410  1.00  0.00     0.035 C 
HETATM   10  C10 UNL     1      17.527  42.337  -2.412  1.00  0.00     0.017 C 
HETATM   11  C11 UNL     1      15.906  43.748  -3.745  1.00  0.00     0.156 C 
HETATM   12  C12 UNL     1      16.680  44.785  -4.447  1.00  0.00     0.172 C 
HETATM   13  C23 UNL     1      17.288  46.649  -0.981  1.00  0.00     0.014 C 
HETATM   14  C24 UNL     1      16.891  48.036  -1.395  1.00  0.00     0.023 C 
HETATM   15  C31 UNL     1      18.785  46.710  -0.571  1.00  0.00     0.001 C 
HETATM   16  C32 UNL     1      19.200  45.507   0.234  1.00  0.00     0.021 C 
ENDROOT
BRANCH  12  17
HETATM   17  O2  UNL     1      17.513  44.237  -5.428  1.00  0.00    -0.328 OA
BRANCH  17  18
HETATM   18  C13 UNL     1      17.211  43.952  -6.749  1.00  0.00     0.142 C 
HETATM   19  N1  UNL     1      16.001  44.317  -7.095  1.00  0.00    -0.251 N 
ATOM     20  H1  UNL     1      15.427  44.758  -6.376  1.00  0.00     0.196 HD
BRANCH  19  21
HETATM   21  O3  UNL     1      15.446  44.165  -8.310  1.00  0.00    -0.288 OA
ATOM     22  H3  UNL     1      14.529  43.988  -8.487  1.00  0.00     0.244 HD
ENDBRANCH  19  21
BRANCH  18  23
HETATM   23  C14 UNL     1      18.145  43.312  -7.679  1.00  0.00     0.062 C 
BRANCH  23  24
HETATM   24  C15 UNL     1      19.540  43.797  -7.354  1.00  0.00     0.013 C 
BRANCH  24  25
HETATM   25  C16 UNL     1      20.431  42.741  -6.800  1.00  0.00     0.000 C 
BRANCH  25  26
HETATM   26  C17 UNL     1      20.562  42.713  -5.317  1.00  0.00    -0.005 C 
HETATM   27  C18 UNL     1      20.037  41.376  -4.825  1.00  0.00     0.005 C 
ENDBRANCH  25  26
ENDBRANCH  24  25
ENDBRANCH  23  24
BRANCH  23  28
HETATM   28  C19 UNL     1      18.040  41.842  -7.764  1.00  0.00     0.016 C 
BRANCH  28  29
HETATM   29  C20 UNL     1      17.907  41.349  -9.163  1.00  0.00    -0.022 C 
HETATM   30  C21 UNL     1      16.530  40.701  -9.278  1.00  0.00     0.009 C 
HETATM   31  C22 UNL     1      18.904  40.259  -9.500  1.00  0.00     0.009 C 
ENDBRANCH  28  29
ENDBRANCH  23  28
ENDBRANCH  18  23
ENDBRANCH  17  18
ENDBRANCH  12  17
BRANCH  11  32
HETATM   32  O1  UNL     1      14.584  44.244  -3.518  1.00  0.00    -0.392 OA
ATOM     33  H1  UNL     1      14.634  45.182  -3.662  1.00  0.00     0.210 HD
ENDBRANCH  11  32
BRANCH  13  34
HETATM   34  C25 UNL     1      16.550  46.306   0.245  1.00  0.00     0.194 C 
BRANCH  34  35
HETATM   35  O4  UNL     1      15.353  46.848   0.584  1.00  0.00    -0.317 OA
BRANCH  35  36
HETATM   36  C26 UNL     1      14.047  46.727   0.340  1.00  0.00     0.283 C 
HETATM   37  O5  UNL     1      13.244  46.848   1.292  1.00  0.00    -0.260 OA
BRANCH  36  38
HETATM   38  C27 UNL     1      13.504  46.454  -1.011  1.00  0.00     0.084 C 
HETATM   39  C28 UNL     1      13.211  47.451  -1.802  1.00  0.00    -0.082 C 
HETATM   40  C29 UNL     1      12.653  47.153  -3.189  1.00  0.00     0.043 C 
HETATM   41  C30 UNL     1      13.359  48.887  -1.498  1.00  0.00     0.043 C 
ENDBRANCH  36  38
ENDBRANCH  35  36
ENDBRANCH  34  35
ENDBRANCH  13  34
BRANCH  15  42
HETATM   42  C33 UNL     1      19.112  47.918   0.237  1.00  0.00     0.126 C 
BRANCH  42  43
HETATM   43  C34 UNL     1      20.082  47.726   1.328  1.00  0.00     0.259 C 
HETATM   44  O6  UNL     1      21.312  47.701   1.208  1.00  0.00    -0.265 OA
BRANCH  43  45
HETATM   45  O7  UNL     1      19.575  47.556   2.627  1.00  0.00    -0.326 OA
HETATM   46  C35 UNL     1      18.701  48.519   3.177  1.00  0.00     0.213 C 
ENDBRANCH  43  45
ENDBRANCH  42  43
ENDBRANCH  15  42
TORSDOF 17
ENDMDL
