MODEL 1
REMARK VINA RESULT: -8.704276273      0.000      0.000
REMARK  14 active torsions:
REMARK  status: ('A' for Active; 'I' for Inactive)
REMARK    1  A    between atoms: O1_2  and  C2_3 
REMARK    2  A    between atoms: C4_5  and  C5_6 
REMARK    3  A    between atoms: C5_6  and  C23_27 
REMARK    4  A    between atoms: C6_7  and  C7_8 
REMARK    5  A    between atoms: C7_8  and  C8_9 
REMARK    6  A    between atoms: C12_14  and  C13_15 
REMARK    7  A    between atoms: C13_15  and  C14_17 
REMARK    8  A    between atoms: C15_18  and  C16_19 
REMARK    9  A    between atoms: C21_24  and  O3_25 
REMARK   10  A    between atoms: C23_27  and  C24_28 
REMARK   11  A    between atoms: C24_28  and  C25_29 
REMARK   12  A    between atoms: C31_35  and  O4_36 
REMARK   13  A    between atoms: C33_39  and  C34_40 
REMARK   14  A    between atoms: C34_40  and  O5_41 
ROOT
HETATM    1  C8  UNL     1      21.201  47.530   0.990  1.00  0.00    -0.001 A 
HETATM    2  C9  UNL     1      20.348  47.787   2.015  1.00  0.00     0.054 A 
HETATM    3  C10 UNL     1      18.979  47.396   1.912  1.00  0.00     0.100 C 
HETATM    4  N1  UNL     1      17.873  47.098   1.810  1.00  0.00    -0.191 NA
HETATM    5  C11 UNL     1      20.728  48.510   3.147  1.00  0.00     0.039 A 
HETATM    6  C12 UNL     1      21.992  49.008   3.296  1.00  0.00     0.018 A 
HETATM    7  C20 UNL     1      22.876  48.760   2.263  1.00  0.00     0.053 A 
HETATM    8  C21 UNL     1      22.495  48.048   1.154  1.00  0.00     0.077 A 
ENDROOT
BRANCH   1   9
HETATM    9  C7  UNL     1      20.970  46.690  -0.193  1.00  0.00     0.070 C 
BRANCH   9  10
HETATM   10  C6  UNL     1      20.522  47.353  -1.407  1.00  0.00    -0.014 C 
HETATM   11  C5  UNL     1      19.638  46.955  -2.251  1.00  0.00    -0.048 C 
BRANCH  11  12
HETATM   12  C4  UNL     1      18.873  45.683  -2.162  1.00  0.00     0.007 A 
HETATM   13  C3  UNL     1      17.987  45.534  -1.099  1.00  0.00     0.054 A 
HETATM   14  C2  UNL     1      17.221  44.402  -1.006  1.00  0.00     0.102 A 
HETATM   15  C31 UNL     1      17.384  43.451  -2.011  1.00  0.00     0.108 A 
HETATM   16  C30 UNL     1      18.258  43.601  -3.062  1.00  0.00     0.015 A 
HETATM   17  C29 UNL     1      19.029  44.744  -3.149  1.00  0.00     0.089 A 
HETATM   18  C32 UNL     1      18.606  42.759  -4.229  1.00  0.00     0.082 C 
HETATM   19  O7  UNL     1      19.829  44.650  -4.311  1.00  0.00    -0.339 OA
HETATM   20  C33 UNL     1      19.124  43.822  -5.198  1.00  0.00     0.198 C 
BRANCH  14  21
HETATM   21  O1  UNL     1      16.299  44.162   0.029  1.00  0.00    -0.353 OA
HETATM   22  C1  UNL     1      15.222  45.068   0.120  1.00  0.00     0.210 C 
ENDBRANCH  14  21
BRANCH  15  23
HETATM   23  O4  UNL     1      16.590  42.290  -1.902  1.00  0.00    -0.357 OA
ATOM     24  H4  UNL     1      15.664  42.432  -1.741  1.00  0.00     0.217 HD
ENDBRANCH  15  23
BRANCH  20  25
HETATM   25  C34 UNL     1      19.989  43.196  -6.268  1.00  0.00     0.211 A 
HETATM   26  C35 UNL     1      19.541  43.605  -7.677  1.00  0.00     0.242 A 
HETATM   27  O6  UNL     1      19.376  42.326  -7.149  1.00  0.00    -0.346 OA
BRANCH  25  28
HETATM   28  O5  UNL     1      21.353  43.232  -6.116  1.00  0.00    -0.362 OA
ATOM     29  H5  UNL     1      21.819  42.413  -6.001  1.00  0.00     0.213 HD
ENDBRANCH  25  28
ENDBRANCH  20  25
ENDBRANCH  11  12
BRANCH  11  30
HETATM   30  C23 UNL     1      19.173  47.794  -3.416  1.00  0.00     0.043 C 
BRANCH  30  31
HETATM   31  C24 UNL     1      17.815  48.379  -3.283  1.00  0.00     0.032 C 
BRANCH  31  32
HETATM   32  C25 UNL     1      17.886  49.837  -3.116  1.00  0.00    -0.024 C 
HETATM   33  C26 UNL     1      17.754  50.438  -1.951  1.00  0.00    -0.091 C 
HETATM   34  C27 UNL     1      17.842  51.949  -1.876  1.00  0.00     0.042 C 
HETATM   35  C28 UNL     1      17.529  49.707  -0.696  1.00  0.00     0.042 C 
ENDBRANCH  31  32
ENDBRANCH  30  31
ENDBRANCH  11  30
ENDBRANCH   9  10
ENDBRANCH   1   9
BRANCH   8  36
HETATM   36  O3  UNL     1      23.445  47.850   0.174  1.00  0.00    -0.355 OA
HETATM   37  C22 UNL     1      24.390  48.837  -0.178  1.00  0.00     0.210 C 
ENDBRANCH   8  36
BRANCH   6  38
HETATM   38  C13 UNL     1      22.419  49.796   4.443  1.00  0.00     0.182 C 
HETATM   39  O2  UNL     1      22.900  49.150   5.407  1.00  0.00    -0.288 OA
BRANCH  38  40
HETATM   40  C14 UNL     1      22.292  51.226   4.464  1.00  0.00     0.055 C 
HETATM   41  C15 UNL     1      23.146  52.120   4.068  1.00  0.00     0.004 C 
BRANCH  41  42
HETATM   42  C16 UNL     1      24.440  51.875   3.513  1.00  0.00     0.002 C 
HETATM   43  C17 UNL     1      25.170  52.908   3.045  1.00  0.00    -0.088 C 
HETATM   44  C18 UNL     1      26.511  52.702   2.465  1.00  0.00     0.043 C 
HETATM   45  C19 UNL     1      24.594  54.292   3.109  1.00  0.00     0.043 C 
ENDBRANCH  41  42
ENDBRANCH  38  40
ENDBRANCH   6  38
TORSDOF 14
ENDMDL
MODEL 2
REMARK VINA RESULT: -8.529280494      4.536      8.780
REMARK  14 active torsions:
REMARK  status: ('A' for Active; 'I' for Inactive)
REMARK    1  A    between atoms: O1_2  and  C2_3 
REMARK    2  A    between atoms: C4_5  and  C5_6 
REMARK    3  A    between atoms: C5_6  and  C23_27 
REMARK    4  A    between atoms: C6_7  and  C7_8 
REMARK    5  A    between atoms: C7_8  and  C8_9 
REMARK    6  A    between atoms: C12_14  and  C13_15 
REMARK    7  A    between atoms: C13_15  and  C14_17 
REMARK    8  A    between atoms: C15_18  and  C16_19 
REMARK    9  A    between atoms: C21_24  and  O3_25 
REMARK   10  A    between atoms: C23_27  and  C24_28 
REMARK   11  A    between atoms: C24_28  and  C25_29 
REMARK   12  A    between atoms: C31_35  and  O4_36 
REMARK   13  A    between atoms: C33_39  and  C34_40 
REMARK   14  A    between atoms: C34_40  and  O5_41 
ROOT
HETATM    1  C8  UNL     1      24.634  50.588   2.228  1.00  0.00    -0.001 A 
HETATM    2  C9  UNL     1      24.410  49.663   1.259  1.00  0.00     0.054 A 
HETATM    3  C10 UNL     1      23.295  48.779   1.371  1.00  0.00     0.100 C 
HETATM    4  N1  UNL     1      22.407  48.056   1.481  1.00  0.00    -0.191 NA
HETATM    5  C11 UNL     1      25.283  49.467   0.188  1.00  0.00     0.039 A 
HETATM    6  C12 UNL     1      26.428  50.200   0.046  1.00  0.00     0.018 A 
HETATM    7  C20 UNL     1      26.677  51.147   1.022  1.00  0.00     0.053 A 
HETATM    8  C21 UNL     1      25.813  51.333   2.071  1.00  0.00     0.077 A 
ENDROOT
BRANCH   1   9
HETATM    9  C7  UNL     1      23.750  50.977   3.334  1.00  0.00     0.070 C 
BRANCH   9  10
HETATM   10  C6  UNL     1      23.499  49.988   4.370  1.00  0.00    -0.014 C 
HETATM   11  C5  UNL     1      22.386  49.703   4.946  1.00  0.00    -0.048 C 
BRANCH  11  12
HETATM   12  C4  UNL     1      21.081  50.358   4.670  1.00  0.00     0.007 A 
HETATM   13  C3  UNL     1      20.943  51.699   5.018  1.00  0.00     0.054 A 
HETATM   14  C2  UNL     1      19.777  52.359   4.733  1.00  0.00     0.102 A 
HETATM   15  C31 UNL     1      18.781  51.623   4.095  1.00  0.00     0.108 A 
HETATM   16  C30 UNL     1      18.919  50.300   3.750  1.00  0.00     0.015 A 
HETATM   17  C29 UNL     1      20.097  49.640   4.041  1.00  0.00     0.089 A 
HETATM   18  C32 UNL     1      18.033  49.321   3.081  1.00  0.00     0.082 C 
HETATM   19  O7  UNL     1      19.982  48.307   3.583  1.00  0.00    -0.339 OA
HETATM   20  C33 UNL     1      19.066  48.343   2.521  1.00  0.00     0.198 C 
BRANCH  14  21
HETATM   21  O1  UNL     1      19.545  53.712   5.045  1.00  0.00    -0.353 OA
HETATM   22  C1  UNL     1      20.383  54.646   4.402  1.00  0.00     0.210 C 
ENDBRANCH  14  21
BRANCH  15  23
HETATM   23  O4  UNL     1      17.585  52.316   3.809  1.00  0.00    -0.357 OA
ATOM     24  H4  UNL     1      16.972  51.871   3.236  1.00  0.00     0.217 HD
ENDBRANCH  15  23
BRANCH  20  25
HETATM   25  C34 UNL     1      18.429  47.007   2.216  1.00  0.00     0.211 A 
HETATM   26  C35 UNL     1      19.296  46.161   1.274  1.00  0.00     0.242 A 
HETATM   27  O6  UNL     1      18.091  46.751   0.902  1.00  0.00    -0.346 OA
BRANCH  25  28
HETATM   28  O5  UNL     1      17.908  46.275   3.254  1.00  0.00    -0.362 OA
ATOM     29  H5  UNL     1      18.016  45.331   3.244  1.00  0.00     0.213 HD
ENDBRANCH  25  28
ENDBRANCH  20  25
ENDBRANCH  11  12
BRANCH  11  30
HETATM   30  C23 UNL     1      22.233  48.567   5.928  1.00  0.00     0.043 C 
BRANCH  30  31
HETATM   31  C24 UNL     1      22.786  48.814   7.284  1.00  0.00     0.032 C 
BRANCH  31  32
HETATM   32  C25 UNL     1      21.885  49.667   8.071  1.00  0.00    -0.024 C 
HETATM   33  C26 UNL     1      22.191  50.895   8.439  1.00  0.00    -0.091 C 
HETATM   34  C27 UNL     1      21.196  51.702   9.250  1.00  0.00     0.042 C 
HETATM   35  C28 UNL     1      23.467  51.537   8.093  1.00  0.00     0.042 C 
ENDBRANCH  31  32
ENDBRANCH  30  31
ENDBRANCH  11  30
ENDBRANCH   9  10
ENDBRANCH   1   9
BRANCH   8  36
HETATM   36  O3  UNL     1      26.145  52.300   2.996  1.00  0.00    -0.355 OA
HETATM   37  C22 UNL     1      26.923  52.023   4.140  1.00  0.00     0.210 C 
ENDBRANCH   8  36
BRANCH   6  38
HETATM   38  C13 UNL     1      27.382  50.005  -1.036  1.00  0.00     0.182 C 
HETATM   39  O2  UNL     1      27.026  50.418  -2.167  1.00  0.00    -0.288 OA
BRANCH  38  40
HETATM   40  C14 UNL     1      28.652  49.374  -0.815  1.00  0.00     0.055 C 
HETATM   41  C15 UNL     1      29.824  49.740  -1.238  1.00  0.00     0.004 C 
BRANCH  41  42
HETATM   42  C16 UNL     1      30.117  50.882  -2.047  1.00  0.00     0.002 C 
HETATM   43  C17 UNL     1      30.368  50.720  -3.362  1.00  0.00    -0.088 C 
HETATM   44  C18 UNL     1      30.674  51.870  -4.235  1.00  0.00     0.043 C 
HETATM   45  C19 UNL     1      30.345  49.335  -3.940  1.00  0.00     0.043 C 
ENDBRANCH  41  42
ENDBRANCH  38  40
ENDBRANCH   6  38
TORSDOF 14
ENDMDL
MODEL 3
REMARK VINA RESULT: -8.451323364      6.126     11.655
REMARK  14 active torsions:
REMARK  status: ('A' for Active; 'I' for Inactive)
REMARK    1  A    between atoms: O1_2  and  C2_3 
REMARK    2  A    between atoms: C4_5  and  C5_6 
REMARK    3  A    between atoms: C5_6  and  C23_27 
REMARK    4  A    between atoms: C6_7  and  C7_8 
REMARK    5  A    between atoms: C7_8  and  C8_9 
REMARK    6  A    between atoms: C12_14  and  C13_15 
REMARK    7  A    between atoms: C13_15  and  C14_17 
REMARK    8  A    between atoms: C15_18  and  C16_19 
REMARK    9  A    between atoms: C21_24  and  O3_25 
REMARK   10  A    between atoms: C23_27  and  C24_28 
REMARK   11  A    between atoms: C24_28  and  C25_29 
REMARK   12  A    between atoms: C31_35  and  O4_36 
REMARK   13  A    between atoms: C33_39  and  C34_40 
REMARK   14  A    between atoms: C34_40  and  O5_41 
ROOT
HETATM    1  C8  UNL     1      24.813  50.597   2.607  1.00  0.00    -0.001 A 
HETATM    2  C9  UNL     1      25.938  51.286   2.278  1.00  0.00     0.054 A 
HETATM    3  C10 UNL     1      26.409  52.322   3.139  1.00  0.00     0.100 C 
HETATM    4  N1  UNL     1      26.768  53.171   3.827  1.00  0.00    -0.191 NA
HETATM    5  C11 UNL     1      26.615  51.090   1.074  1.00  0.00     0.039 A 
HETATM    6  C12 UNL     1      26.186  50.187   0.142  1.00  0.00     0.018 A 
HETATM    7  C20 UNL     1      25.043  49.476   0.455  1.00  0.00     0.053 A 
HETATM    8  C21 UNL     1      24.383  49.674   1.642  1.00  0.00     0.077 A 
ENDROOT
BRANCH   1   9
HETATM    9  C7  UNL     1      24.076  50.618   3.877  1.00  0.00     0.070 C 
BRANCH   9  10
HETATM   10  C6  UNL     1      22.679  51.018   3.833  1.00  0.00    -0.014 C 
HETATM   11  C5  UNL     1      22.184  52.198   3.959  1.00  0.00    -0.048 C 
BRANCH  11  12
HETATM   12  C4  UNL     1      22.967  53.439   4.195  1.00  0.00     0.007 A 
HETATM   13  C3  UNL     1      23.176  54.289   3.112  1.00  0.00     0.054 A 
HETATM   14  C2  UNL     1      23.844  55.471   3.294  1.00  0.00     0.102 A 
HETATM   15  C31 UNL     1      24.281  55.751   4.587  1.00  0.00     0.108 A 
HETATM   16  C30 UNL     1      24.073  54.911   5.656  1.00  0.00     0.015 A 
HETATM   17  C29 UNL     1      23.399  53.721   5.466  1.00  0.00     0.089 A 
HETATM   18  C32 UNL     1      24.426  54.980   7.092  1.00  0.00     0.082 C 
HETATM   19  O7  UNL     1      23.317  53.055   6.711  1.00  0.00    -0.339 OA
HETATM   20  C33 UNL     1      23.360  54.061   7.688  1.00  0.00     0.198 C 
BRANCH  14  21
HETATM   21  O1  UNL     1      24.102  56.393   2.263  1.00  0.00    -0.353 OA
HETATM   22  C1  UNL     1      22.974  57.043   1.720  1.00  0.00     0.210 C 
ENDBRANCH  14  21
BRANCH  15  23
HETATM   23  O4  UNL     1      24.969  56.970   4.759  1.00  0.00    -0.357 OA
ATOM     24  H4  UNL     1      25.678  56.964   5.391  1.00  0.00     0.217 HD
ENDBRANCH  15  23
BRANCH  20  25
HETATM   25  C34 UNL     1      23.778  53.569   9.054  1.00  0.00     0.211 A 
HETATM   26  C35 UNL     1      22.974  54.239  10.175  1.00  0.00     0.242 A 
HETATM   27  O6  UNL     1      24.320  54.496   9.923  1.00  0.00    -0.346 OA
BRANCH  25  28
HETATM   28  O5  UNL     1      23.931  52.219   9.248  1.00  0.00    -0.362 OA
ATOM     29  H5  UNL     1      23.613  51.836  10.057  1.00  0.00     0.213 HD
ENDBRANCH  25  28
ENDBRANCH  20  25
ENDBRANCH  11  12
BRANCH  11  30
HETATM   30  C23 UNL     1      20.717  52.501   3.775  1.00  0.00     0.043 C 
BRANCH  30  31
HETATM   31  C24 UNL     1      19.789  51.722   4.633  1.00  0.00     0.032 C 
BRANCH  31  32
HETATM   32  C25 UNL     1      20.040  51.992   6.056  1.00  0.00    -0.024 C 
HETATM   33  C26 UNL     1      20.380  51.056   6.920  1.00  0.00    -0.091 C 
HETATM   34  C27 UNL     1      20.619  51.429   8.369  1.00  0.00     0.042 C 
HETATM   35  C28 UNL     1      20.549  49.645   6.543  1.00  0.00     0.042 C 
ENDBRANCH  31  32
ENDBRANCH  30  31
ENDBRANCH  11  30
ENDBRANCH   9  10
ENDBRANCH   1   9
BRANCH   8  36
HETATM   36  O3  UNL     1      23.251  48.920   1.867  1.00  0.00    -0.355 OA
HETATM   37  C22 UNL     1      22.835  47.893   0.993  1.00  0.00     0.210 C 
ENDBRANCH   8  36
BRANCH   6  38
HETATM   38  C13 UNL     1      26.843  49.976  -1.140  1.00  0.00     0.182 C 
HETATM   39  O2  UNL     1      26.580  50.812  -2.039  1.00  0.00    -0.288 OA
BRANCH  38  40
HETATM   40  C14 UNL     1      27.736  48.872  -1.356  1.00  0.00     0.055 C 
HETATM   41  C15 UNL     1      28.956  48.892  -1.797  1.00  0.00     0.004 C 
BRANCH  41  42
HETATM   42  C16 UNL     1      29.703  50.049  -2.183  1.00  0.00     0.002 C 
HETATM   43  C17 UNL     1      30.214  50.126  -3.428  1.00  0.00    -0.088 C 
HETATM   44  C18 UNL     1      30.990  51.301  -3.870  1.00  0.00     0.043 C 
HETATM   45  C19 UNL     1      29.995  48.983  -4.376  1.00  0.00     0.043 C 
ENDBRANCH  41  42
ENDBRANCH  38  40
ENDBRANCH   6  38
TORSDOF 14
ENDMDL
MODEL 4
REMARK VINA RESULT: -8.411441127      2.768      8.483
REMARK  14 active torsions:
REMARK  status: ('A' for Active; 'I' for Inactive)
REMARK    1  A    between atoms: O1_2  and  C2_3 
REMARK    2  A    between atoms: C4_5  and  C5_6 
REMARK    3  A    between atoms: C5_6  and  C23_27 
REMARK    4  A    between atoms: C6_7  and  C7_8 
REMARK    5  A    between atoms: C7_8  and  C8_9 
REMARK    6  A    between atoms: C12_14  and  C13_15 
REMARK    7  A    between atoms: C13_15  and  C14_17 
REMARK    8  A    between atoms: C15_18  and  C16_19 
REMARK    9  A    between atoms: C21_24  and  O3_25 
REMARK   10  A    between atoms: C23_27  and  C24_28 
REMARK   11  A    between atoms: C24_28  and  C25_29 
REMARK   12  A    between atoms: C31_35  and  O4_36 
REMARK   13  A    between atoms: C33_39  and  C34_40 
REMARK   14  A    between atoms: C34_40  and  O5_41 
ROOT
HETATM    1  C8  UNL     1      18.328  47.244  -3.673  1.00  0.00    -0.001 A 
HETATM    2  C9  UNL     1      16.985  47.436  -3.744  1.00  0.00     0.054 A 
HETATM    3  C10 UNL     1      16.382  48.495  -3.001  1.00  0.00     0.100 C 
HETATM    4  N1  UNL     1      15.901  49.335  -2.379  1.00  0.00    -0.191 NA
HETATM    5  C11 UNL     1      16.138  46.578  -4.447  1.00  0.00     0.039 A 
HETATM    6  C12 UNL     1      16.611  45.482  -5.113  1.00  0.00     0.018 A 
HETATM    7  C20 UNL     1      17.975  45.267  -5.053  1.00  0.00     0.053 A 
HETATM    8  C21 UNL     1      18.801  46.116  -4.360  1.00  0.00     0.077 A 
ENDROOT
BRANCH   1   9
HETATM    9  C7  UNL     1      19.340  48.125  -3.074  1.00  0.00     0.070 C 
BRANCH   9  10
HETATM   10  C6  UNL     1      20.237  47.541  -2.091  1.00  0.00    -0.014 C 
HETATM   11  C5  UNL     1      19.950  47.077  -0.927  1.00  0.00    -0.048 C 
BRANCH  11  12
HETATM   12  C4  UNL     1      18.592  47.051  -0.321  1.00  0.00     0.007 A 
HETATM   13  C3  UNL     1      18.170  48.183   0.370  1.00  0.00     0.054 A 
HETATM   14  C2  UNL     1      16.907  48.227   0.898  1.00  0.00     0.102 A 
HETATM   15  C31 UNL     1      16.107  47.103   0.701  1.00  0.00     0.108 A 
HETATM   16  C30 UNL     1      16.525  45.985   0.017  1.00  0.00     0.015 A 
HETATM   17  C29 UNL     1      17.800  45.948  -0.512  1.00  0.00     0.089 A 
HETATM   18  C32 UNL     1      15.881  44.696  -0.323  1.00  0.00     0.082 C 
HETATM   19  O7  UNL     1      17.973  44.704  -1.163  1.00  0.00    -0.339 OA
HETATM   20  C33 UNL     1      16.690  44.295  -1.557  1.00  0.00     0.198 C 
BRANCH  14  21
HETATM   21  O1  UNL     1      16.391  49.325   1.610  1.00  0.00    -0.353 OA
HETATM   22  C1  UNL     1      17.046  49.639   2.819  1.00  0.00     0.210 C 
ENDBRANCH  14  21
BRANCH  15  23
HETATM   23  O4  UNL     1      14.810  47.160   1.252  1.00  0.00    -0.357 OA
ATOM     24  H4  UNL     1      14.625  46.544   1.951  1.00  0.00     0.217 HD
ENDBRANCH  15  23
BRANCH  20  25
HETATM   25  C34 UNL     1      16.574  42.810  -1.814  1.00  0.00     0.211 A 
HETATM   26  C35 UNL     1      15.158  42.413  -2.249  1.00  0.00     0.242 A 
HETATM   27  O6  UNL     1      15.710  42.094  -1.010  1.00  0.00    -0.346 OA
BRANCH  25  28
HETATM   28  O5  UNL     1      17.548  42.194  -2.560  1.00  0.00    -0.362 OA
ATOM     29  H5  UNL     1      17.338  41.378  -2.997  1.00  0.00     0.213 HD
ENDBRANCH  25  28
ENDBRANCH  20  25
ENDBRANCH  11  12
BRANCH  11  30
HETATM   30  C23 UNL     1      20.958  46.385  -0.043  1.00  0.00     0.043 C 
BRANCH  30  31
HETATM   31  C24 UNL     1      22.326  46.962  -0.058  1.00  0.00     0.032 C 
BRANCH  31  32
HETATM   32  C25 UNL     1      22.557  47.797   1.128  1.00  0.00    -0.024 C 
HETATM   33  C26 UNL     1      23.498  48.717   1.191  1.00  0.00    -0.091 C 
HETATM   34  C27 UNL     1      23.661  49.533   2.459  1.00  0.00     0.042 C 
HETATM   35  C28 UNL     1      24.410  49.005   0.075  1.00  0.00     0.042 C 
ENDBRANCH  31  32
ENDBRANCH  30  31
ENDBRANCH  11  30
ENDBRANCH   9  10
ENDBRANCH   1   9
BRANCH   8  36
HETATM   36  O3  UNL     1      20.147  45.820  -4.355  1.00  0.00    -0.355 OA
HETATM   37  C22 UNL     1      20.645  44.546  -4.010  1.00  0.00     0.210 C 
ENDBRANCH   8  36
BRANCH   6  38
HETATM   38  C13 UNL     1      15.759  44.543  -5.829  1.00  0.00     0.182 C 
HETATM   39  O2  UNL     1      14.964  45.044  -6.662  1.00  0.00    -0.288 OA
BRANCH  38  40
HETATM   40  C14 UNL     1      15.828  43.130  -5.588  1.00  0.00     0.055 C 
HETATM   41  C15 UNL     1      16.580  42.245  -6.170  1.00  0.00     0.004 C 
BRANCH  41  42
HETATM   42  C16 UNL     1      17.527  42.486  -7.212  1.00  0.00     0.002 C 
HETATM   43  C17 UNL     1      18.836  42.247  -6.991  1.00  0.00    -0.088 C 
HETATM   44  C18 UNL     1      19.849  42.480  -8.038  1.00  0.00     0.043 C 
HETATM   45  C19 UNL     1      19.265  41.745  -5.643  1.00  0.00     0.043 C 
ENDBRANCH  41  42
ENDBRANCH  38  40
ENDBRANCH   6  38
TORSDOF 14
ENDMDL
MODEL 5
REMARK VINA RESULT: -8.390362806      1.046      1.636
REMARK  14 active torsions:
REMARK  status: ('A' for Active; 'I' for Inactive)
REMARK    1  A    between atoms: O1_2  and  C2_3 
REMARK    2  A    between atoms: C4_5  and  C5_6 
REMARK    3  A    between atoms: C5_6  and  C23_27 
REMARK    4  A    between atoms: C6_7  and  C7_8 
REMARK    5  A    between atoms: C7_8  and  C8_9 
REMARK    6  A    between atoms: C12_14  and  C13_15 
REMARK    7  A    between atoms: C13_15  and  C14_17 
REMARK    8  A    between atoms: C15_18  and  C16_19 
REMARK    9  A    between atoms: C21_24  and  O3_25 
REMARK   10  A    between atoms: C23_27  and  C24_28 
REMARK   11  A    between atoms: C24_28  and  C25_29 
REMARK   12  A    between atoms: C31_35  and  O4_36 
REMARK   13  A    between atoms: C33_39  and  C34_40 
REMARK   14  A    between atoms: C34_40  and  O5_41 
ROOT
HETATM    1  C8  UNL     1      21.312  47.585   0.982  1.00  0.00    -0.001 A 
HETATM    2  C9  UNL     1      20.455  47.830   2.006  1.00  0.00     0.054 A 
HETATM    3  C10 UNL     1      19.088  47.437   1.894  1.00  0.00     0.100 C 
HETATM    4  N1  UNL     1      17.982  47.138   1.784  1.00  0.00    -0.191 NA
HETATM    5  C11 UNL     1      20.828  48.544   3.146  1.00  0.00     0.039 A 
HETATM    6  C12 UNL     1      22.090  49.045   3.304  1.00  0.00     0.018 A 
HETATM    7  C20 UNL     1      22.980  48.807   2.273  1.00  0.00     0.053 A 
HETATM    8  C21 UNL     1      22.604  48.104   1.156  1.00  0.00     0.077 A 
ENDROOT
BRANCH   1   9
HETATM    9  C7  UNL     1      21.089  46.755  -0.209  1.00  0.00     0.070 C 
BRANCH   9  10
HETATM   10  C6  UNL     1      20.519  47.403  -1.379  1.00  0.00    -0.014 C 
HETATM   11  C5  UNL     1      19.610  46.959  -2.171  1.00  0.00    -0.048 C 
BRANCH  11  12
HETATM   12  C4  UNL     1      18.938  45.637  -2.057  1.00  0.00     0.007 A 
HETATM   13  C3  UNL     1      18.334  45.321  -0.843  1.00  0.00     0.054 A 
HETATM   14  C2  UNL     1      17.656  44.138  -0.708  1.00  0.00     0.102 A 
HETATM   15  C31 UNL     1      17.615  43.309  -1.827  1.00  0.00     0.108 A 
HETATM   16  C30 UNL     1      18.211  43.623  -3.026  1.00  0.00     0.015 A 
HETATM   17  C29 UNL     1      18.894  44.817  -3.155  1.00  0.00     0.089 A 
HETATM   18  C32 UNL     1      18.307  42.931  -4.331  1.00  0.00     0.082 C 
HETATM   19  O7  UNL     1      19.401  44.897  -4.472  1.00  0.00    -0.339 OA
HETATM   20  C33 UNL     1      18.540  44.120  -5.263  1.00  0.00     0.198 C 
BRANCH  14  21
HETATM   21  O1  UNL     1      17.014  43.733   0.476  1.00  0.00    -0.353 OA
HETATM   22  C1  UNL     1      15.732  44.275   0.700  1.00  0.00     0.210 C 
ENDBRANCH  14  21
BRANCH  15  23
HETATM   23  O4  UNL     1      16.916  42.094  -1.673  1.00  0.00    -0.357 OA
ATOM     24  H4  UNL     1      17.298  41.335  -2.099  1.00  0.00     0.217 HD
ENDBRANCH  15  23
BRANCH  20  25
HETATM   25  C34 UNL     1      19.153  43.666  -6.568  1.00  0.00     0.211 A 
HETATM   26  C35 UNL     1      18.134  43.683  -7.715  1.00  0.00     0.242 A 
HETATM   27  O6  UNL     1      18.641  42.519  -7.142  1.00  0.00    -0.346 OA
BRANCH  25  28
HETATM   28  O5  UNL     1      20.371  44.179  -6.937  1.00  0.00    -0.362 OA
ATOM     29  H5  UNL     1      20.392  44.916  -7.536  1.00  0.00     0.213 HD
ENDBRANCH  25  28
ENDBRANCH  20  25
ENDBRANCH  11  12
BRANCH  11  30
HETATM   30  C23 UNL     1      19.015  47.781  -3.288  1.00  0.00     0.043 C 
BRANCH  30  31
HETATM   31  C24 UNL     1      17.568  48.088  -3.157  1.00  0.00     0.032 C 
BRANCH  31  32
HETATM   32  C25 UNL     1      16.793  47.419  -4.210  1.00  0.00    -0.024 C 
HETATM   33  C26 UNL     1      15.760  46.638  -3.961  1.00  0.00    -0.091 C 
HETATM   34  C27 UNL     1      15.020  45.991  -5.114  1.00  0.00     0.042 C 
HETATM   35  C28 UNL     1      15.276  46.364  -2.601  1.00  0.00     0.042 C 
ENDBRANCH  31  32
ENDBRANCH  30  31
ENDBRANCH  11  30
ENDBRANCH   9  10
ENDBRANCH   1   9
BRANCH   8  36
HETATM   36  O3  UNL     1      23.559  47.917   0.179  1.00  0.00    -0.355 OA
HETATM   37  C22 UNL     1      24.500  48.911  -0.164  1.00  0.00     0.210 C 
ENDBRANCH   8  36
BRANCH   6  38
HETATM   38  C13 UNL     1      22.511  49.823   4.461  1.00  0.00     0.182 C 
HETATM   39  O2  UNL     1      23.001  49.172   5.416  1.00  0.00    -0.288 OA
BRANCH  38  40
HETATM   40  C14 UNL     1      22.369  51.251   4.499  1.00  0.00     0.055 C 
HETATM   41  C15 UNL     1      23.227  52.160   4.148  1.00  0.00     0.004 C 
BRANCH  41  42
HETATM   42  C16 UNL     1      24.543  51.937   3.638  1.00  0.00     0.002 C 
HETATM   43  C17 UNL     1      25.196  52.940   3.018  1.00  0.00    -0.088 C 
HETATM   44  C18 UNL     1      26.556  52.756   2.477  1.00  0.00     0.043 C 
HETATM   45  C19 UNL     1      24.513  54.268   2.869  1.00  0.00     0.043 C 
ENDBRANCH  41  42
ENDBRANCH  38  40
ENDBRANCH   6  38
TORSDOF 14
ENDMDL
