MODEL 1
REMARK VINA RESULT: -5.167982710      0.000      0.000
REMARK  5 active torsions:
REMARK  status: ('A' for Active; 'I' for Inactive)
REMARK    1  A    between atoms: C3_3  and  C4_4 
REMARK    2  A    between atoms: C4_4  and  O1_5 
REMARK    3  A    between atoms: C5_7  and  O2_8 
REMARK    4  A    between atoms: C9_14  and  O4_15 
REMARK    5  A    between atoms: C9_14  and  N1_17 
ROOT
HETATM    1  C1  UNL     1      33.343   0.763   7.812  1.00  0.00     0.019 C 
HETATM    2  C2  UNL     1      34.712   1.268   8.128  1.00  0.00     0.093 C 
HETATM    3  C3  UNL     1      35.123   1.250   9.538  1.00  0.00     0.043 C 
HETATM    4  C5  UNL     1      36.285   0.427   9.936  1.00  0.00     0.132 C 
HETATM    5  C6  UNL     1      36.800   1.215  11.156  1.00  0.00     0.035 C 
HETATM    6  C7  UNL     1      36.314   2.659  10.938  1.00  0.00     0.035 C 
HETATM    7  C8  UNL     1      35.854   2.613   9.575  1.00  0.00     0.141 C 
HETATM    8  O3  UNL     1      34.905   3.408   9.076  1.00  0.00    -0.324 OA
HETATM    9  C9  UNL     1      34.700   2.777   7.820  1.00  0.00     0.374 C 
ENDROOT
BRANCH   9  10
HETATM   10  O4  UNL     1      33.553   3.177   7.209  1.00  0.00    -0.341 OA
ATOM     11  H4  UNL     1      33.492   4.122   7.131  1.00  0.00     0.215 HD
ENDBRANCH   9  10
BRANCH   9  12
HETATM   12  N1  UNL     1      35.875   3.054   7.016  1.00  0.00     0.143 N 
HETATM   13  C10 UNL     1      35.874   4.399   6.519  1.00  0.00     0.316 C 
HETATM   14  C11 UNL     1      36.063   2.128   5.940  1.00  0.00     0.316 C 
ENDBRANCH   9  12
BRANCH   3  15
HETATM   15  C4  UNL     1      33.988   1.233  10.522  1.00  0.00     0.179 C 
BRANCH  15  16
HETATM   16  O1  UNL     1      33.694  -0.043  10.898  1.00  0.00    -0.400 OA
ATOM     17  H1  UNL     1      33.668  -0.619  10.142  1.00  0.00     0.209 HD
ENDBRANCH  15  16
ENDBRANCH   3  15
BRANCH   4  18
HETATM   18  O2  UNL     1      37.229   0.483   8.899  1.00  0.00    -0.395 OA
ATOM     19  H2  UNL     1      37.947  -0.096   9.127  1.00  0.00     0.210 HD
ENDBRANCH   4  18
TORSDOF 5
ENDMDL
MODEL 2
REMARK VINA RESULT: -5.093542142      2.497      4.412
REMARK  5 active torsions:
REMARK  status: ('A' for Active; 'I' for Inactive)
REMARK    1  A    between atoms: C3_3  and  C4_4 
REMARK    2  A    between atoms: C4_4  and  O1_5 
REMARK    3  A    between atoms: C5_7  and  O2_8 
REMARK    4  A    between atoms: C9_14  and  O4_15 
REMARK    5  A    between atoms: C9_14  and  N1_17 
ROOT
HETATM    1  C1  UNL     1      38.051   0.964  11.909  1.00  0.00     0.019 C 
HETATM    2  C2  UNL     1      37.939   2.016  10.855  1.00  0.00     0.093 C 
HETATM    3  C3  UNL     1      36.742   1.987  10.006  1.00  0.00     0.043 C 
HETATM    4  C5  UNL     1      35.822   3.145  10.023  1.00  0.00     0.132 C 
HETATM    5  C6  UNL     1      35.231   3.072   8.603  1.00  0.00     0.035 C 
HETATM    6  C7  UNL     1      36.290   2.337   7.761  1.00  0.00     0.035 C 
HETATM    7  C8  UNL     1      37.418   2.322   8.655  1.00  0.00     0.141 C 
HETATM    8  O3  UNL     1      38.381   1.399   8.632  1.00  0.00    -0.324 OA
HETATM    9  C9  UNL     1      39.058   1.730   9.836  1.00  0.00     0.374 C 
ENDROOT
BRANCH   9  10
HETATM   10  O4  UNL     1      39.906   0.751  10.251  1.00  0.00    -0.341 OA
ATOM     11  H4  UNL     1      40.539   0.510   9.585  1.00  0.00     0.215 HD
ENDBRANCH   9  10
BRANCH   9  12
HETATM   12  N1  UNL     1      39.745   2.985   9.598  1.00  0.00     0.143 N 
HETATM   13  C10 UNL     1      40.985   2.789   8.907  1.00  0.00     0.316 C 
HETATM   14  C11 UNL     1      39.955   3.755  10.787  1.00  0.00     0.316 C 
ENDBRANCH   9  12
BRANCH   3  15
HETATM   15  C4  UNL     1      36.054   0.653   9.935  1.00  0.00     0.179 C 
BRANCH  15  16
HETATM   16  O1  UNL     1      34.958   0.631  10.744  1.00  0.00    -0.400 OA
ATOM     17  H1  UNL     1      34.820  -0.239  11.100  1.00  0.00     0.209 HD
ENDBRANCH  15  16
ENDBRANCH   3  15
BRANCH   4  18
HETATM   18  O2  UNL     1      36.594   4.308  10.160  1.00  0.00    -0.395 OA
ATOM     19  H2  UNL     1      36.022   5.055  10.029  1.00  0.00     0.210 HD
ENDBRANCH   4  18
TORSDOF 5
ENDMDL
MODEL 3
REMARK VINA RESULT: -5.090349600      1.501      3.567
REMARK  5 active torsions:
REMARK  status: ('A' for Active; 'I' for Inactive)
REMARK    1  A    between atoms: C3_3  and  C4_4 
REMARK    2  A    between atoms: C4_4  and  O1_5 
REMARK    3  A    between atoms: C5_7  and  O2_8 
REMARK    4  A    between atoms: C9_14  and  O4_15 
REMARK    5  A    between atoms: C9_14  and  N1_17 
ROOT
HETATM    1  C1  UNL     1      35.916   1.723  11.352  1.00  0.00     0.019 C 
HETATM    2  C2  UNL     1      35.607   1.895   9.902  1.00  0.00     0.093 C 
HETATM    3  C3  UNL     1      34.314   1.386   9.428  1.00  0.00     0.043 C 
HETATM    4  C5  UNL     1      33.337   2.333   8.851  1.00  0.00     0.132 C 
HETATM    5  C6  UNL     1      32.573   1.414   7.879  1.00  0.00     0.035 C 
HETATM    6  C7  UNL     1      33.557   0.280   7.539  1.00  0.00     0.035 C 
HETATM    7  C8  UNL     1      34.789   0.786   8.083  1.00  0.00     0.141 C 
HETATM    8  O3  UNL     1      35.795   0.016   8.505  1.00  0.00    -0.324 OA
HETATM    9  C9  UNL     1      36.601   1.001   9.137  1.00  0.00     0.374 C 
ENDROOT
BRANCH   9  10
HETATM   10  O4  UNL     1      37.552   0.464   9.947  1.00  0.00    -0.341 OA
ATOM     11  H4  UNL     1      38.423   0.514   9.571  1.00  0.00     0.215 HD
ENDBRANCH   9  10
BRANCH   9  12
HETATM   12  N1  UNL     1      37.175   1.812   8.081  1.00  0.00     0.143 N 
HETATM   13  C10 UNL     1      38.275   1.151   7.441  1.00  0.00     0.316 C 
HETATM   14  C11 UNL     1      37.566   3.120   8.514  1.00  0.00     0.316 C 
ENDBRANCH   9  12
BRANCH   3  15
HETATM   15  C4  UNL     1      33.704   0.321  10.294  1.00  0.00     0.179 C 
BRANCH  15  16
HETATM   16  O1  UNL     1      32.643   0.814  10.992  1.00  0.00    -0.400 OA
ATOM     17  H1  UNL     1      31.960   0.159  11.073  1.00  0.00     0.209 HD
ENDBRANCH  15  16
ENDBRANCH   3  15
BRANCH   4  18
HETATM   18  O2  UNL     1      34.050   3.303   8.130  1.00  0.00    -0.395 OA
ATOM     19  H2  UNL     1      33.875   4.149   8.526  1.00  0.00     0.210 HD
ENDBRANCH   4  18
TORSDOF 5
ENDMDL
MODEL 4
REMARK VINA RESULT: -5.058370349      1.648      3.962
REMARK  5 active torsions:
REMARK  status: ('A' for Active; 'I' for Inactive)
REMARK    1  A    between atoms: C3_3  and  C4_4 
REMARK    2  A    between atoms: C4_4  and  O1_5 
REMARK    3  A    between atoms: C5_7  and  O2_8 
REMARK    4  A    between atoms: C9_14  and  O4_15 
REMARK    5  A    between atoms: C9_14  and  N1_17 
ROOT
HETATM    1  C1  UNL     1      34.422   0.730   9.780  1.00  0.00     0.019 C 
HETATM    2  C2  UNL     1      35.208   1.974   9.527  1.00  0.00     0.093 C 
HETATM    3  C3  UNL     1      34.879   2.740   8.318  1.00  0.00     0.043 C 
HETATM    4  C5  UNL     1      34.386   4.127   8.458  1.00  0.00     0.132 C 
HETATM    5  C6  UNL     1      34.870   4.747   7.134  1.00  0.00     0.035 C 
HETATM    6  C7  UNL     1      36.077   3.893   6.705  1.00  0.00     0.035 C 
HETATM    7  C8  UNL     1      36.319   3.110   7.888  1.00  0.00     0.141 C 
HETATM    8  O3  UNL     1      36.887   1.902   7.885  1.00  0.00    -0.324 OA
HETATM    9  C9  UNL     1      36.652   1.524   9.234  1.00  0.00     0.374 C 
ENDROOT
BRANCH   9  10
HETATM   10  O4  UNL     1      36.839   0.194   9.449  1.00  0.00    -0.341 OA
ATOM     11  H4  UNL     1      37.390  -0.209   8.789  1.00  0.00     0.215 HD
ENDBRANCH   9  10
BRANCH   9  12
HETATM   12  N1  UNL     1      37.525   2.340  10.055  1.00  0.00     0.143 N 
HETATM   13  C10 UNL     1      38.862   1.825  10.084  1.00  0.00     0.316 C 
HETATM   14  C11 UNL     1      37.039   2.535  11.388  1.00  0.00     0.316 C 
ENDBRANCH   9  12
BRANCH   3  15
HETATM   15  C4  UNL     1      34.194   1.947   7.241  1.00  0.00     0.179 C 
BRANCH  15  16
HETATM   16  O1  UNL     1      32.861   2.225   7.210  1.00  0.00    -0.400 OA
ATOM     17  H1  UNL     1      32.483   2.161   8.079  1.00  0.00     0.209 HD
ENDBRANCH  15  16
ENDBRANCH   3  15
BRANCH   4  18
HETATM   18  O2  UNL     1      35.061   4.718   9.537  1.00  0.00    -0.395 OA
ATOM     19  H2  UNL     1      34.721   5.598   9.647  1.00  0.00     0.210 HD
ENDBRANCH   4  18
TORSDOF 5
ENDMDL
MODEL 5
REMARK VINA RESULT: -5.028349866      1.962      2.444
REMARK  5 active torsions:
REMARK  status: ('A' for Active; 'I' for Inactive)
REMARK    1  A    between atoms: C3_3  and  C4_4 
REMARK    2  A    between atoms: C4_4  and  O1_5 
REMARK    3  A    between atoms: C5_7  and  O2_8 
REMARK    4  A    between atoms: C9_14  and  O4_15 
REMARK    5  A    between atoms: C9_14  and  N1_17 
ROOT
HETATM    1  C1  UNL     1      36.201   0.290   8.887  1.00  0.00     0.019 C 
HETATM    2  C2  UNL     1      36.923   1.589   9.040  1.00  0.00     0.093 C 
HETATM    3  C3  UNL     1      37.479   1.893  10.365  1.00  0.00     0.043 C 
HETATM    4  C5  UNL     1      38.941   2.067  10.507  1.00  0.00     0.132 C 
HETATM    5  C6  UNL     1      39.007   3.035  11.703  1.00  0.00     0.035 C 
HETATM    6  C7  UNL     1      37.660   3.780  11.696  1.00  0.00     0.035 C 
HETATM    7  C8  UNL     1      37.119   3.397  10.418  1.00  0.00     0.141 C 
HETATM    8  O3  UNL     1      35.814   3.342  10.142  1.00  0.00    -0.324 OA
HETATM    9  C9  UNL     1      35.864   2.696   8.879  1.00  0.00     0.374 C 
ENDROOT
BRANCH   9  10
HETATM   10  O4  UNL     1      34.656   2.210   8.486  1.00  0.00    -0.341 OA
ATOM     11  H4  UNL     1      34.289   1.595   9.110  1.00  0.00     0.215 HD
ENDBRANCH   9  10
BRANCH   9  12
HETATM   12  N1  UNL     1      36.400   3.659   7.937  1.00  0.00     0.143 N 
HETATM   13  C10 UNL     1      35.410   4.614   7.532  1.00  0.00     0.316 C 
HETATM   14  C11 UNL     1      37.009   3.059   6.789  1.00  0.00     0.316 C 
ENDBRANCH   9  12
BRANCH   3  15
HETATM   15  C4  UNL     1      36.832   1.155  11.502  1.00  0.00     0.179 C 
BRANCH  15  16
HETATM   16  O1  UNL     1      37.571   0.066  11.854  1.00  0.00    -0.400 OA
ATOM     17  H1  UNL     1      37.069  -0.732  11.740  1.00  0.00     0.209 HD
ENDBRANCH  15  16
ENDBRANCH   3  15
BRANCH   4  18
HETATM   18  O2  UNL     1      39.414   2.705   9.350  1.00  0.00    -0.395 OA
ATOM     19  H2  UNL     1      40.354   2.576   9.310  1.00  0.00     0.210 HD
ENDBRANCH   4  18
TORSDOF 5
ENDMDL
