MODEL 1
REMARK VINA RESULT: -5.588348867      0.000      0.000
REMARK  6 active torsions:
REMARK  status: ('A' for Active; 'I' for Inactive)
REMARK    1  A    between atoms: C2_2  and  C3_3 
REMARK    2  A    between atoms: C3_3  and  O1_5 
REMARK    3  A    between atoms: O1_5  and  C5_6 
REMARK    4  A    between atoms: C9_11  and  O3_12 
REMARK    5  A    between atoms: C10_14  and  O4_15 
REMARK    6  A    between atoms: C11_17  and  O5_18 
ROOT
HETATM    1  C5  UNL     1      35.806   1.381   9.129  1.00  0.00     0.189 C 
HETATM    2  C6  UNL     1      36.314  -0.028   8.778  1.00  0.00     0.082 C 
HETATM    3  O2  UNL     1      34.981   1.200  10.237  1.00  0.00    -0.345 OA
HETATM    4  C7  UNL     1      33.825   0.540  10.021  1.00  0.00     0.152 C 
HETATM    5  C8  UNL     1      33.115   0.378  11.351  1.00  0.00     0.042 C 
HETATM    6  C9  UNL     1      32.947   1.433   9.142  1.00  0.00     0.178 C 
HETATM    7  C10 UNL     1      33.642   1.553   7.830  1.00  0.00     0.183 C 
HETATM    8  C11 UNL     1      35.096   1.883   7.921  1.00  0.00     0.211 C 
ENDROOT
BRANCH   1   9
HETATM    9  O1  UNL     1      36.834   2.150   9.600  1.00  0.00    -0.348 OA
BRANCH   9  10
HETATM   10  C3  UNL     1      36.977   2.357  10.925  1.00  0.00     0.120 C 
HETATM   11  C4  UNL     1      37.197   3.857  11.199  1.00  0.00     0.039 C 
BRANCH  10  12
HETATM   12  C2  UNL     1      38.253   1.682  11.394  1.00  0.00     0.027 C 
HETATM   13  C1  UNL     1      37.966   0.553  12.360  1.00  0.00     0.007 C 
ENDBRANCH  10  12
ENDBRANCH   9  10
ENDBRANCH   1   9
BRANCH   8  14
HETATM   14  O5  UNL     1      35.690   1.303   6.772  1.00  0.00    -0.387 OA
ATOM     15  H5  UNL     1      36.484   1.782   6.565  1.00  0.00     0.210 HD
ENDBRANCH   8  14
BRANCH   7  16
HETATM   16  O4  UNL     1      33.010   2.521   7.028  1.00  0.00    -0.390 OA
ATOM     17  H4  UNL     1      33.128   3.387   7.400  1.00  0.00     0.210 HD
ENDBRANCH   7  16
BRANCH   6  18
HETATM   18  O3  UNL     1      31.695   0.886   8.968  1.00  0.00    -0.390 OA
ATOM     19  H3  UNL     1      31.164   1.420   8.390  1.00  0.00     0.210 HD
ENDBRANCH   6  18
TORSDOF 6
ENDMDL
MODEL 2
REMARK VINA RESULT: -5.464885255      2.528      4.746
REMARK  6 active torsions:
REMARK  status: ('A' for Active; 'I' for Inactive)
REMARK    1  A    between atoms: C2_2  and  C3_3 
REMARK    2  A    between atoms: C3_3  and  O1_5 
REMARK    3  A    between atoms: O1_5  and  C5_6 
REMARK    4  A    between atoms: C9_11  and  O3_12 
REMARK    5  A    between atoms: C10_14  and  O4_15 
REMARK    6  A    between atoms: C11_17  and  O5_18 
ROOT
HETATM    1  C5  UNL     1      34.846   3.259   8.601  1.00  0.00     0.189 C 
HETATM    2  C6  UNL     1      35.706   3.678   9.805  1.00  0.00     0.082 C 
HETATM    3  O2  UNL     1      35.689   2.482   7.810  1.00  0.00    -0.345 OA
HETATM    4  C7  UNL     1      36.706   3.128   7.205  1.00  0.00     0.152 C 
HETATM    5  C8  UNL     1      37.545   2.105   6.464  1.00  0.00     0.042 C 
HETATM    6  C9  UNL     1      36.096   4.061   6.158  1.00  0.00     0.178 C 
HETATM    7  C10 UNL     1      35.304   5.078   6.904  1.00  0.00     0.183 C 
HETATM    8  C11 UNL     1      34.395   4.519   7.950  1.00  0.00     0.211 C 
ENDROOT
BRANCH   1   9
HETATM    9  O1  UNL     1      33.867   2.391   8.999  1.00  0.00    -0.348 OA
BRANCH   9  10
HETATM   10  C3  UNL     1      34.100   1.062   9.011  1.00  0.00     0.120 C 
HETATM   11  C4  UNL     1      33.100   0.349   8.081  1.00  0.00     0.039 C 
BRANCH  10  12
HETATM   12  C2  UNL     1      33.799   0.522  10.397  1.00  0.00     0.027 C 
HETATM   13  C1  UNL     1      32.333   0.182  10.558  1.00  0.00     0.007 C 
ENDBRANCH  10  12
ENDBRANCH   9  10
ENDBRANCH   1   9
BRANCH   8  14
HETATM   14  O5  UNL     1      34.287   5.528   8.939  1.00  0.00    -0.387 OA
ATOM     15  H5  UNL     1      35.156   5.862   9.130  1.00  0.00     0.210 HD
ENDBRANCH   8  14
BRANCH   7  16
HETATM   16  O4  UNL     1      34.542   5.855   6.013  1.00  0.00    -0.390 OA
ATOM     17  H4  UNL     1      34.231   6.643   6.444  1.00  0.00     0.210 HD
ENDBRANCH   7  16
BRANCH   6  18
HETATM   18  O3  UNL     1      37.074   4.677   5.408  1.00  0.00    -0.390 OA
ATOM     19  H3  UNL     1      37.861   4.821   5.920  1.00  0.00     0.210 HD
ENDBRANCH   6  18
TORSDOF 6
ENDMDL
MODEL 3
REMARK VINA RESULT: -5.457446441      1.285      1.814
REMARK  6 active torsions:
REMARK  status: ('A' for Active; 'I' for Inactive)
REMARK    1  A    between atoms: C2_2  and  C3_3 
REMARK    2  A    between atoms: C3_3  and  O1_5 
REMARK    3  A    between atoms: O1_5  and  C5_6 
REMARK    4  A    between atoms: C9_11  and  O3_12 
REMARK    5  A    between atoms: C10_14  and  O4_15 
REMARK    6  A    between atoms: C11_17  and  O5_18 
ROOT
HETATM    1  C5  UNL     1      36.101   1.674   9.341  1.00  0.00     0.189 C 
HETATM    2  C6  UNL     1      36.609   0.330   8.790  1.00  0.00     0.082 C 
HETATM    3  O2  UNL     1      34.812   1.410   9.799  1.00  0.00    -0.345 OA
HETATM    4  C7  UNL     1      33.887   1.135   8.859  1.00  0.00     0.152 C 
HETATM    5  C8  UNL     1      32.583   0.801   9.558  1.00  0.00     0.042 C 
HETATM    6  C9  UNL     1      33.658   2.416   8.055  1.00  0.00     0.178 C 
HETATM    7  C10 UNL     1      34.935   2.710   7.349  1.00  0.00     0.183 C 
HETATM    8  C11 UNL     1      36.156   2.638   8.209  1.00  0.00     0.211 C 
ENDROOT
BRANCH   1   9
HETATM    9  O1  UNL     1      36.794   2.013  10.470  1.00  0.00    -0.348 OA
BRANCH   9  10
HETATM   10  C3  UNL     1      37.991   1.449  10.729  1.00  0.00     0.120 C 
HETATM   11  C4  UNL     1      37.978   0.820  12.135  1.00  0.00     0.039 C 
BRANCH  10  12
HETATM   12  C2  UNL     1      39.045   2.538  10.797  1.00  0.00     0.027 C 
HETATM   13  C1  UNL     1      39.024   3.254  12.130  1.00  0.00     0.007 C 
ENDBRANCH  10  12
ENDBRANCH   9  10
ENDBRANCH   1   9
BRANCH   8  14
HETATM   14  O5  UNL     1      37.210   2.260   7.341  1.00  0.00    -0.387 OA
ATOM     15  H5  UNL     1      37.485   3.022   6.844  1.00  0.00     0.210 HD
ENDBRANCH   8  14
BRANCH   7  16
HETATM   16  O4  UNL     1      34.882   3.980   6.748  1.00  0.00    -0.390 OA
ATOM     17  H4  UNL     1      35.209   3.939   5.857  1.00  0.00     0.210 HD
ENDBRANCH   7  16
BRANCH   6  18
HETATM   18  O3  UNL     1      32.637   2.258   7.145  1.00  0.00    -0.390 OA
ATOM     19  H3  UNL     1      32.752   2.831   6.395  1.00  0.00     0.210 HD
ENDBRANCH   6  18
TORSDOF 6
ENDMDL
MODEL 4
REMARK VINA RESULT: -5.399317215      3.310      5.425
REMARK  6 active torsions:
REMARK  status: ('A' for Active; 'I' for Inactive)
REMARK    1  A    between atoms: C2_2  and  C3_3 
REMARK    2  A    between atoms: C3_3  and  O1_5 
REMARK    3  A    between atoms: O1_5  and  C5_6 
REMARK    4  A    between atoms: C9_11  and  O3_12 
REMARK    5  A    between atoms: C10_14  and  O4_15 
REMARK    6  A    between atoms: C11_17  and  O5_18 
ROOT
HETATM    1  C5  UNL     1      35.292   3.734   8.009  1.00  0.00     0.189 C 
HETATM    2  C6  UNL     1      35.602   3.570   9.507  1.00  0.00     0.082 C 
HETATM    3  O2  UNL     1      36.534   3.697   7.379  1.00  0.00    -0.345 OA
HETATM    4  C7  UNL     1      37.351   4.746   7.603  1.00  0.00     0.152 C 
HETATM    5  C8  UNL     1      38.669   4.480   6.902  1.00  0.00     0.042 C 
HETATM    6  C9  UNL     1      36.718   5.968   6.936  1.00  0.00     0.178 C 
HETATM    7  C10 UNL     1      35.443   6.234   7.658  1.00  0.00     0.183 C 
HETATM    8  C11 UNL     1      34.580   5.033   7.868  1.00  0.00     0.211 C 
ENDROOT
BRANCH   1   9
HETATM    9  O1  UNL     1      34.645   2.625   7.537  1.00  0.00    -0.348 OA
BRANCH   9  10
HETATM   10  C3  UNL     1      34.374   1.593   8.362  1.00  0.00     0.120 C 
HETATM   11  C4  UNL     1      35.027   0.307   7.819  1.00  0.00     0.039 C 
BRANCH  10  12
HETATM   12  C2  UNL     1      32.883   1.318   8.333  1.00  0.00     0.027 C 
HETATM   13  C1  UNL     1      32.360   0.928   9.698  1.00  0.00     0.007 C 
ENDBRANCH  10  12
ENDBRANCH   9  10
ENDBRANCH   1   9
BRANCH   8  14
HETATM   14  O5  UNL     1      33.858   5.287   9.061  1.00  0.00    -0.387 OA
ATOM     15  H5  UNL     1      33.861   6.223   9.225  1.00  0.00     0.210 HD
ENDBRANCH   8  14
BRANCH   7  16
HETATM   16  O4  UNL     1      34.694   7.215   6.984  1.00  0.00    -0.390 OA
ATOM     17  H4  UNL     1      35.271   7.830   6.546  1.00  0.00     0.210 HD
ENDBRANCH   7  16
BRANCH   6  18
HETATM   18  O3  UNL     1      37.547   7.064   7.015  1.00  0.00    -0.390 OA
ATOM     19  H3  UNL     1      37.759   7.399   6.151  1.00  0.00     0.210 HD
ENDBRANCH   6  18
TORSDOF 6
ENDMDL
MODEL 5
REMARK VINA RESULT: -5.384929851      1.689      4.847
REMARK  6 active torsions:
REMARK  status: ('A' for Active; 'I' for Inactive)
REMARK    1  A    between atoms: C2_2  and  C3_3 
REMARK    2  A    between atoms: C3_3  and  O1_5 
REMARK    3  A    between atoms: O1_5  and  C5_6 
REMARK    4  A    between atoms: C9_11  and  O3_12 
REMARK    5  A    between atoms: C10_14  and  O4_15 
REMARK    6  A    between atoms: C11_17  and  O5_18 
ROOT
HETATM    1  C5  UNL     1      35.762   1.034   9.953  1.00  0.00     0.189 C 
HETATM    2  C6  UNL     1      35.350   2.470  10.321  1.00  0.00     0.082 C 
HETATM    3  O2  UNL     1      36.450   0.560  11.068  1.00  0.00    -0.345 OA
HETATM    4  C7  UNL     1      37.646   1.130  11.320  1.00  0.00     0.152 C 
HETATM    5  C8  UNL     1      38.191   0.539  12.607  1.00  0.00     0.042 C 
HETATM    6  C9  UNL     1      38.593   0.719  10.193  1.00  0.00     0.178 C 
HETATM    7  C10 UNL     1      38.063   1.334   8.945  1.00  0.00     0.183 C 
HETATM    8  C11 UNL     1      36.598   1.139   8.726  1.00  0.00     0.211 C 
ENDROOT
BRANCH   1   9
HETATM    9  O1  UNL     1      34.658   0.232   9.876  1.00  0.00    -0.348 OA
BRANCH   9  10
HETATM   10  C3  UNL     1      33.425   0.775   9.813  1.00  0.00     0.120 C 
HETATM   11  C4  UNL     1      32.481   0.041  10.784  1.00  0.00     0.039 C 
BRANCH  10  12
HETATM   12  C2  UNL     1      32.844   0.520   8.435  1.00  0.00     0.027 C 
HETATM   13  C1  UNL     1      32.770   1.790   7.616  1.00  0.00     0.007 C 
ENDBRANCH  10  12
ENDBRANCH   9  10
ENDBRANCH   1   9
BRANCH   8  14
HETATM   14  O5  UNL     1      36.171   2.268   7.982  1.00  0.00    -0.387 OA
ATOM     15  H5  UNL     1      35.227   2.344   8.058  1.00  0.00     0.210 HD
ENDBRANCH   8  14
BRANCH   7  16
HETATM   16  O4  UNL     1      38.755   0.843   7.823  1.00  0.00    -0.390 OA
ATOM     17  H4  UNL     1      39.433   0.234   8.093  1.00  0.00     0.210 HD
ENDBRANCH   7  16
BRANCH   6  18
HETATM   18  O3  UNL     1      39.876   1.161  10.433  1.00  0.00    -0.390 OA
ATOM     19  H3  UNL     1      40.501   0.448  10.381  1.00  0.00     0.210 HD
ENDBRANCH   6  18
TORSDOF 6
ENDMDL
