MODEL 1
REMARK VINA RESULT: -6.268641013      0.000      0.000
REMARK  9 active torsions:
REMARK  status: ('A' for Active; 'I' for Inactive)
REMARK    1  A    between atoms: N1_1  and  C1_5 
REMARK    2  A    between atoms: C1_5  and  C2_6 
REMARK       I    between atoms: C2_6  and  N2_8 
REMARK    3  A    between atoms: N2_8  and  C3_10 
REMARK    4  A    between atoms: C4_15  and  N5_16 
REMARK    5  A    between atoms: N5_16  and  C5_18 
REMARK    6  A    between atoms: C5_18  and  C6_24 
REMARK    7  A    between atoms: N6_19  and  N7_21 
REMARK    8  A    between atoms: C6_24  and  N8_25 
REMARK    9  A    between atoms: C6_24  and  N9_29 
ROOT
HETATM    1  C3  UNL     1      13.324  21.212  16.502  1.00  0.00     0.114 C 
HETATM    2  N3  UNL     1      13.668  22.387  16.915  1.00  0.00    -0.289 N 
ATOM      3  H3  UNL     1      14.635  22.495  17.221  1.00  0.00     0.188 HD
HETATM    4  N4  UNL     1      12.871  23.509  16.986  1.00  0.00    -0.294 N 
ATOM      5  H4  UNL     1      12.945  24.008  17.873  1.00  0.00     0.184 HD
HETATM    6  C4  UNL     1      11.960  24.114  16.059  1.00  0.00     0.314 C 
HETATM    7  N10 UNL     1      11.296  23.180  15.194  1.00  0.00    -0.279 N 
ATOM      8  H10 UNL     1      11.177  23.318  14.190  1.00  0.00     0.176 HD
HETATM    9  S1  UNL     1      10.724  21.804  16.046  1.00  0.00     0.236 S 
HETATM   10  O2  UNL     1      10.249  22.105  17.415  1.00  0.00    -0.205 OA
HETATM   11  O3  UNL     1       9.573  21.210  15.265  1.00  0.00    -0.205 OA
HETATM   12  C7  UNL     1      12.072  20.645  16.013  1.00  0.00     0.240 C 
ENDROOT
BRANCH   6  13
HETATM   13  N5  UNL     1      12.691  25.036  15.225  1.00  0.00    -0.336 N 
ATOM     14  H5  UNL     1      12.226  25.449  14.416  1.00  0.00     0.164 HD
BRANCH  13  15
HETATM   15  C5  UNL     1      14.056  25.387  15.503  1.00  0.00     0.153 C 
HETATM   16  N6  UNL     1      14.306  26.161  16.482  1.00  0.00    -0.292 N 
ATOM     17  H6  UNL     1      13.514  26.499  17.029  1.00  0.00     0.187 HD
BRANCH  16  18
HETATM   18  N7  UNL     1      15.561  26.577  16.858  1.00  0.00    -0.344 N 
ATOM     19  H72 UNL     1      16.142  25.890  17.338  1.00  0.00     0.176 HD
ATOM     20  H71 UNL     1      15.944  27.509  16.694  1.00  0.00     0.176 HD
ENDBRANCH  16  18
BRANCH  15  21
HETATM   21  C6  UNL     1      15.072  24.800  14.602  1.00  0.00     0.445 C 
BRANCH  21  22
HETATM   22  N8  UNL     1      14.676  23.596  13.950  1.00  0.00    -0.043 N 
ATOM     23  H83 UNL     1      14.979  22.786  14.492  1.00  0.00     0.277 HD
ATOM     24  H82 UNL     1      13.664  23.481  14.008  1.00  0.00     0.277 HD
ATOM     25  H81 UNL     1      14.986  23.509  12.983  1.00  0.00     0.277 HD
ENDBRANCH  21  22
BRANCH  21  26
HETATM   26  N9  UNL     1      15.477  25.838  13.657  1.00  0.00    -0.043 N 
ATOM     27  H93 UNL     1      14.827  26.623  13.626  1.00  0.00     0.277 HD
ATOM     28  H92 UNL     1      16.300  26.357  13.965  1.00  0.00     0.277 HD
ATOM     29  H91 UNL     1      15.607  25.395  12.747  1.00  0.00     0.277 HD
ENDBRANCH  21  26
ENDBRANCH  15  21
ENDBRANCH  13  15
ENDBRANCH   6  13
BRANCH   1  30
HETATM   30  N2  UNL     1      14.382  20.233  16.540  1.00  0.00    -0.313 N 
HETATM   31  C2  UNL     1      15.605  20.268  15.921  1.00  0.00     0.248 C 
HETATM   32  O1  UNL     1      16.001  21.198  15.198  1.00  0.00    -0.271 OA
ATOM     33  H2  UNL     1      14.195  19.403  17.103  1.00  0.00     0.170 HD
BRANCH  31  34
HETATM   34  C1  UNL     1      16.564  19.131  16.093  1.00  0.00     0.332 C 
BRANCH  34  35
HETATM   35  N1  UNL     1      17.908  19.619  15.978  1.00  0.00    -0.071 N 
ATOM     36  H13 UNL     1      18.155  20.253  16.738  1.00  0.00     0.274 HD
ATOM     37  H12 UNL     1      18.599  18.893  16.164  1.00  0.00     0.274 HD
ATOM     38  H11 UNL     1      18.035  20.048  15.061  1.00  0.00     0.274 HD
ENDBRANCH  34  35
ENDBRANCH  31  34
ENDBRANCH   1  30
TORSDOF 9
ENDMDL
MODEL 2
REMARK VINA RESULT: -6.236376310      9.575     11.418
REMARK  9 active torsions:
REMARK  status: ('A' for Active; 'I' for Inactive)
REMARK    1  A    between atoms: N1_1  and  C1_5 
REMARK    2  A    between atoms: C1_5  and  C2_6 
REMARK       I    between atoms: C2_6  and  N2_8 
REMARK    3  A    between atoms: N2_8  and  C3_10 
REMARK    4  A    between atoms: C4_15  and  N5_16 
REMARK    5  A    between atoms: N5_16  and  C5_18 
REMARK    6  A    between atoms: C5_18  and  C6_24 
REMARK    7  A    between atoms: N6_19  and  N7_21 
REMARK    8  A    between atoms: C6_24  and  N8_25 
REMARK    9  A    between atoms: C6_24  and  N9_29 
ROOT
HETATM    1  C3  UNL     1      19.224  28.345  10.341  1.00  0.00     0.114 C 
HETATM    2  N3  UNL     1      18.250  28.629   9.541  1.00  0.00    -0.289 N 
ATOM      3  H3  UNL     1      17.901  29.587   9.572  1.00  0.00     0.188 HD
HETATM    4  N4  UNL     1      17.632  27.779   8.650  1.00  0.00    -0.294 N 
ATOM      5  H4  UNL     1      16.613  27.821   8.683  1.00  0.00     0.184 HD
HETATM    6  C4  UNL     1      18.139  26.847   7.686  1.00  0.00     0.314 C 
HETATM    7  N10 UNL     1      19.384  26.235   8.057  1.00  0.00    -0.279 N 
ATOM      8  H10 UNL     1      20.173  26.118   7.421  1.00  0.00     0.176 HD
HETATM    9  S1  UNL     1      19.389  25.724   9.695  1.00  0.00     0.236 S 
HETATM   10  O2  UNL     1      18.079  25.224  10.169  1.00  0.00    -0.205 OA
HETATM   11  O3  UNL     1      20.401  24.609   9.839  1.00  0.00    -0.205 OA
HETATM   12  C7  UNL     1      19.976  27.127  10.617  1.00  0.00     0.240 C 
ENDROOT
BRANCH   6  13
HETATM   13  N5  UNL     1      18.349  27.539   6.438  1.00  0.00    -0.336 N 
ATOM     14  H5  UNL     1      19.148  27.284   5.858  1.00  0.00     0.164 HD
BRANCH  13  15
HETATM   15  C5  UNL     1      17.462  28.578   5.992  1.00  0.00     0.153 C 
HETATM   16  N6  UNL     1      16.227  28.311   5.839  1.00  0.00    -0.292 N 
ATOM     17  H6  UNL     1      15.923  27.359   6.045  1.00  0.00     0.187 HD
BRANCH  16  18
HETATM   18  N7  UNL     1      15.272  29.207   5.419  1.00  0.00    -0.344 N 
ATOM     19  H72 UNL     1      15.464  29.697   4.546  1.00  0.00     0.176 HD
ATOM     20  H71 UNL     1      14.402  29.410   5.912  1.00  0.00     0.176 HD
ENDBRANCH  16  18
BRANCH  15  21
HETATM   21  C6  UNL     1      18.084  29.897   5.744  1.00  0.00     0.445 C 
BRANCH  21  22
HETATM   22  N8  UNL     1      18.522  30.586   6.913  1.00  0.00    -0.043 N 
ATOM     23  H83 UNL     1      17.726  30.798   7.516  1.00  0.00     0.277 HD
ATOM     24  H82 UNL     1      19.042  29.953   7.520  1.00  0.00     0.277 HD
ATOM     25  H81 UNL     1      19.065  31.431   6.737  1.00  0.00     0.277 HD
ENDBRANCH  21  22
BRANCH  21  26
HETATM   26  N9  UNL     1      19.161  29.705   4.776  1.00  0.00    -0.043 N 
ATOM     27  H93 UNL     1      20.015  30.200   5.028  1.00  0.00     0.277 HD
ATOM     28  H92 UNL     1      19.544  28.759   4.791  1.00  0.00     0.277 HD
ATOM     29  H91 UNL     1      18.804  29.972   3.859  1.00  0.00     0.277 HD
ENDBRANCH  21  26
ENDBRANCH  15  21
ENDBRANCH  13  15
ENDBRANCH   6  13
BRANCH   1  30
HETATM   30  N2  UNL     1      19.666  29.449  11.158  1.00  0.00    -0.313 N 
HETATM   31  C2  UNL     1      19.900  30.748  10.788  1.00  0.00     0.248 C 
HETATM   32  O1  UNL     1      19.757  31.189   9.634  1.00  0.00    -0.271 OA
ATOM     33  H2  UNL     1      19.826  29.234  12.141  1.00  0.00     0.170 HD
BRANCH  31  34
HETATM   34  C1  UNL     1      20.363  31.745  11.806  1.00  0.00     0.332 C 
BRANCH  34  35
HETATM   35  N1  UNL     1      20.682  31.065  13.028  1.00  0.00    -0.071 N 
ATOM     36  H13 UNL     1      21.123  31.683  13.709  1.00  0.00     0.274 HD
ATOM     37  H12 UNL     1      19.848  30.828  13.566  1.00  0.00     0.274 HD
ATOM     38  H11 UNL     1      21.254  30.247  12.822  1.00  0.00     0.274 HD
ENDBRANCH  34  35
ENDBRANCH  31  34
ENDBRANCH   1  30
TORSDOF 9
ENDMDL
MODEL 3
REMARK VINA RESULT: -6.191660916      4.610      7.309
REMARK  9 active torsions:
REMARK  status: ('A' for Active; 'I' for Inactive)
REMARK    1  A    between atoms: N1_1  and  C1_5 
REMARK    2  A    between atoms: C1_5  and  C2_6 
REMARK       I    between atoms: C2_6  and  N2_8 
REMARK    3  A    between atoms: N2_8  and  C3_10 
REMARK    4  A    between atoms: C4_15  and  N5_16 
REMARK    5  A    between atoms: N5_16  and  C5_18 
REMARK    6  A    between atoms: C5_18  and  C6_24 
REMARK    7  A    between atoms: N6_19  and  N7_21 
REMARK    8  A    between atoms: C6_24  and  N8_25 
REMARK    9  A    between atoms: C6_24  and  N9_29 
ROOT
HETATM    1  C3  UNL     1      18.015  26.269  11.303  1.00  0.00     0.114 C 
HETATM    2  N3  UNL     1      17.766  26.035  12.549  1.00  0.00    -0.289 N 
ATOM      3  H3  UNL     1      18.260  26.615  13.228  1.00  0.00     0.188 HD
HETATM    4  N4  UNL     1      16.907  25.087  13.061  1.00  0.00    -0.294 N 
ATOM      5  H4  UNL     1      17.308  24.539  13.823  1.00  0.00     0.184 HD
HETATM    6  C4  UNL     1      15.560  24.719  12.734  1.00  0.00     0.314 C 
HETATM    7  N10 UNL     1      15.225  24.887  11.348  1.00  0.00    -0.279 N 
ATOM      8  H10 UNL     1      14.357  25.308  11.019  1.00  0.00     0.176 HD
HETATM    9  S1  UNL     1      16.457  24.294  10.310  1.00  0.00     0.236 S 
HETATM   10  O2  UNL     1      17.146  23.090  10.827  1.00  0.00    -0.205 OA
HETATM   11  O3  UNL     1      15.826  23.943   8.981  1.00  0.00    -0.205 OA
HETATM   12  C7  UNL     1      17.552  25.671  10.056  1.00  0.00     0.240 C 
ENDROOT
BRANCH   6  13
HETATM   13  N5  UNL     1      14.656  25.539  13.502  1.00  0.00    -0.336 N 
ATOM     14  H5  UNL     1      13.984  26.130  13.012  1.00  0.00     0.164 HD
BRANCH  13  15
HETATM   15  C5  UNL     1      14.678  25.546  14.939  1.00  0.00     0.153 C 
HETATM   16  N6  UNL     1      15.288  26.487  15.541  1.00  0.00    -0.292 N 
ATOM     17  H6  UNL     1      15.737  27.200  14.967  1.00  0.00     0.187 HD
BRANCH  16  18
HETATM   18  N7  UNL     1      15.387  26.616  16.907  1.00  0.00    -0.344 N 
ATOM     19  H72 UNL     1      14.678  26.136  17.460  1.00  0.00     0.176 HD
ATOM     20  H71 UNL     1      16.108  27.149  17.394  1.00  0.00     0.176 HD
ENDBRANCH  16  18
BRANCH  15  21
HETATM   21  C6  UNL     1      13.971  24.430  15.603  1.00  0.00     0.445 C 
BRANCH  21  22
HETATM   22  N8  UNL     1      14.746  23.707  16.555  1.00  0.00    -0.043 N 
ATOM     23  H83 UNL     1      14.186  22.964  16.975  1.00  0.00     0.277 HD
ATOM     24  H82 UNL     1      15.455  23.148  16.081  1.00  0.00     0.277 HD
ATOM     25  H81 UNL     1      15.176  24.277  17.283  1.00  0.00     0.277 HD
ENDBRANCH  21  22
BRANCH  21  26
HETATM   26  N9  UNL     1      12.739  24.965  16.178  1.00  0.00    -0.043 N 
ATOM     27  H93 UNL     1      12.561  25.931  15.905  1.00  0.00     0.277 HD
ATOM     28  H92 UNL     1      11.899  24.553  15.771  1.00  0.00     0.277 HD
ATOM     29  H91 UNL     1      12.791  24.842  17.189  1.00  0.00     0.277 HD
ENDBRANCH  21  26
ENDBRANCH  15  21
ENDBRANCH  13  15
ENDBRANCH   6  13
BRANCH   1  30
HETATM   30  N2  UNL     1      18.963  27.332  11.074  1.00  0.00    -0.313 N 
HETATM   31  C2  UNL     1      19.559  28.161  11.989  1.00  0.00     0.248 C 
HETATM   32  O1  UNL     1      19.360  28.115  13.215  1.00  0.00    -0.271 OA
ATOM     33  H2  UNL     1      19.224  27.487  10.100  1.00  0.00     0.170 HD
BRANCH  31  34
HETATM   34  C1  UNL     1      20.522  29.212  11.531  1.00  0.00     0.332 C 
BRANCH  34  35
HETATM   35  N1  UNL     1      20.291  30.423  12.263  1.00  0.00    -0.071 N 
ATOM     36  H13 UNL     1      19.776  31.112  11.716  1.00  0.00     0.274 HD
ATOM     37  H12 UNL     1      19.612  30.296  13.013  1.00  0.00     0.274 HD
ATOM     38  H11 UNL     1      21.180  30.788  12.605  1.00  0.00     0.274 HD
ENDBRANCH  34  35
ENDBRANCH  31  34
ENDBRANCH   1  30
TORSDOF 9
ENDMDL
MODEL 4
REMARK VINA RESULT: -6.096312822      5.083      8.008
REMARK  9 active torsions:
REMARK  status: ('A' for Active; 'I' for Inactive)
REMARK    1  A    between atoms: N1_1  and  C1_5 
REMARK    2  A    between atoms: C1_5  and  C2_6 
REMARK       I    between atoms: C2_6  and  N2_8 
REMARK    3  A    between atoms: N2_8  and  C3_10 
REMARK    4  A    between atoms: C4_15  and  N5_16 
REMARK    5  A    between atoms: N5_16  and  C5_18 
REMARK    6  A    between atoms: C5_18  and  C6_24 
REMARK    7  A    between atoms: N6_19  and  N7_21 
REMARK    8  A    between atoms: C6_24  and  N8_25 
REMARK    9  A    between atoms: C6_24  and  N9_29 
ROOT
HETATM    1  C3  UNL     1      18.563  26.722  11.102  1.00  0.00     0.114 C 
HETATM    2  N3  UNL     1      18.435  26.249  12.297  1.00  0.00    -0.289 N 
ATOM      3  H3  UNL     1      18.888  26.774  13.045  1.00  0.00     0.188 HD
HETATM    4  N4  UNL     1      17.753  25.112  12.672  1.00  0.00    -0.294 N 
ATOM      5  H4  UNL     1      18.276  24.510  13.308  1.00  0.00     0.184 HD
HETATM    6  C4  UNL     1      16.451  24.609  12.344  1.00  0.00     0.314 C 
HETATM    7  N10 UNL     1      16.001  24.954  11.025  1.00  0.00    -0.279 N 
ATOM      8  H10 UNL     1      15.063  25.291  10.813  1.00  0.00     0.176 HD
HETATM    9  S1  UNL     1      17.229  24.732   9.846  1.00  0.00     0.236 S 
HETATM   10  O2  UNL     1      18.112  23.575  10.114  1.00  0.00    -0.205 OA
HETATM   11  O3  UNL     1      16.564  24.519   8.505  1.00  0.00    -0.205 OA
HETATM   12  C7  UNL     1      18.103  26.280   9.791  1.00  0.00     0.240 C 
ENDROOT
BRANCH   6  13
HETATM   13  N5  UNL     1      15.497  25.145  13.283  1.00  0.00    -0.336 N 
ATOM     14  H5  UNL     1      15.418  26.157  13.388  1.00  0.00     0.164 HD
BRANCH  13  15
HETATM   15  C5  UNL     1      14.654  24.292  14.075  1.00  0.00     0.153 C 
HETATM   16  N6  UNL     1      14.833  23.033  14.029  1.00  0.00    -0.292 N 
ATOM     17  H6  UNL     1      15.578  22.686  13.423  1.00  0.00     0.187 HD
BRANCH  16  18
HETATM   18  N7  UNL     1      14.102  22.105  14.731  1.00  0.00    -0.344 N 
ATOM     19  H72 UNL     1      13.660  22.432  15.590  1.00  0.00     0.176 HD
ATOM     20  H71 UNL     1      13.973  21.131  14.458  1.00  0.00     0.176 HD
ENDBRANCH  16  18
BRANCH  15  21
HETATM   21  C6  UNL     1      13.628  24.975  14.893  1.00  0.00     0.445 C 
BRANCH  21  22
HETATM   22  N8  UNL     1      14.102  25.522  16.121  1.00  0.00    -0.043 N 
ATOM     23  H83 UNL     1      13.968  24.854  16.880  1.00  0.00     0.277 HD
ATOM     24  H82 UNL     1      15.120  25.579  16.111  1.00  0.00     0.277 HD
ATOM     25  H81 UNL     1      13.702  26.426  16.373  1.00  0.00     0.277 HD
ENDBRANCH  21  22
BRANCH  21  26
HETATM   26  N9  UNL     1      12.984  25.979  14.049  1.00  0.00    -0.043 N 
ATOM     27  H93 UNL     1      13.513  26.183  13.201  1.00  0.00     0.277 HD
ATOM     28  H92 UNL     1      12.136  25.633  13.598  1.00  0.00     0.277 HD
ATOM     29  H91 UNL     1      12.818  26.806  14.622  1.00  0.00     0.277 HD
ENDBRANCH  21  26
ENDBRANCH  15  21
ENDBRANCH  13  15
ENDBRANCH   6  13
BRANCH   1  30
HETATM   30  N2  UNL     1      19.336  27.937  11.021  1.00  0.00    -0.313 N 
HETATM   31  C2  UNL     1      19.773  28.744  12.040  1.00  0.00     0.248 C 
HETATM   32  O1  UNL     1      19.555  28.536  13.246  1.00  0.00    -0.271 OA
ATOM     33  H2  UNL     1      19.592  28.235  10.080  1.00  0.00     0.170 HD
BRANCH  31  34
HETATM   34  C1  UNL     1      20.569  29.975  11.732  1.00  0.00     0.332 C 
BRANCH  34  35
HETATM   35  N1  UNL     1      20.545  30.855  12.865  1.00  0.00    -0.071 N 
ATOM     36  H13 UNL     1      19.843  30.580  13.551  1.00  0.00     0.274 HD
ATOM     37  H12 UNL     1      21.372  30.749  13.452  1.00  0.00     0.274 HD
ATOM     38  H11 UNL     1      20.418  31.815  12.545  1.00  0.00     0.274 HD
ENDBRANCH  34  35
ENDBRANCH  31  34
ENDBRANCH   1  30
TORSDOF 9
ENDMDL
MODEL 5
REMARK VINA RESULT: -6.070581415      4.650      7.085
REMARK  9 active torsions:
REMARK  status: ('A' for Active; 'I' for Inactive)
REMARK    1  A    between atoms: N1_1  and  C1_5 
REMARK    2  A    between atoms: C1_5  and  C2_6 
REMARK       I    between atoms: C2_6  and  N2_8 
REMARK    3  A    between atoms: N2_8  and  C3_10 
REMARK    4  A    between atoms: C4_15  and  N5_16 
REMARK    5  A    between atoms: N5_16  and  C5_18 
REMARK    6  A    between atoms: C5_18  and  C6_24 
REMARK    7  A    between atoms: N6_19  and  N7_21 
REMARK    8  A    between atoms: C6_24  and  N8_25 
REMARK    9  A    between atoms: C6_24  and  N9_29 
ROOT
HETATM    1  C3  UNL     1      16.628  24.972   9.933  1.00  0.00     0.114 C 
HETATM    2  N3  UNL     1      17.161  25.251  11.075  1.00  0.00    -0.289 N 
ATOM      3  H3  UNL     1      17.923  25.929  11.067  1.00  0.00     0.188 HD
HETATM    4  N4  UNL     1      16.812  24.734  12.304  1.00  0.00    -0.294 N 
ATOM      5  H4  UNL     1      17.610  24.429  12.862  1.00  0.00     0.184 HD
HETATM    6  C4  UNL     1      15.549  24.540  12.953  1.00  0.00     0.314 C 
HETATM    7  N10 UNL     1      14.463  24.262  12.055  1.00  0.00    -0.279 N 
ATOM      8  H10 UNL     1      13.543  24.696  12.122  1.00  0.00     0.176 HD
HETATM    9  S1  UNL     1      14.895  23.112  10.856  1.00  0.00     0.236 S 
HETATM   10  O2  UNL     1      15.822  22.064  11.340  1.00  0.00    -0.205 OA
HETATM   11  O3  UNL     1      13.631  22.438  10.372  1.00  0.00    -0.205 OA
HETATM   12  C7  UNL     1      15.562  24.069   9.515  1.00  0.00     0.240 C 
ENDROOT
BRANCH   6  13
HETATM   13  N5  UNL     1      15.214  25.738  13.683  1.00  0.00    -0.336 N 
ATOM     14  H5  UNL     1      15.150  26.624  13.180  1.00  0.00     0.164 HD
BRANCH  13  15
HETATM   15  C5  UNL     1      14.969  25.717  15.098  1.00  0.00     0.153 C 
HETATM   16  N6  UNL     1      15.489  26.620  15.828  1.00  0.00    -0.292 N 
ATOM     17  H6  UNL     1      16.063  27.325  15.365  1.00  0.00     0.187 HD
BRANCH  16  18
HETATM   18  N7  UNL     1      15.338  26.718  17.191  1.00  0.00    -0.344 N 
ATOM     19  H72 UNL     1      14.743  26.018  17.633  1.00  0.00     0.176 HD
ATOM     20  H71 UNL     1      15.772  27.431  17.779  1.00  0.00     0.176 HD
ENDBRANCH  16  18
BRANCH  15  21
HETATM   21  C6  UNL     1      14.110  24.617  15.590  1.00  0.00     0.445 C 
BRANCH  21  22
HETATM   22  N8  UNL     1      14.722  23.756  16.548  1.00  0.00    -0.043 N 
ATOM     23  H83 UNL     1      14.296  22.830  16.512  1.00  0.00     0.277 HD
ATOM     24  H82 UNL     1      15.672  23.526  16.258  1.00  0.00     0.277 HD
ATOM     25  H81 UNL     1      14.721  24.108  17.505  1.00  0.00     0.277 HD
ENDBRANCH  21  22
BRANCH  21  26
HETATM   26  N9  UNL     1      12.871  25.211  16.087  1.00  0.00    -0.043 N 
ATOM     27  H93 UNL     1      12.656  26.105  15.648  1.00  0.00     0.277 HD
ATOM     28  H92 UNL     1      12.038  24.707  15.781  1.00  0.00     0.277 HD
ATOM     29  H91 UNL     1      12.944  25.276  17.102  1.00  0.00     0.277 HD
ENDBRANCH  21  26
ENDBRANCH  15  21
ENDBRANCH  13  15
ENDBRANCH   6  13
BRANCH   1  30
HETATM   30  N2  UNL     1      17.205  25.679   8.816  1.00  0.00    -0.313 N 
HETATM   31  C2  UNL     1      16.722  26.779   8.156  1.00  0.00     0.248 C 
HETATM   32  O1  UNL     1      15.661  27.360   8.439  1.00  0.00    -0.271 OA
ATOM     33  H2  UNL     1      18.091  25.310   8.471  1.00  0.00     0.170 HD
BRANCH  31  34
HETATM   34  C1  UNL     1      17.488  27.360   7.007  1.00  0.00     0.332 C 
BRANCH  34  35
HETATM   35  N1  UNL     1      17.957  28.669   7.360  1.00  0.00    -0.071 N 
ATOM     36  H13 UNL     1      17.333  29.404   7.029  1.00  0.00     0.274 HD
ATOM     37  H12 UNL     1      17.878  28.850   8.360  1.00  0.00     0.274 HD
ATOM     38  H11 UNL     1      18.911  28.790   7.019  1.00  0.00     0.274 HD
ENDBRANCH  34  35
ENDBRANCH  31  34
ENDBRANCH   1  30
TORSDOF 9
ENDMDL
