MODEL 1
REMARK VINA RESULT: -7.515128221      0.000      0.000
REMARK  5 active torsions:
REMARK  status: ('A' for Active; 'I' for Inactive)
REMARK    1  A    between atoms: C2_2  and  O1_3 
REMARK    2  A    between atoms: C2_2  and  N1_5 
REMARK    3  A    between atoms: N1_5  and  C3_7 
REMARK    4  A    between atoms: C11_16  and  O2_17 
REMARK    5  A    between atoms: O2_17  and  C12_18 
REMARK       I    between atoms: C12_18  and  N3_20 
ROOT
HETATM    1  C3  UNL     1     -32.064  33.207   1.813  1.00  0.00     0.079 C 
HETATM    2  C4  UNL     1     -31.035  32.162   1.687  1.00  0.00     0.025 C 
HETATM    3  C5  UNL     1     -31.377  30.781   2.139  1.00  0.00     0.002 C 
HETATM    4  C6  UNL     1     -31.171  29.684   1.155  1.00  0.00     0.001 C 
HETATM    5  C7  UNL     1     -31.616  29.844  -0.224  1.00  0.00     0.019 C 
HETATM    6  C8  UNL     1     -33.096  29.564  -0.498  1.00  0.00     0.095 C 
HETATM    7  C9  UNL     1     -33.684  28.948   0.662  1.00  0.00     0.064 C 
HETATM    8  N2  UNL     1     -34.168  28.446   1.575  1.00  0.00    -0.197 NA
HETATM    9  C10 UNL     1     -33.776  30.704  -1.103  1.00  0.00     0.052 C 
HETATM   10  C11 UNL     1     -34.638  31.643  -0.407  1.00  0.00     0.138 C 
HETATM   11  C15 UNL     1     -33.946  32.925   0.104  1.00  0.00     0.013 C 
HETATM   12  C16 UNL     1     -33.038  33.496  -0.939  1.00  0.00     0.012 C 
HETATM   13  C17 UNL     1     -33.476  32.832   1.489  1.00  0.00     0.031 C 
ENDROOT
BRANCH  10  14
HETATM   14  O2  UNL     1     -35.445  31.199   0.646  1.00  0.00    -0.298 OA
BRANCH  14  15
HETATM   15  C12 UNL     1     -36.820  31.381   0.696  1.00  0.00     0.362 C 
HETATM   16  O3  UNL     1     -37.221  32.411   1.291  1.00  0.00    -0.238 OA
HETATM   17  N3  UNL     1     -37.781  30.510   0.137  1.00  0.00    -0.337 N 
HETATM   18  C13 UNL     1     -39.192  30.876   0.286  1.00  0.00     0.154 C 
HETATM   19  C14 UNL     1     -37.443  29.287  -0.563  1.00  0.00     0.154 C 
ENDBRANCH  14  15
ENDBRANCH  10  14
BRANCH   1  20
HETATM   20  N1  UNL     1     -31.719  34.458   1.249  1.00  0.00    -0.393 N 
ATOM     21  H1  UNL     1     -31.595  34.521   0.239  1.00  0.00     0.156 HD
BRANCH  20  22
HETATM   22  C2  UNL     1     -31.539  35.621   2.025  1.00  0.00     0.209 C 
HETATM   23  C1  UNL     1     -31.013  35.476   3.418  1.00  0.00     0.062 C 
BRANCH  22  24
HETATM   24  O1  UNL     1     -30.674  36.545   1.358  1.00  0.00    -0.378 OA
ATOM     25  H1  UNL     1     -30.847  36.454   0.428  1.00  0.00     0.212 HD
ENDBRANCH  22  24
ENDBRANCH  20  22
ENDBRANCH   1  20
TORSDOF 5
ENDMDL
MODEL 2
REMARK VINA RESULT: -7.467234597      0.697      1.106
REMARK  5 active torsions:
REMARK  status: ('A' for Active; 'I' for Inactive)
REMARK    1  A    between atoms: C2_2  and  O1_3 
REMARK    2  A    between atoms: C2_2  and  N1_5 
REMARK    3  A    between atoms: N1_5  and  C3_7 
REMARK    4  A    between atoms: C11_16  and  O2_17 
REMARK    5  A    between atoms: O2_17  and  C12_18 
REMARK       I    between atoms: C12_18  and  N3_20 
ROOT
HETATM    1  C3  UNL     1     -32.216  33.183   1.774  1.00  0.00     0.079 C 
HETATM    2  C4  UNL     1     -31.141  32.180   1.718  1.00  0.00     0.025 C 
HETATM    3  C5  UNL     1     -31.450  30.791   2.170  1.00  0.00     0.002 C 
HETATM    4  C6  UNL     1     -31.146  29.692   1.214  1.00  0.00     0.001 C 
HETATM    5  C7  UNL     1     -31.521  29.817  -0.189  1.00  0.00     0.019 C 
HETATM    6  C8  UNL     1     -32.972  29.473  -0.538  1.00  0.00     0.095 C 
HETATM    7  C9  UNL     1     -33.596  28.846   0.597  1.00  0.00     0.064 C 
HETATM    8  N2  UNL     1     -34.108  28.335   1.491  1.00  0.00    -0.197 NA
HETATM    9  C10 UNL     1     -33.665  30.576  -1.194  1.00  0.00     0.052 C 
HETATM   10  C11 UNL     1     -34.600  31.487  -0.559  1.00  0.00     0.138 C 
HETATM   11  C15 UNL     1     -33.991  32.802  -0.029  1.00  0.00     0.013 C 
HETATM   12  C16 UNL     1     -33.051  33.399  -1.030  1.00  0.00     0.012 C 
HETATM   13  C17 UNL     1     -33.592  32.745   1.380  1.00  0.00     0.031 C 
ENDROOT
BRANCH  10  14
HETATM   14  O2  UNL     1     -35.445  31.021   0.456  1.00  0.00    -0.298 OA
BRANCH  14  15
HETATM   15  C12 UNL     1     -36.761  30.635   0.249  1.00  0.00     0.362 C 
HETATM   16  O3  UNL     1     -36.933  29.506  -0.273  1.00  0.00    -0.238 OA
HETATM   17  N3  UNL     1     -37.900  31.404   0.577  1.00  0.00    -0.337 N 
HETATM   18  C13 UNL     1     -39.213  30.823   0.288  1.00  0.00     0.154 C 
HETATM   19  C14 UNL     1     -37.831  32.724   1.171  1.00  0.00     0.154 C 
ENDBRANCH  14  15
ENDBRANCH  10  14
BRANCH   1  20
HETATM   20  N1  UNL     1     -31.893  34.440   1.212  1.00  0.00    -0.393 N 
ATOM     21  H1  UNL     1     -31.839  34.522   0.197  1.00  0.00     0.156 HD
BRANCH  20  22
HETATM   22  C2  UNL     1     -31.644  35.584   1.996  1.00  0.00     0.209 C 
HETATM   23  C1  UNL     1     -31.048  35.402   3.356  1.00  0.00     0.062 C 
BRANCH  22  24
HETATM   24  O1  UNL     1     -30.793  36.499   1.298  1.00  0.00    -0.378 OA
ATOM     25  H1  UNL     1     -31.364  37.102   0.837  1.00  0.00     0.212 HD
ENDBRANCH  22  24
ENDBRANCH  20  22
ENDBRANCH   1  20
TORSDOF 5
ENDMDL
MODEL 3
REMARK VINA RESULT: -6.692149991      2.360      4.467
REMARK  5 active torsions:
REMARK  status: ('A' for Active; 'I' for Inactive)
REMARK    1  A    between atoms: C2_2  and  O1_3 
REMARK    2  A    between atoms: C2_2  and  N1_5 
REMARK    3  A    between atoms: N1_5  and  C3_7 
REMARK    4  A    between atoms: C11_16  and  O2_17 
REMARK    5  A    between atoms: O2_17  and  C12_18 
REMARK       I    between atoms: C12_18  and  N3_20 
ROOT
HETATM    1  C3  UNL     1     -32.270  34.130   0.951  1.00  0.00     0.079 C 
HETATM    2  C4  UNL     1     -33.518  34.446   0.237  1.00  0.00     0.025 C 
HETATM    3  C5  UNL     1     -33.785  33.750  -1.056  1.00  0.00     0.002 C 
HETATM    4  C6  UNL     1     -35.084  33.036  -1.178  1.00  0.00     0.001 C 
HETATM    5  C7  UNL     1     -35.559  32.189  -0.090  1.00  0.00     0.019 C 
HETATM    6  C8  UNL     1     -34.991  30.768  -0.037  1.00  0.00     0.095 C 
HETATM    7  C9  UNL     1     -34.277  30.497  -1.257  1.00  0.00     0.064 C 
HETATM    8  N2  UNL     1     -33.711  30.260  -2.229  1.00  0.00    -0.197 NA
HETATM    9  C10 UNL     1     -34.337  30.475   1.233  1.00  0.00     0.052 C 
HETATM   10  C11 UNL     1     -32.904  30.478   1.469  1.00  0.00     0.138 C 
HETATM   11  C15 UNL     1     -32.323  31.802   2.011  1.00  0.00     0.013 C 
HETATM   12  C16 UNL     1     -33.182  32.357   3.103  1.00  0.00     0.012 C 
HETATM   13  C17 UNL     1     -31.825  32.701   0.966  1.00  0.00     0.031 C 
ENDROOT
BRANCH  10  14
HETATM   14  O2  UNL     1     -32.031  30.064   0.457  1.00  0.00    -0.298 OA
BRANCH  14  15
HETATM   15  C12 UNL     1     -31.100  29.046   0.608  1.00  0.00     0.362 C 
HETATM   16  O3  UNL     1     -30.117  29.299   1.346  1.00  0.00    -0.238 OA
HETATM   17  N3  UNL     1     -31.177  27.772   0.004  1.00  0.00    -0.337 N 
HETATM   18  C13 UNL     1     -30.097  26.823   0.289  1.00  0.00     0.154 C 
HETATM   19  C14 UNL     1     -32.255  27.366  -0.876  1.00  0.00     0.154 C 
ENDBRANCH  14  15
ENDBRANCH  10  14
BRANCH   1  20
HETATM   20  N1  UNL     1     -32.143  34.725   2.227  1.00  0.00    -0.393 N 
ATOM     21  H1  UNL     1     -32.517  34.230   3.037  1.00  0.00     0.156 HD
BRANCH  20  22
HETATM   22  C2  UNL     1     -31.520  35.974   2.428  1.00  0.00     0.209 C 
HETATM   23  C1  UNL     1     -30.691  36.169   3.658  1.00  0.00     0.062 C 
BRANCH  22  24
HETATM   24  O1  UNL     1     -30.683  36.304   1.315  1.00  0.00    -0.378 OA
ATOM     25  H1  UNL     1     -30.875  37.207   1.092  1.00  0.00     0.212 HD
ENDBRANCH  22  24
ENDBRANCH  20  22
ENDBRANCH   1  20
TORSDOF 5
ENDMDL
MODEL 4
REMARK VINA RESULT: -6.345738025      2.114      5.610
REMARK  5 active torsions:
REMARK  status: ('A' for Active; 'I' for Inactive)
REMARK    1  A    between atoms: C2_2  and  O1_3 
REMARK    2  A    between atoms: C2_2  and  N1_5 
REMARK    3  A    between atoms: N1_5  and  C3_7 
REMARK    4  A    between atoms: C11_16  and  O2_17 
REMARK    5  A    between atoms: O2_17  and  C12_18 
REMARK       I    between atoms: C12_18  and  N3_20 
ROOT
HETATM    1  C3  UNL     1     -33.629  29.449   0.507  1.00  0.00     0.079 C 
HETATM    2  C4  UNL     1     -35.012  29.046   0.202  1.00  0.00     0.025 C 
HETATM    3  C5  UNL     1     -36.124  29.849   0.790  1.00  0.00     0.002 C 
HETATM    4  C6  UNL     1     -37.142  30.379  -0.158  1.00  0.00     0.001 C 
HETATM    5  C7  UNL     1     -36.724  31.009  -1.404  1.00  0.00     0.019 C 
HETATM    6  C8  UNL     1     -36.307  32.479  -1.316  1.00  0.00     0.095 C 
HETATM    7  C9  UNL     1     -36.666  32.997  -0.022  1.00  0.00     0.064 C 
HETATM    8  N2  UNL     1     -36.955  33.430   1.003  1.00  0.00    -0.197 NA
HETATM    9  C10 UNL     1     -34.952  32.706  -1.806  1.00  0.00     0.052 C 
HETATM   10  C11 UNL     1     -33.771  32.880  -0.980  1.00  0.00     0.138 C 
HETATM   11  C15 UNL     1     -32.956  31.598  -0.707  1.00  0.00     0.013 C 
HETATM   12  C16 UNL     1     -32.785  30.795  -1.959  1.00  0.00     0.012 C 
HETATM   13  C17 UNL     1     -33.326  30.914   0.535  1.00  0.00     0.031 C 
ENDROOT
BRANCH  10  14
HETATM   14  O2  UNL     1     -33.873  33.536   0.252  1.00  0.00    -0.298 OA
BRANCH  14  15
HETATM   15  C12 UNL     1     -33.059  34.593   0.635  1.00  0.00     0.362 C 
HETATM   16  O3  UNL     1     -33.102  35.617  -0.089  1.00  0.00    -0.238 OA
HETATM   17  N3  UNL     1     -32.202  34.598   1.758  1.00  0.00    -0.337 N 
HETATM   18  C13 UNL     1     -31.422  35.813   2.006  1.00  0.00     0.154 C 
HETATM   19  C14 UNL     1     -32.057  33.474   2.661  1.00  0.00     0.154 C 
ENDBRANCH  14  15
ENDBRANCH  10  14
BRANCH   1  20
HETATM   20  N1  UNL     1     -32.629  28.726  -0.185  1.00  0.00    -0.393 N 
ATOM     21  H1  UNL     1     -32.750  28.556  -1.183  1.00  0.00     0.156 HD
BRANCH  20  22
HETATM   22  C2  UNL     1     -31.469  28.233   0.448  1.00  0.00     0.209 C 
HETATM   23  C1  UNL     1     -30.564  27.328  -0.325  1.00  0.00     0.062 C 
BRANCH  22  24
HETATM   24  O1  UNL     1     -30.657  29.311   0.925  1.00  0.00    -0.378 OA
ATOM     25  H1  UNL     1     -30.197  29.657   0.169  1.00  0.00     0.212 HD
ENDBRANCH  22  24
ENDBRANCH  20  22
ENDBRANCH   1  20
TORSDOF 5
ENDMDL
MODEL 5
REMARK VINA RESULT: -6.320759681      2.577      5.011
REMARK  5 active torsions:
REMARK  status: ('A' for Active; 'I' for Inactive)
REMARK    1  A    between atoms: C2_2  and  O1_3 
REMARK    2  A    between atoms: C2_2  and  N1_5 
REMARK    3  A    between atoms: N1_5  and  C3_7 
REMARK    4  A    between atoms: C11_16  and  O2_17 
REMARK    5  A    between atoms: O2_17  and  C12_18 
REMARK       I    between atoms: C12_18  and  N3_20 
ROOT
HETATM    1  C3  UNL     1     -31.022  29.434   0.481  1.00  0.00     0.079 C 
HETATM    2  C4  UNL     1     -30.571  30.243   1.624  1.00  0.00     0.025 C 
HETATM    3  C5  UNL     1     -30.451  31.719   1.438  1.00  0.00     0.002 C 
HETATM    4  C6  UNL     1     -31.176  32.579   2.411  1.00  0.00     0.001 C 
HETATM    5  C7  UNL     1     -32.553  32.269   2.778  1.00  0.00     0.019 C 
HETATM    6  C8  UNL     1     -33.639  32.757   1.816  1.00  0.00     0.095 C 
HETATM    7  C9  UNL     1     -33.054  33.656   0.857  1.00  0.00     0.064 C 
HETATM    8  N2  UNL     1     -32.605  34.383   0.089  1.00  0.00    -0.197 NA
HETATM    9  C10 UNL     1     -34.483  31.671   1.330  1.00  0.00     0.052 C 
HETATM   10  C11 UNL     1     -34.376  31.031   0.031  1.00  0.00     0.138 C 
HETATM   11  C15 UNL     1     -33.513  29.753  -0.010  1.00  0.00     0.013 C 
HETATM   12  C16 UNL     1     -33.820  28.860   1.152  1.00  0.00     0.012 C 
HETATM   13  C17 UNL     1     -32.114  29.994  -0.376  1.00  0.00     0.031 C 
ENDROOT
BRANCH  10  14
HETATM   14  O2  UNL     1     -33.998  31.784  -1.086  1.00  0.00    -0.298 OA
BRANCH  14  15
HETATM   15  C12 UNL     1     -34.898  32.395  -1.948  1.00  0.00     0.362 C 
HETATM   16  O3  UNL     1     -34.703  33.612  -2.182  1.00  0.00    -0.238 OA
HETATM   17  N3  UNL     1     -35.996  31.758  -2.568  1.00  0.00    -0.337 N 
HETATM   18  C13 UNL     1     -36.834  32.569  -3.454  1.00  0.00     0.154 C 
HETATM   19  C14 UNL     1     -36.331  30.362  -2.367  1.00  0.00     0.154 C 
ENDBRANCH  14  15
ENDBRANCH  10  14
BRANCH   1  20
HETATM   20  N1  UNL     1     -31.238  28.065   0.763  1.00  0.00    -0.393 N 
ATOM     21  H1  UNL     1     -31.865  27.816   1.528  1.00  0.00     0.156 HD
BRANCH  20  22
HETATM   22  C2  UNL     1     -30.622  27.029   0.032  1.00  0.00     0.209 C 
HETATM   23  C1  UNL     1     -29.813  27.390  -1.173  1.00  0.00     0.062 C 
BRANCH  22  24
HETATM   24  O1  UNL     1     -29.768  26.252   0.878  1.00  0.00    -0.378 OA
ATOM     25  H1  UNL     1     -28.946  26.151   0.413  1.00  0.00     0.212 HD
ENDBRANCH  22  24
ENDBRANCH  20  22
ENDBRANCH   1  20
TORSDOF 5
ENDMDL
