MODEL 1
REMARK VINA RESULT: -5.943344974      0.000      0.000
REMARK  8 active torsions:
REMARK  status: ('A' for Active; 'I' for Inactive)
REMARK    1  A    between atoms: C2_2  and  O1_3 
REMARK    2  A    between atoms: O1_3  and  C3_4 
REMARK    3  A    between atoms: C3_4  and  C4_6 
REMARK    4  A    between atoms: C6_11  and  C7_12 
REMARK    5  A    between atoms: C7_12  and  O6_13 
REMARK    6  A    between atoms: C7_12  and  C10_17 
REMARK    7  A    between atoms: O6_13  and  C8_14 
REMARK    8  A    between atoms: C10_17  and  O8_18 
ROOT
HETATM    1  C7  UNL     1      18.470  81.458  -1.034  1.00  0.00     0.231 C 
ENDROOT
BRANCH   1   2
HETATM    2  C6  UNL     1      19.618  81.905  -0.236  1.00  0.00     0.132 A 
HETATM    3  C4  UNL     1      19.585  82.763   0.825  1.00  0.00     0.189 A 
HETATM    4  O3  UNL     1      20.840  82.881   1.255  1.00  0.00    -0.246 OA
HETATM    5  C5  UNL     1      21.619  82.153   0.521  1.00  0.00     0.417 A 
HETATM    6  O4  UNL     1      22.870  82.047   0.668  1.00  0.00    -0.229 OA
HETATM    7  O5  UNL     1      20.871  81.569  -0.377  1.00  0.00    -0.254 OA
BRANCH   3   8
HETATM    8  C3  UNL     1      18.493  83.478   1.463  1.00  0.00     0.320 C 
HETATM    9  O2  UNL     1      17.453  83.874   0.886  1.00  0.00    -0.257 OA
BRANCH   8  10
HETATM   10  O1  UNL     1      18.563  83.769   2.820  1.00  0.00    -0.316 OA
BRANCH  10  11
HETATM   11  C2  UNL     1      18.553  82.796   3.825  1.00  0.00     0.175 C 
HETATM   12  C1  UNL     1      18.539  83.344   5.228  1.00  0.00     0.034 C 
ENDBRANCH  10  11
ENDBRANCH   8  10
ENDBRANCH   3   8
ENDBRANCH   1   2
BRANCH   1  13
HETATM   13  O6  UNL     1      18.477  80.023  -0.856  1.00  0.00    -0.306 OA
BRANCH  13  14
HETATM   14  C8  UNL     1      17.645  79.264  -0.128  1.00  0.00     0.255 C 
HETATM   15  C9  UNL     1      16.664  79.945   0.784  1.00  0.00     0.126 C 
HETATM   16  O7  UNL     1      17.676  78.028  -0.199  1.00  0.00    -0.266 OA
ENDBRANCH  13  14
ENDBRANCH   1  13
BRANCH   1  17
HETATM   17  C10 UNL     1      18.633  81.615  -2.513  1.00  0.00     0.120 C 
HETATM   18  C11 UNL     1      17.402  81.097  -3.166  1.00  0.00    -0.050 C 
HETATM   19  C12 UNL     1      17.339  79.739  -3.788  1.00  0.00     0.046 C 
HETATM   20  C13 UNL     1      16.332  81.875  -3.216  1.00  0.00    -0.021 C 
HETATM   21  C14 UNL     1      16.307  83.225  -2.657  1.00  0.00     0.028 C 
HETATM   22  C15 UNL     1      17.634  83.894  -2.760  1.00  0.00     0.016 C 
HETATM   23  C16 UNL     1      18.798  82.974  -3.066  1.00  0.00    -0.009 C 
HETATM   24  C17 UNL     1      20.053  83.728  -2.707  1.00  0.00     0.018 C 
HETATM   25  C18 UNL     1      18.873  82.851  -4.576  1.00  0.00     0.018 C 
BRANCH  17  26
HETATM   26  O8  UNL     1      19.699  80.824  -2.935  1.00  0.00    -0.381 OA
ATOM     27  H8  UNL     1      19.606  79.957  -2.559  1.00  0.00     0.211 HD
ENDBRANCH  17  26
ENDBRANCH   1  17
TORSDOF 8
ENDMDL
MODEL 2
REMARK VINA RESULT: -5.907725184      1.200      1.583
REMARK  8 active torsions:
REMARK  status: ('A' for Active; 'I' for Inactive)
REMARK    1  A    between atoms: C2_2  and  O1_3 
REMARK    2  A    between atoms: O1_3  and  C3_4 
REMARK    3  A    between atoms: C3_4  and  C4_6 
REMARK    4  A    between atoms: C6_11  and  C7_12 
REMARK    5  A    between atoms: C7_12  and  O6_13 
REMARK    6  A    between atoms: C7_12  and  C10_17 
REMARK    7  A    between atoms: O6_13  and  C8_14 
REMARK    8  A    between atoms: C10_17  and  O8_18 
ROOT
HETATM    1  C7  UNL     1      17.827  80.607  -1.585  1.00  0.00     0.231 C 
ENDROOT
BRANCH   1   2
HETATM    2  C6  UNL     1      19.033  81.283  -1.089  1.00  0.00     0.132 A 
HETATM    3  C4  UNL     1      19.076  82.328  -0.212  1.00  0.00     0.189 A 
HETATM    4  O3  UNL     1      20.363  82.617  -0.031  1.00  0.00    -0.246 OA
HETATM    5  C5  UNL     1      21.090  81.816  -0.741  1.00  0.00     0.417 A 
HETATM    6  O4  UNL     1      22.353  81.829  -0.792  1.00  0.00    -0.229 OA
HETATM    7  O5  UNL     1      20.277  81.015  -1.377  1.00  0.00    -0.254 OA
BRANCH   3   8
HETATM    8  C3  UNL     1      18.028  83.075   0.462  1.00  0.00     0.320 C 
HETATM    9  O2  UNL     1      17.024  83.580  -0.098  1.00  0.00    -0.257 OA
BRANCH   8  10
HETATM   10  O1  UNL     1      18.099  83.274   1.834  1.00  0.00    -0.316 OA
BRANCH  10  11
HETATM   11  C2  UNL     1      18.423  82.267   2.750  1.00  0.00     0.175 C 
HETATM   12  C1  UNL     1      18.449  82.712   4.188  1.00  0.00     0.034 C 
ENDBRANCH  10  11
ENDBRANCH   8  10
ENDBRANCH   3   8
ENDBRANCH   1   2
BRANCH   1  13
HETATM   13  O6  UNL     1      17.931  79.281  -1.020  1.00  0.00    -0.306 OA
BRANCH  13  14
HETATM   14  C8  UNL     1      17.242  78.747   0.001  1.00  0.00     0.255 C 
HETATM   15  C9  UNL     1      16.451  79.663   0.890  1.00  0.00     0.126 C 
HETATM   16  O7  UNL     1      17.252  77.528   0.213  1.00  0.00    -0.266 OA
ENDBRANCH  13  14
ENDBRANCH   1  13
BRANCH   1  17
HETATM   17  C10 UNL     1      17.814  80.346  -3.058  1.00  0.00     0.120 C 
HETATM   18  C11 UNL     1      16.712  79.391  -3.343  1.00  0.00    -0.050 C 
HETATM   19  C12 UNL     1      16.957  77.932  -3.560  1.00  0.00     0.046 C 
HETATM   20  C13 UNL     1      15.474  79.853  -3.428  1.00  0.00    -0.021 C 
HETATM   21  C14 UNL     1      15.142  81.266  -3.255  1.00  0.00     0.028 C 
HETATM   22  C15 UNL     1      16.231  82.156  -3.745  1.00  0.00     0.016 C 
HETATM   23  C16 UNL     1      17.566  81.477  -3.974  1.00  0.00    -0.009 C 
HETATM   24  C17 UNL     1      18.603  82.569  -4.036  1.00  0.00     0.018 C 
HETATM   25  C18 UNL     1      17.539  80.928  -5.388  1.00  0.00     0.018 C 
BRANCH  17  26
HETATM   26  O8  UNL     1      19.011  79.730  -3.417  1.00  0.00    -0.381 OA
ATOM     27  H8  UNL     1      18.866  79.210  -4.198  1.00  0.00     0.211 HD
ENDBRANCH  17  26
ENDBRANCH   1  17
TORSDOF 8
ENDMDL
MODEL 3
REMARK VINA RESULT: -5.769938020      4.069      7.700
REMARK  8 active torsions:
REMARK  status: ('A' for Active; 'I' for Inactive)
REMARK    1  A    between atoms: C2_2  and  O1_3 
REMARK    2  A    between atoms: O1_3  and  C3_4 
REMARK    3  A    between atoms: C3_4  and  C4_6 
REMARK    4  A    between atoms: C6_11  and  C7_12 
REMARK    5  A    between atoms: C7_12  and  O6_13 
REMARK    6  A    between atoms: C7_12  and  C10_17 
REMARK    7  A    between atoms: O6_13  and  C8_14 
REMARK    8  A    between atoms: C10_17  and  O8_18 
ROOT
HETATM    1  C7  UNL     1      19.759  83.831   4.894  1.00  0.00     0.231 C 
ENDROOT
BRANCH   1   2
HETATM    2  C6  UNL     1      19.389  83.780   3.474  1.00  0.00     0.132 A 
HETATM    3  C4  UNL     1      20.181  83.368   2.443  1.00  0.00     0.189 A 
HETATM    4  O3  UNL     1      19.447  83.473   1.337  1.00  0.00    -0.246 OA
HETATM    5  C5  UNL     1      18.272  83.923   1.639  1.00  0.00     0.417 A 
HETATM    6  O4  UNL     1      17.338  84.136   0.814  1.00  0.00    -0.229 OA
HETATM    7  O5  UNL     1      18.247  84.106   2.932  1.00  0.00    -0.254 OA
BRANCH   3   8
HETATM    8  C3  UNL     1      21.553  82.891   2.401  1.00  0.00     0.320 C 
HETATM    9  O2  UNL     1      21.902  81.712   2.153  1.00  0.00    -0.257 OA
BRANCH   8  10
HETATM   10  O1  UNL     1      22.595  83.775   2.649  1.00  0.00    -0.316 OA
BRANCH  10  11
HETATM   11  C2  UNL     1      23.689  83.948   1.793  1.00  0.00     0.175 C 
HETATM   12  C1  UNL     1      24.516  85.175   2.073  1.00  0.00     0.034 C 
ENDBRANCH  10  11
ENDBRANCH   8  10
ENDBRANCH   3   8
ENDBRANCH   1   2
BRANCH   1  13
HETATM   13  O6  UNL     1      18.600  83.284   5.562  1.00  0.00    -0.306 OA
BRANCH  13  14
HETATM   14  C8  UNL     1      18.172  82.013   5.595  1.00  0.00     0.255 C 
HETATM   15  C9  UNL     1      17.757  81.429   6.915  1.00  0.00     0.126 C 
HETATM   16  O7  UNL     1      18.118  81.328   4.565  1.00  0.00    -0.266 OA
ENDBRANCH  13  14
ENDBRANCH   1  13
BRANCH   1  17
HETATM   17  C10 UNL     1      19.861  85.209   5.469  1.00  0.00     0.120 C 
HETATM   18  C11 UNL     1      19.761  85.097   6.947  1.00  0.00    -0.050 C 
HETATM   19  C12 UNL     1      18.494  85.387   7.686  1.00  0.00     0.046 C 
HETATM   20  C13 UNL     1      20.838  84.747   7.634  1.00  0.00    -0.021 C 
HETATM   21  C14 UNL     1      22.124  84.467   7.000  1.00  0.00     0.028 C 
HETATM   22  C15 UNL     1      22.339  85.302   5.785  1.00  0.00     0.016 C 
HETATM   23  C16 UNL     1      21.099  85.980   5.242  1.00  0.00    -0.009 C 
HETATM   24  C17 UNL     1      21.416  86.396   3.828  1.00  0.00     0.018 C 
HETATM   25  C18 UNL     1      20.962  87.299   5.980  1.00  0.00     0.018 C 
BRANCH  17  26
HETATM   26  O8  UNL     1      18.774  85.962   5.028  1.00  0.00    -0.381 OA
ATOM     27  H8  UNL     1      19.087  86.633   4.433  1.00  0.00     0.211 HD
ENDBRANCH  17  26
ENDBRANCH   1  17
TORSDOF 8
ENDMDL
MODEL 4
REMARK VINA RESULT: -5.455662602      1.760      4.386
REMARK  8 active torsions:
REMARK  status: ('A' for Active; 'I' for Inactive)
REMARK    1  A    between atoms: C2_2  and  O1_3 
REMARK    2  A    between atoms: O1_3  and  C3_4 
REMARK    3  A    between atoms: C3_4  and  C4_6 
REMARK    4  A    between atoms: C6_11  and  C7_12 
REMARK    5  A    between atoms: C7_12  and  O6_13 
REMARK    6  A    between atoms: C7_12  and  C10_17 
REMARK    7  A    between atoms: O6_13  and  C8_14 
REMARK    8  A    between atoms: C10_17  and  O8_18 
ROOT
HETATM    1  C7  UNL     1      19.760  81.572  -1.337  1.00  0.00     0.231 C 
ENDROOT
BRANCH   1   2
HETATM    2  C6  UNL     1      19.187  81.446   0.010  1.00  0.00     0.132 A 
HETATM    3  C4  UNL     1      18.213  80.573   0.398  1.00  0.00     0.189 A 
HETATM    4  O3  UNL     1      18.006  80.791   1.696  1.00  0.00    -0.246 OA
HETATM    5  C5  UNL     1      18.790  81.736   2.106  1.00  0.00     0.417 A 
HETATM    6  O4  UNL     1      18.839  82.180   3.288  1.00  0.00    -0.229 OA
HETATM    7  O5  UNL     1      19.498  82.125   1.080  1.00  0.00    -0.254 OA
BRANCH   3   8
HETATM    8  C3  UNL     1      17.464  79.564  -0.331  1.00  0.00     0.320 C 
HETATM    9  O2  UNL     1      16.412  79.775  -0.982  1.00  0.00    -0.257 OA
BRANCH   8  10
HETATM   10  O1  UNL     1      17.907  78.248  -0.336  1.00  0.00    -0.316 OA
BRANCH  10  11
HETATM   11  C2  UNL     1      17.055  77.140  -0.289  1.00  0.00     0.175 C 
HETATM   12  C1  UNL     1      17.356  76.073  -1.309  1.00  0.00     0.034 C 
ENDBRANCH  10  11
ENDBRANCH   8  10
ENDBRANCH   3   8
ENDBRANCH   1   2
BRANCH   1  13
HETATM   13  O6  UNL     1      21.178  81.709  -1.085  1.00  0.00    -0.306 OA
BRANCH  13  14
HETATM   14  C8  UNL     1      22.170  80.861  -1.395  1.00  0.00     0.255 C 
HETATM   15  C9  UNL     1      23.387  80.829  -0.515  1.00  0.00     0.126 C 
HETATM   16  O7  UNL     1      22.094  80.118  -2.382  1.00  0.00    -0.266 OA
ENDBRANCH  13  14
ENDBRANCH   1  13
BRANCH   1  17
HETATM   17  C10 UNL     1      19.420  82.844  -2.048  1.00  0.00     0.120 C 
HETATM   18  C11 UNL     1      20.106  82.828  -3.366  1.00  0.00    -0.050 C 
HETATM   19  C12 UNL     1      21.376  83.578  -3.614  1.00  0.00     0.046 C 
HETATM   20  C13 UNL     1      19.562  82.143  -4.360  1.00  0.00    -0.021 C 
HETATM   21  C14 UNL     1      18.311  81.401  -4.218  1.00  0.00     0.028 C 
HETATM   22  C15 UNL     1      17.379  82.059  -3.261  1.00  0.00     0.016 C 
HETATM   23  C16 UNL     1      18.006  83.115  -2.373  1.00  0.00    -0.009 C 
HETATM   24  C17 UNL     1      17.054  83.338  -1.227  1.00  0.00     0.018 C 
HETATM   25  C18 UNL     1      17.953  84.421  -3.143  1.00  0.00     0.018 C 
BRANCH  17  26
HETATM   26  O8  UNL     1      19.928  83.917  -1.319  1.00  0.00    -0.381 OA
ATOM     27  H8  UNL     1      19.218  84.514  -1.117  1.00  0.00     0.211 HD
ENDBRANCH  17  26
ENDBRANCH   1  17
TORSDOF 8
ENDMDL
MODEL 5
REMARK VINA RESULT: -5.440940764      1.394      1.864
REMARK  8 active torsions:
REMARK  status: ('A' for Active; 'I' for Inactive)
REMARK    1  A    between atoms: C2_2  and  O1_3 
REMARK    2  A    between atoms: O1_3  and  C3_4 
REMARK    3  A    between atoms: C3_4  and  C4_6 
REMARK    4  A    between atoms: C6_11  and  C7_12 
REMARK    5  A    between atoms: C7_12  and  O6_13 
REMARK    6  A    between atoms: C7_12  and  C10_17 
REMARK    7  A    between atoms: O6_13  and  C8_14 
REMARK    8  A    between atoms: C10_17  and  O8_18 
ROOT
HETATM    1  C7  UNL     1      16.988  81.056  -1.990  1.00  0.00     0.231 C 
ENDROOT
BRANCH   1   2
HETATM    2  C6  UNL     1      18.339  81.317  -1.479  1.00  0.00     0.132 A 
HETATM    3  C4  UNL     1      18.667  82.111  -0.419  1.00  0.00     0.189 A 
HETATM    4  O3  UNL     1      19.993  82.054  -0.300  1.00  0.00    -0.246 OA
HETATM    5  C5  UNL     1      20.476  81.281  -1.218  1.00  0.00     0.417 A 
HETATM    6  O4  UNL     1      21.702  81.017  -1.378  1.00  0.00    -0.229 OA
HETATM    7  O5  UNL     1      19.470  80.841  -1.925  1.00  0.00    -0.254 OA
BRANCH   3   8
HETATM    8  C3  UNL     1      17.858  82.914   0.481  1.00  0.00     0.320 C 
HETATM    9  O2  UNL     1      16.987  83.744   0.125  1.00  0.00    -0.257 OA
BRANCH   8  10
HETATM   10  O1  UNL     1      18.027  82.788   1.854  1.00  0.00    -0.316 OA
BRANCH  10  11
HETATM   11  C2  UNL     1      18.841  83.631   2.618  1.00  0.00     0.175 C 
HETATM   12  C1  UNL     1      18.744  83.418   4.106  1.00  0.00     0.034 C 
ENDBRANCH  10  11
ENDBRANCH   8  10
ENDBRANCH   3   8
ENDBRANCH   1   2
BRANCH   1  13
HETATM   13  O6  UNL     1      16.781  79.657  -1.690  1.00  0.00    -0.306 OA
BRANCH  13  14
HETATM   14  C8  UNL     1      16.975  79.009  -0.532  1.00  0.00     0.255 C 
HETATM   15  C9  UNL     1      16.273  79.509   0.697  1.00  0.00     0.126 C 
HETATM   16  O7  UNL     1      17.716  78.019  -0.468  1.00  0.00    -0.266 OA
ENDBRANCH  13  14
ENDBRANCH   1  13
BRANCH   1  17
HETATM   17  C10 UNL     1      16.858  81.105  -3.480  1.00  0.00     0.120 C 
HETATM   18  C11 UNL     1      15.519  80.570  -3.841  1.00  0.00    -0.050 C 
HETATM   19  C12 UNL     1      15.324  79.173  -4.337  1.00  0.00     0.046 C 
HETATM   20  C13 UNL     1      14.466  81.367  -3.737  1.00  0.00    -0.021 C 
HETATM   21  C14 UNL     1      14.563  82.753  -3.284  1.00  0.00     0.028 C 
HETATM   22  C15 UNL     1      15.849  83.383  -3.694  1.00  0.00     0.016 C 
HETATM   23  C16 UNL     1      16.923  82.417  -4.152  1.00  0.00    -0.009 C 
HETATM   24  C17 UNL     1      18.230  83.166  -4.102  1.00  0.00     0.018 C 
HETATM   25  C18 UNL     1      16.699  82.187  -5.635  1.00  0.00     0.018 C 
BRANCH  17  26
HETATM   26  O8  UNL     1      17.815  80.262  -4.042  1.00  0.00    -0.381 OA
ATOM     27  H8  UNL     1      18.502  80.793  -4.428  1.00  0.00     0.211 HD
ENDBRANCH  17  26
ENDBRANCH   1  17
TORSDOF 8
ENDMDL
