MODEL 1
REMARK VINA RESULT: -5.443964924      0.000      0.000
REMARK  7 active torsions:
REMARK  status: ('A' for Active; 'I' for Inactive)
REMARK    1  A    between atoms: C2_2  and  N1_3 
REMARK    2  A    between atoms: C2_2  and  C8_23 
REMARK    3  A    between atoms: N1_3  and  C3_5 
REMARK    4  A    between atoms: C3_5  and  C5_7 
REMARK    5  A    between atoms: C5_7  and  N3_10 
REMARK    6  A    between atoms: N3_10  and  N4_12 
REMARK    7  A    between atoms: N4_12  and  C7_14 
ROOT
HETATM    1  C5  UNL     1      11.521   9.204  10.795  1.00  0.00     0.128 C 
HETATM    2  C6  UNL     1      12.558   9.801  10.026  1.00  0.00     0.116 C 
HETATM    3  N2  UNL     1      13.388  10.296   9.390  1.00  0.00    -0.190 NA
ENDROOT
BRANCH   1   4
HETATM    4  C3  UNL     1      10.742  10.014  11.753  1.00  0.00     0.140 C 
HETATM    5  C4  UNL     1      11.509  10.183  13.039  1.00  0.00     0.039 C 
BRANCH   4   6
HETATM    6  N1  UNL     1       9.398   9.620  11.900  1.00  0.00    -0.382 N 
ATOM      7  H1  UNL     1       9.272   8.831  12.534  1.00  0.00     0.160 HD
BRANCH   6   8
HETATM    8  C2  UNL     1       8.322  10.043  11.408  1.00  0.00     0.021 C 
HETATM    9  C1  UNL     1       7.093  10.357  12.188  1.00  0.00     0.069 C 
BRANCH   8  10
HETATM   10  C8  UNL     1       8.251  10.250   9.960  1.00  0.00     0.097 A 
HETATM   11  C9  UNL     1       8.322   9.325   8.947  1.00  0.00     0.148 A 
HETATM   12  N9  UNL     1       8.484   7.932   9.120  1.00  0.00    -0.080 NA
HETATM   13  N10 UNL     1       8.209   9.993   7.785  1.00  0.00    -0.284 N 
HETATM   14  N11 UNL     1       8.071  11.287   8.032  1.00  0.00    -0.264 N 
ATOM     15  H10 UNL     1       8.227   9.568   6.858  1.00  0.00     0.188 HD
HETATM   16  C10 UNL     1       8.091  11.494   9.355  1.00  0.00     0.275 A 
ATOM     17  H11 UNL     1       7.966  12.013   7.323  1.00  0.00     0.190 HD
HETATM   18  O1  UNL     1       7.984  12.610   9.907  1.00  0.00    -0.266 OA
ENDBRANCH   8  10
ENDBRANCH   6   8
ENDBRANCH   4   6
ENDBRANCH   1   4
BRANCH   1  19
HETATM   19  N3  UNL     1      11.261   7.962  10.660  1.00  0.00    -0.278 N 
ATOM     20  H3  UNL     1      10.592   7.546  11.308  1.00  0.00     0.188 HD
BRANCH  19  21
HETATM   21  N4  UNL     1      11.821   7.137   9.700  1.00  0.00    -0.129 N 
ATOM     22  H4  UNL     1      12.795   6.857   9.808  1.00  0.00     0.205 HD
BRANCH  21  23
HETATM   23  C7  UNL     1      11.162   6.703   8.666  1.00  0.00     0.728 A 
HETATM   24  N5  UNL     1      11.073   7.385   7.510  1.00  0.00    -0.114 N 
HETATM   25  N6  UNL     1      10.331   6.648   6.687  1.00  0.00    -0.213 N 
ATOM     26  H5  UNL     1      11.493   8.292   7.305  1.00  0.00     0.207 HD
HETATM   27  N7  UNL     1       9.963   5.546   7.291  1.00  0.00    -0.213 N 
ATOM     28  H6  UNL     1      10.086   6.902   5.729  1.00  0.00     0.210 HD
HETATM   29  N8  UNL     1      10.468   5.570   8.509  1.00  0.00    -0.114 N 
ATOM     30  H7  UNL     1       9.388   4.803   6.892  1.00  0.00     0.210 HD
ATOM     31  H8  UNL     1      10.349   4.844   9.214  1.00  0.00     0.207 HD
ENDBRANCH  21  23
ENDBRANCH  19  21
ENDBRANCH   1  19
TORSDOF 7
ENDMDL
MODEL 2
REMARK VINA RESULT: -5.347015644      4.281      5.952
REMARK  7 active torsions:
REMARK  status: ('A' for Active; 'I' for Inactive)
REMARK    1  A    between atoms: C2_2  and  N1_3 
REMARK    2  A    between atoms: C2_2  and  C8_23 
REMARK    3  A    between atoms: N1_3  and  C3_5 
REMARK    4  A    between atoms: C3_5  and  C5_7 
REMARK    5  A    between atoms: C5_7  and  N3_10 
REMARK    6  A    between atoms: N3_10  and  N4_12 
REMARK    7  A    between atoms: N4_12  and  C7_14 
ROOT
HETATM    1  C5  UNL     1      14.869   8.245   8.181  1.00  0.00     0.128 C 
HETATM    2  C6  UNL     1      14.979   9.203   9.226  1.00  0.00     0.116 C 
HETATM    3  N2  UNL     1      15.085   9.990  10.068  1.00  0.00    -0.190 NA
ENDROOT
BRANCH   1   4
HETATM    4  C3  UNL     1      14.461   8.665   6.825  1.00  0.00     0.140 C 
HETATM    5  C4  UNL     1      15.091   9.989   6.476  1.00  0.00     0.039 C 
BRANCH   4   6
HETATM    6  N1  UNL     1      13.079   8.568   6.570  1.00  0.00    -0.382 N 
ATOM      7  H1  UNL     1      12.857   8.412   5.586  1.00  0.00     0.160 HD
BRANCH   6   8
HETATM    8  C2  UNL     1      12.065   8.635   7.308  1.00  0.00     0.021 C 
HETATM    9  C1  UNL     1      11.560   9.878   7.953  1.00  0.00     0.069 C 
BRANCH   8  10
HETATM   10  C8  UNL     1      11.309   7.407   7.567  1.00  0.00     0.097 A 
HETATM   11  C9  UNL     1      10.379   6.779   6.777  1.00  0.00     0.148 A 
HETATM   12  N9  UNL     1       9.953   7.220   5.504  1.00  0.00    -0.080 NA
HETATM   13  N10 UNL     1       9.961   5.686   7.440  1.00  0.00    -0.284 N 
HETATM   14  N11 UNL     1      10.591   5.608   8.603  1.00  0.00    -0.264 N 
ATOM     15  H10 UNL     1       9.267   5.020   7.101  1.00  0.00     0.188 HD
HETATM   16  C10 UNL     1      11.431   6.645   8.726  1.00  0.00     0.275 A 
ATOM     17  H11 UNL     1      10.457   4.873   9.296  1.00  0.00     0.190 HD
HETATM   18  O1  UNL     1      12.168   6.855   9.712  1.00  0.00    -0.266 OA
ENDBRANCH   8  10
ENDBRANCH   6   8
ENDBRANCH   4   6
ENDBRANCH   1   4
BRANCH   1  19
HETATM   19  N3  UNL     1      15.119   7.015   8.413  1.00  0.00    -0.278 N 
ATOM     20  H3  UNL     1      14.337   6.361   8.385  1.00  0.00     0.188 HD
BRANCH  19  21
HETATM   21  N4  UNL     1      16.373   6.505   8.701  1.00  0.00    -0.129 N 
ATOM     22  H4  UNL     1      16.618   6.340   9.677  1.00  0.00     0.205 HD
BRANCH  21  23
HETATM   23  C7  UNL     1      17.253   6.227   7.785  1.00  0.00     0.728 A 
HETATM   24  N5  UNL     1      18.050   5.146   7.834  1.00  0.00    -0.114 N 
HETATM   25  N6  UNL     1      18.814   5.183   6.744  1.00  0.00    -0.213 N 
ATOM     26  H5  UNL     1      18.067   4.434   8.566  1.00  0.00     0.207 HD
HETATM   27  N7  UNL     1      18.517   6.241   6.033  1.00  0.00    -0.213 N 
ATOM     28  H6  UNL     1      19.523   4.491   6.500  1.00  0.00     0.210 HD
HETATM   29  N8  UNL     1      17.558   6.891   6.664  1.00  0.00    -0.114 N 
ATOM     30  H7  UNL     1      18.950   6.515   5.150  1.00  0.00     0.210 HD
ATOM     31  H8  UNL     1      17.121   7.757   6.349  1.00  0.00     0.207 HD
ENDBRANCH  21  23
ENDBRANCH  19  21
ENDBRANCH   1  19
TORSDOF 7
ENDMDL
MODEL 3
REMARK VINA RESULT: -5.330857634      2.277      4.392
REMARK  7 active torsions:
REMARK  status: ('A' for Active; 'I' for Inactive)
REMARK    1  A    between atoms: C2_2  and  N1_3 
REMARK    2  A    between atoms: C2_2  and  C8_23 
REMARK    3  A    between atoms: N1_3  and  C3_5 
REMARK    4  A    between atoms: C3_5  and  C5_7 
REMARK    5  A    between atoms: C5_7  and  N3_10 
REMARK    6  A    between atoms: N3_10  and  N4_12 
REMARK    7  A    between atoms: N4_12  and  C7_14 
ROOT
HETATM    1  C5  UNL     1      10.240   8.374   5.528  1.00  0.00     0.128 C 
HETATM    2  C6  UNL     1      10.738   7.884   4.289  1.00  0.00     0.116 C 
HETATM    3  N2  UNL     1      11.142   7.503   3.274  1.00  0.00    -0.190 NA
ENDROOT
BRANCH   1   4
HETATM    4  C3  UNL     1      11.052   9.296   6.347  1.00  0.00     0.140 C 
HETATM    5  C4  UNL     1      12.454   8.764   6.498  1.00  0.00     0.039 C 
BRANCH   4   6
HETATM    6  N1  UNL     1      10.436   9.721   7.540  1.00  0.00    -0.382 N 
ATOM      7  H1  UNL     1       9.428   9.563   7.556  1.00  0.00     0.160 HD
BRANCH   6   8
HETATM    8  C2  UNL     1      10.877  10.254   8.589  1.00  0.00     0.021 C 
HETATM    9  C1  UNL     1      11.698  11.494   8.636  1.00  0.00     0.069 C 
BRANCH   8  10
HETATM   10  C8  UNL     1      10.570   9.621   9.874  1.00  0.00     0.097 A 
HETATM   11  C9  UNL     1      11.109   8.488  10.434  1.00  0.00     0.148 A 
HETATM   12  N9  UNL     1      12.109   7.682   9.847  1.00  0.00    -0.080 NA
HETATM   13  N10 UNL     1      10.509   8.304  11.623  1.00  0.00    -0.284 N 
HETATM   14  N11 UNL     1       9.625   9.270  11.826  1.00  0.00    -0.264 N 
ATOM     15  H10 UNL     1      10.704   7.539  12.270  1.00  0.00     0.188 HD
HETATM   16  C10 UNL     1       9.626  10.104  10.778  1.00  0.00     0.275 A 
ATOM     17  H11 UNL     1       9.035   9.363  12.652  1.00  0.00     0.190 HD
HETATM   18  O1  UNL     1       8.901  11.115  10.666  1.00  0.00    -0.266 OA
ENDBRANCH   8  10
ENDBRANCH   6   8
ENDBRANCH   4   6
ENDBRANCH   1   4
BRANCH   1  19
HETATM   19  N3  UNL     1       9.085   8.015   5.938  1.00  0.00    -0.278 N 
ATOM     20  H3  UNL     1       8.341   8.712   5.923  1.00  0.00     0.188 HD
BRANCH  19  21
HETATM   21  N4  UNL     1       8.770   6.750   6.402  1.00  0.00    -0.129 N 
ATOM     22  H4  UNL     1       8.072   6.206   5.895  1.00  0.00     0.205 HD
BRANCH  21  23
HETATM   23  C7  UNL     1       9.323   6.222   7.453  1.00  0.00     0.728 A 
HETATM   24  N5  UNL     1       8.656   5.988   8.597  1.00  0.00    -0.114 N 
HETATM   25  N6  UNL     1       9.529   5.447   9.446  1.00  0.00    -0.213 N 
ATOM     26  H5  UNL     1       7.672   6.187   8.780  1.00  0.00     0.207 HD
HETATM   27  N7  UNL     1      10.699   5.342   8.869  1.00  0.00    -0.213 N 
ATOM     28  H6  UNL     1       9.317   5.158  10.401  1.00  0.00     0.210 HD
HETATM   29  N8  UNL     1      10.584   5.815   7.643  1.00  0.00    -0.114 N 
ATOM     30  H7  UNL     1      11.547   4.963   9.291  1.00  0.00     0.210 HD
ATOM     31  H8  UNL     1      11.334   5.864   6.953  1.00  0.00     0.207 HD
ENDBRANCH  21  23
ENDBRANCH  19  21
ENDBRANCH   1  19
TORSDOF 7
ENDMDL
MODEL 4
REMARK VINA RESULT: -5.247465857      2.413      4.772
REMARK  7 active torsions:
REMARK  status: ('A' for Active; 'I' for Inactive)
REMARK    1  A    between atoms: C2_2  and  N1_3 
REMARK    2  A    between atoms: C2_2  and  C8_23 
REMARK    3  A    between atoms: N1_3  and  C3_5 
REMARK    4  A    between atoms: C3_5  and  C5_7 
REMARK    5  A    between atoms: C5_7  and  N3_10 
REMARK    6  A    between atoms: N3_10  and  N4_12 
REMARK    7  A    between atoms: N4_12  and  C7_14 
ROOT
HETATM    1  C5  UNL     1       9.360   6.566   6.673  1.00  0.00     0.128 C 
HETATM    2  C6  UNL     1       8.008   6.229   6.955  1.00  0.00     0.116 C 
HETATM    3  N2  UNL     1       6.906   5.971   7.197  1.00  0.00    -0.190 NA
ENDROOT
BRANCH   1   4
HETATM    4  C3  UNL     1       9.679   7.769   5.878  1.00  0.00     0.140 C 
HETATM    5  C4  UNL     1       9.915   7.397   4.437  1.00  0.00     0.039 C 
BRANCH   4   6
HETATM    6  N1  UNL     1      10.653   8.611   6.451  1.00  0.00    -0.382 N 
ATOM      7  H1  UNL     1      11.610   8.309   6.267  1.00  0.00     0.160 HD
BRANCH   6   8
HETATM    8  C2  UNL     1      10.581   9.658   7.142  1.00  0.00     0.021 C 
HETATM    9  C1  UNL     1      11.698  10.229   7.943  1.00  0.00     0.069 C 
BRANCH   8  10
HETATM   10  C8  UNL     1       9.310  10.385   7.175  1.00  0.00     0.097 A 
HETATM   11  C9  UNL     1       8.835  11.341   6.311  1.00  0.00     0.148 A 
HETATM   12  N9  UNL     1       9.516  11.826   5.172  1.00  0.00    -0.080 NA
HETATM   13  N10 UNL     1       7.621  11.715   6.754  1.00  0.00    -0.284 N 
HETATM   14  N11 UNL     1       7.323  11.034   7.851  1.00  0.00    -0.264 N 
ATOM     15  H10 UNL     1       7.023  12.414   6.314  1.00  0.00     0.188 HD
HETATM   16  C10 UNL     1       8.331  10.204   8.149  1.00  0.00     0.275 A 
ATOM     17  H11 UNL     1       6.460  11.128   8.385  1.00  0.00     0.190 HD
HETATM   18  O1  UNL     1       8.353   9.427   9.128  1.00  0.00    -0.266 OA
ENDBRANCH   8  10
ENDBRANCH   6   8
ENDBRANCH   4   6
ENDBRANCH   1   4
BRANCH   1  19
HETATM   19  N3  UNL     1      10.305   5.825   7.104  1.00  0.00    -0.278 N 
ATOM     20  H3  UNL     1      10.911   5.382   6.413  1.00  0.00     0.188 HD
BRANCH  19  21
HETATM   21  N4  UNL     1      10.568   5.576   8.440  1.00  0.00    -0.129 N 
ATOM     22  H4  UNL     1      10.686   4.609   8.740  1.00  0.00     0.205 HD
BRANCH  21  23
HETATM   23  C7  UNL     1      10.670   6.519   9.329  1.00  0.00     0.728 A 
HETATM   24  N5  UNL     1      11.848   7.043   9.714  1.00  0.00    -0.114 N 
HETATM   25  N6  UNL     1      11.573   7.972  10.628  1.00  0.00    -0.213 N 
ATOM     26  H5  UNL     1      12.772   6.780   9.372  1.00  0.00     0.207 HD
HETATM   27  N7  UNL     1      10.279   8.036  10.818  1.00  0.00    -0.213 N 
ATOM     28  H6  UNL     1      12.266   8.548  11.107  1.00  0.00     0.210 HD
HETATM   29  N8  UNL     1       9.715   7.146  10.025  1.00  0.00    -0.114 N 
ATOM     30  H7  UNL     1       9.795   8.660  11.463  1.00  0.00     0.210 HD
ATOM     31  H8  UNL     1       8.713   6.966   9.953  1.00  0.00     0.207 HD
ENDBRANCH  21  23
ENDBRANCH  19  21
ENDBRANCH   1  19
TORSDOF 7
ENDMDL
MODEL 5
REMARK VINA RESULT: -5.247163135      2.960      5.038
REMARK  7 active torsions:
REMARK  status: ('A' for Active; 'I' for Inactive)
REMARK    1  A    between atoms: C2_2  and  N1_3 
REMARK    2  A    between atoms: C2_2  and  C8_23 
REMARK    3  A    between atoms: N1_3  and  C3_5 
REMARK    4  A    between atoms: C3_5  and  C5_7 
REMARK    5  A    between atoms: C5_7  and  N3_10 
REMARK    6  A    between atoms: N3_10  and  N4_12 
REMARK    7  A    between atoms: N4_12  and  C7_14 
ROOT
HETATM    1  C5  UNL     1       9.892   8.319   5.074  1.00  0.00     0.128 C 
HETATM    2  C6  UNL     1       9.676   7.804   3.766  1.00  0.00     0.116 C 
HETATM    3  N2  UNL     1       9.497   7.404   2.695  1.00  0.00    -0.190 NA
ENDROOT
BRANCH   1   4
HETATM    4  C3  UNL     1      11.084   9.141   5.365  1.00  0.00     0.140 C 
HETATM    5  C4  UNL     1      12.163   8.876   4.349  1.00  0.00     0.039 C 
BRANCH   4   6
HETATM    6  N1  UNL     1      11.502   9.115   6.710  1.00  0.00    -0.382 N 
ATOM      7  H1  UNL     1      12.083   8.308   6.939  1.00  0.00     0.160 HD
BRANCH   6   8
HETATM    8  C2  UNL     1      11.304   9.883   7.684  1.00  0.00     0.021 C 
HETATM    9  C1  UNL     1      11.514  11.357   7.664  1.00  0.00     0.069 C 
BRANCH   8  10
HETATM   10  C8  UNL     1      10.833   9.304   8.945  1.00  0.00     0.097 A 
HETATM   11  C9  UNL     1       9.556   9.241   9.446  1.00  0.00     0.148 A 
HETATM   12  N9  UNL     1       8.401   9.748   8.811  1.00  0.00    -0.080 NA
HETATM   13  N10 UNL     1       9.623   8.616  10.635  1.00  0.00    -0.284 N 
HETATM   14  N11 UNL     1      10.881   8.288  10.892  1.00  0.00    -0.264 N 
ATOM     15  H10 UNL     1       8.829   8.423  11.246  1.00  0.00     0.188 HD
HETATM   16  C10 UNL     1      11.663   8.691   9.881  1.00  0.00     0.275 A 
ATOM     17  H11 UNL     1      11.204   7.804  11.729  1.00  0.00     0.190 HD
HETATM   18  O1  UNL     1      12.900   8.529   9.824  1.00  0.00    -0.266 OA
ENDBRANCH   8  10
ENDBRANCH   6   8
ENDBRANCH   4   6
ENDBRANCH   1   4
BRANCH   1  19
HETATM   19  N3  UNL     1       9.054   8.069   6.004  1.00  0.00    -0.278 N 
ATOM     20  H3  UNL     1       8.591   8.861   6.449  1.00  0.00     0.188 HD
BRANCH  19  21
HETATM   21  N4  UNL     1       8.730   6.801   6.454  1.00  0.00    -0.129 N 
ATOM     22  H4  UNL     1       8.012   6.276   5.954  1.00  0.00     0.205 HD
BRANCH  21  23
HETATM   23  C7  UNL     1       9.297   6.247   7.485  1.00  0.00     0.728 A 
HETATM   24  N5  UNL     1       8.616   5.849   8.575  1.00  0.00    -0.114 N 
HETATM   25  N6  UNL     1       9.509   5.333   9.417  1.00  0.00    -0.213 N 
ATOM     26  H5  UNL     1       7.610   5.927   8.726  1.00  0.00     0.207 HD
HETATM   27  N7  UNL     1      10.705   5.401   8.888  1.00  0.00    -0.213 N 
ATOM     28  H6  UNL     1       9.294   4.944  10.335  1.00  0.00     0.210 HD
HETATM   29  N8  UNL     1      10.586   5.961   7.701  1.00  0.00    -0.114 N 
ATOM     30  H7  UNL     1      11.573   5.079   9.318  1.00  0.00     0.210 HD
ATOM     31  H8  UNL     1      11.351   6.146   7.052  1.00  0.00     0.207 HD
ENDBRANCH  21  23
ENDBRANCH  19  21
ENDBRANCH   1  19
TORSDOF 7
ENDMDL
