MODEL 1
REMARK VINA RESULT: -8.361278547      0.000      0.000
REMARK  6 active torsions:
REMARK  status: ('A' for Active; 'I' for Inactive)
REMARK    1  A    between atoms: C2_2  and  C4_4 
REMARK    2  A    between atoms: C4_4  and  C5_5 
REMARK    3  A    between atoms: C5_5  and  O1_6 
REMARK    4  A    between atoms: O1_6  and  C6_7 
REMARK       I    between atoms: C6_7  and  N1_9 
REMARK    5  A    between atoms: N2_12  and  C9_13 
REMARK    6  A    between atoms: N4_27  and  O4_29 
ROOT
HETATM    1  C6  UNL     1      -0.777 -10.190  17.606  1.00  0.00     0.363 C 
HETATM    2  O2  UNL     1       0.045 -11.088  17.293  1.00  0.00    -0.238 OA
HETATM    3  N1  UNL     1      -0.468  -9.348  18.713  1.00  0.00    -0.315 N 
HETATM    4  C7  UNL     1      -1.374  -8.289  19.128  1.00  0.00     0.149 C 
HETATM    5  C8  UNL     1      -0.677  -6.931  19.137  1.00  0.00     0.152 C 
HETATM    6  N2  UNL     1       0.496  -7.100  19.995  1.00  0.00    -0.312 N 
HETATM    7  C18 UNL     1       1.031  -8.352  20.327  1.00  0.00     0.128 C 
HETATM    8  N4  UNL     1       1.755  -8.492  21.384  1.00  0.00    -0.255 N 
ATOM      9  H4  UNL     1       1.930  -7.675  21.971  1.00  0.00     0.195 HD
HETATM   10  C19 UNL     1       0.757  -9.527  19.447  1.00  0.00     0.155 C 
HETATM   11  C20 UNL     1       1.942  -9.750  18.538  1.00  0.00     0.041 C 
ENDROOT
BRANCH   6  12
HETATM   12  C9  UNL     1       1.127  -5.924  20.521  1.00  0.00     0.153 A 
HETATM   13  N3  UNL     1       1.678  -4.926  19.856  1.00  0.00    -0.339 N 
HETATM   14  C10 UNL     1       2.209  -3.931  20.505  1.00  0.00     0.033 A 
ATOM     15  H3  UNL     1       1.687  -4.935  18.836  1.00  0.00     0.168 HD
HETATM   16  C11 UNL     1       2.170  -3.968  21.874  1.00  0.00     0.076 A 
HETATM   17  C17 UNL     1       2.882  -2.710  19.895  1.00  0.00     0.067 C 
HETATM   18  S1  UNL     1       1.363  -5.450  22.144  1.00  0.00    -0.048 SA
HETATM   19  C12 UNL     1       2.745  -2.887  22.708  1.00  0.00     0.169 C 
HETATM   20  O3  UNL     1       2.451  -2.928  23.935  1.00  0.00    -0.292 OA
HETATM   21  C13 UNL     1       3.612  -1.822  22.139  1.00  0.00     0.093 C 
HETATM   22  C14 UNL     1       4.040  -2.307  20.770  1.00  0.00    -0.036 C 
HETATM   23  C15 UNL     1       4.725  -1.140  20.087  1.00  0.00     0.015 C 
HETATM   24  C16 UNL     1       5.056  -3.396  20.940  1.00  0.00     0.015 C 
ENDBRANCH   6  12
BRANCH   8  25
HETATM   25  O4  UNL     1       2.302  -9.699  21.750  1.00  0.00    -0.288 OA
ATOM     26  H4  UNL     1       3.195  -9.782  22.060  1.00  0.00     0.244 HD
ENDBRANCH   8  25
BRANCH   1  27
HETATM   27  O1  UNL     1      -1.914 -10.081  16.864  1.00  0.00    -0.304 OA
BRANCH  27  28
HETATM   28  C5  UNL     1      -2.187  -9.186  15.822  1.00  0.00     0.181 C 
BRANCH  28  29
HETATM   29  C4  UNL     1      -3.360  -8.322  16.138  1.00  0.00     0.031 C 
BRANCH  29  30
HETATM   30  C2  UNL     1      -3.398  -7.072  15.270  1.00  0.00    -0.021 C 
HETATM   31  C1  UNL     1      -2.762  -7.333  13.924  1.00  0.00     0.009 C 
HETATM   32  C3  UNL     1      -2.681  -5.926  15.909  1.00  0.00     0.009 C 
ENDBRANCH  29  30
ENDBRANCH  28  29
ENDBRANCH  27  28
ENDBRANCH   1  27
TORSDOF 6
ENDMDL
MODEL 2
REMARK VINA RESULT: -8.176343303      1.362      2.168
REMARK  6 active torsions:
REMARK  status: ('A' for Active; 'I' for Inactive)
REMARK    1  A    between atoms: C2_2  and  C4_4 
REMARK    2  A    between atoms: C4_4  and  C5_5 
REMARK    3  A    between atoms: C5_5  and  O1_6 
REMARK    4  A    between atoms: O1_6  and  C6_7 
REMARK       I    between atoms: C6_7  and  N1_9 
REMARK    5  A    between atoms: N2_12  and  C9_13 
REMARK    6  A    between atoms: N4_27  and  O4_29 
ROOT
HETATM    1  C6  UNL     1      -1.391  -9.874  17.139  1.00  0.00     0.363 C 
HETATM    2  O2  UNL     1      -0.681 -10.815  16.705  1.00  0.00    -0.238 OA
HETATM    3  N1  UNL     1      -0.958  -9.186  18.309  1.00  0.00    -0.315 N 
HETATM    4  C7  UNL     1      -1.731  -8.086  18.864  1.00  0.00     0.149 C 
HETATM    5  C8  UNL     1      -0.891  -6.816  18.977  1.00  0.00     0.152 C 
HETATM    6  N2  UNL     1       0.284  -7.193  19.764  1.00  0.00    -0.312 N 
HETATM    7  C18 UNL     1       0.691  -8.521  19.948  1.00  0.00     0.128 C 
HETATM    8  N4  UNL     1       1.429  -8.843  20.954  1.00  0.00    -0.255 N 
ATOM      9  H4  UNL     1       1.709  -8.114  21.610  1.00  0.00     0.195 HD
HETATM   10  C19 UNL     1       0.264  -9.566  18.970  1.00  0.00     0.155 C 
HETATM   11  C20 UNL     1       1.388  -9.816  17.993  1.00  0.00     0.041 C 
ENDROOT
BRANCH   6  12
HETATM   12  C9  UNL     1       1.055  -6.149  20.376  1.00  0.00     0.153 A 
HETATM   13  N3  UNL     1       1.388  -6.018  21.646  1.00  0.00    -0.339 N 
HETATM   14  C10 UNL     1       2.099  -4.996  22.026  1.00  0.00     0.033 A 
ATOM     15  H3  UNL     1       1.089  -6.715  22.328  1.00  0.00     0.168 HD
HETATM   16  C11 UNL     1       2.475  -4.089  21.070  1.00  0.00     0.076 A 
HETATM   17  C17 UNL     1       2.565  -4.695  23.442  1.00  0.00     0.067 C 
HETATM   18  S1  UNL     1       1.772  -4.771  19.669  1.00  0.00    -0.048 SA
HETATM   19  C12 UNL     1       3.285  -2.892  21.395  1.00  0.00     0.169 C 
HETATM   20  O3  UNL     1       3.750  -2.261  20.406  1.00  0.00    -0.292 OA
HETATM   21  C13 UNL     1       3.536  -2.460  22.795  1.00  0.00     0.093 C 
HETATM   22  C14 UNL     1       2.536  -3.205  23.656  1.00  0.00    -0.036 C 
HETATM   23  C15 UNL     1       2.932  -2.956  25.098  1.00  0.00     0.015 C 
HETATM   24  C16 UNL     1       1.178  -2.606  23.445  1.00  0.00     0.015 C 
ENDBRANCH   6  12
BRANCH   8  25
HETATM   25  O4  UNL     1       1.853 -10.132  21.177  1.00  0.00    -0.288 OA
ATOM     26  H4  UNL     1       2.567 -10.339  21.768  1.00  0.00     0.244 HD
ENDBRANCH   8  25
BRANCH   1  27
HETATM   27  O1  UNL     1      -2.533  -9.571  16.460  1.00  0.00    -0.304 OA
BRANCH  27  28
HETATM   28  C5  UNL     1      -2.679  -8.762  15.327  1.00  0.00     0.181 C 
BRANCH  28  29
HETATM   29  C4  UNL     1      -3.448  -7.522  15.636  1.00  0.00     0.031 C 
BRANCH  29  30
HETATM   30  C2  UNL     1      -2.542  -6.306  15.757  1.00  0.00    -0.021 C 
HETATM   31  C1  UNL     1      -3.350  -5.059  16.035  1.00  0.00     0.009 C 
HETATM   32  C3  UNL     1      -1.746  -6.075  14.512  1.00  0.00     0.009 C 
ENDBRANCH  29  30
ENDBRANCH  28  29
ENDBRANCH  27  28
ENDBRANCH   1  27
TORSDOF 6
ENDMDL
MODEL 3
REMARK VINA RESULT: -7.824762696      1.349      2.182
REMARK  6 active torsions:
REMARK  status: ('A' for Active; 'I' for Inactive)
REMARK    1  A    between atoms: C2_2  and  C4_4 
REMARK    2  A    between atoms: C4_4  and  C5_5 
REMARK    3  A    between atoms: C5_5  and  O1_6 
REMARK    4  A    between atoms: O1_6  and  C6_7 
REMARK       I    between atoms: C6_7  and  N1_9 
REMARK    5  A    between atoms: N2_12  and  C9_13 
REMARK    6  A    between atoms: N4_27  and  O4_29 
ROOT
HETATM    1  C6  UNL     1      -0.547 -10.328  18.220  1.00  0.00     0.363 C 
HETATM    2  O2  UNL     1       0.253 -11.285  18.077  1.00  0.00    -0.238 OA
HETATM    3  N1  UNL     1      -0.308  -9.400  19.274  1.00  0.00    -0.315 N 
HETATM    4  C7  UNL     1      -1.195  -8.268  19.495  1.00  0.00     0.149 C 
HETATM    5  C8  UNL     1      -0.431  -6.947  19.457  1.00  0.00     0.152 C 
HETATM    6  N2  UNL     1       0.638  -7.085  20.447  1.00  0.00    -0.312 N 
HETATM    7  C18 UNL     1       1.069  -8.323  20.943  1.00  0.00     0.128 C 
HETATM    8  N4  UNL     1       1.674  -8.394  22.079  1.00  0.00    -0.255 N 
ATOM      9  H4  UNL     1       1.830  -7.535  22.607  1.00  0.00     0.195 HD
HETATM   10  C19 UNL     1       0.824  -9.562  20.147  1.00  0.00     0.155 C 
HETATM   11  C20 UNL     1       2.082  -9.921  19.393  1.00  0.00     0.041 C 
ENDROOT
BRANCH   6  12
HETATM   12  C9  UNL     1       1.274  -5.894  20.931  1.00  0.00     0.153 A 
HETATM   13  N3  UNL     1       1.548  -5.564  22.179  1.00  0.00    -0.339 N 
HETATM   14  C10 UNL     1       2.135  -4.431  22.435  1.00  0.00     0.033 A 
ATOM     15  H3  UNL     1       1.299  -6.195  22.941  1.00  0.00     0.168 HD
HETATM   16  C11 UNL     1       2.446  -3.619  21.375  1.00  0.00     0.076 A 
HETATM   17  C17 UNL     1       2.517  -3.901  23.808  1.00  0.00     0.067 C 
HETATM   18  S1  UNL     1       1.867  -4.549  20.063  1.00  0.00    -0.048 SA
HETATM   19  C12 UNL     1       3.115  -2.310  21.556  1.00  0.00     0.169 C 
HETATM   20  O3  UNL     1       3.545  -1.766  20.502  1.00  0.00    -0.292 OA
HETATM   21  C13 UNL     1       3.271  -1.676  22.891  1.00  0.00     0.093 C 
HETATM   22  C14 UNL     1       2.326  -2.407  23.823  1.00  0.00    -0.036 C 
HETATM   23  C15 UNL     1       2.642  -1.933  25.227  1.00  0.00     0.015 C 
HETATM   24  C16 UNL     1       0.920  -1.990  23.506  1.00  0.00     0.015 C 
ENDBRANCH   6  12
BRANCH   8  25
HETATM   25  O4  UNL     1       2.115  -9.585  22.607  1.00  0.00    -0.288 OA
ATOM     26  H4  UNL     1       1.869  -9.880  23.476  1.00  0.00     0.244 HD
ENDBRANCH   8  25
BRANCH   1  27
HETATM   27  O1  UNL     1      -1.596 -10.239  17.354  1.00  0.00    -0.304 OA
BRANCH  27  28
HETATM   28  C5  UNL     1      -1.675  -9.512  16.159  1.00  0.00     0.181 C 
BRANCH  28  29
HETATM   29  C4  UNL     1      -2.771  -8.502  16.206  1.00  0.00     0.031 C 
BRANCH  29  30
HETATM   30  C2  UNL     1      -2.500  -7.324  15.281  1.00  0.00    -0.021 C 
HETATM   31  C1  UNL     1      -3.121  -6.059  15.825  1.00  0.00     0.009 C 
HETATM   32  C3  UNL     1      -3.044  -7.555  13.908  1.00  0.00     0.009 C 
ENDBRANCH  29  30
ENDBRANCH  28  29
ENDBRANCH  27  28
ENDBRANCH   1  27
TORSDOF 6
ENDMDL
MODEL 4
REMARK VINA RESULT: -7.744889572      1.466      1.981
REMARK  6 active torsions:
REMARK  status: ('A' for Active; 'I' for Inactive)
REMARK    1  A    between atoms: C2_2  and  C4_4 
REMARK    2  A    between atoms: C4_4  and  C5_5 
REMARK    3  A    between atoms: C5_5  and  O1_6 
REMARK    4  A    between atoms: O1_6  and  C6_7 
REMARK       I    between atoms: C6_7  and  N1_9 
REMARK    5  A    between atoms: N2_12  and  C9_13 
REMARK    6  A    between atoms: N4_27  and  O4_29 
ROOT
HETATM    1  C6  UNL     1       0.340 -10.523  19.695  1.00  0.00     0.363 C 
HETATM    2  O2  UNL     1       1.073 -11.449  20.126  1.00  0.00    -0.238 OA
HETATM    3  N1  UNL     1       0.303  -9.298  20.422  1.00  0.00    -0.315 N 
HETATM    4  C7  UNL     1      -0.523  -8.186  19.979  1.00  0.00     0.149 C 
HETATM    5  C8  UNL     1       0.308  -6.922  19.776  1.00  0.00     0.152 C 
HETATM    6  N2  UNL     1       0.999  -6.700  21.048  1.00  0.00    -0.312 N 
HETATM    7  C18 UNL     1       1.160  -7.697  22.019  1.00  0.00     0.128 C 
HETATM    8  N4  UNL     1       1.369  -7.381  23.250  1.00  0.00    -0.255 N 
ATOM      9  H4  UNL     1       1.414  -6.393  23.502  1.00  0.00     0.195 HD
HETATM   10  C19 UNL     1       1.087  -9.134  21.618  1.00  0.00     0.155 C 
HETATM   11  C20 UNL     1       2.489  -9.674  21.461  1.00  0.00     0.041 C 
ENDROOT
BRANCH   6  12
HETATM   12  C9  UNL     1       1.535  -5.395  21.310  1.00  0.00     0.153 A 
HETATM   13  N3  UNL     1       2.192  -4.602  20.486  1.00  0.00    -0.339 N 
HETATM   14  C10 UNL     1       2.609  -3.441  20.899  1.00  0.00     0.033 A 
ATOM     15  H3  UNL     1       2.373  -4.898  19.526  1.00  0.00     0.168 HD
HETATM   16  C11 UNL     1       2.341  -3.092  22.197  1.00  0.00     0.076 A 
HETATM   17  C17 UNL     1       3.378  -2.413  20.084  1.00  0.00     0.067 C 
HETATM   18  S1  UNL     1       1.497  -4.472  22.746  1.00  0.00    -0.048 SA
HETATM   19  C12 UNL     1       2.770  -1.794  22.768  1.00  0.00     0.169 C 
HETATM   20  O3  UNL     1       2.274  -1.500  23.891  1.00  0.00    -0.292 OA
HETATM   21  C13 UNL     1       3.723  -0.894  22.067  1.00  0.00     0.093 C 
HETATM   22  C14 UNL     1       4.374  -1.726  20.981  1.00  0.00    -0.036 C 
HETATM   23  C15 UNL     1       5.167  -0.770  20.114  1.00  0.00     0.015 C 
HETATM   24  C16 UNL     1       5.344  -2.676  21.619  1.00  0.00     0.015 C 
ENDBRANCH   6  12
BRANCH   8  25
HETATM   25  O4  UNL     1       1.533  -8.323  24.237  1.00  0.00    -0.288 OA
ATOM     26  H4  UNL     1       1.393  -8.130  25.156  1.00  0.00     0.244 HD
ENDBRANCH   8  25
BRANCH   1  27
HETATM   27  O1  UNL     1      -0.373 -10.752  18.557  1.00  0.00    -0.304 OA
BRANCH  27  28
HETATM   28  C5  UNL     1      -0.134 -10.255  17.270  1.00  0.00     0.181 C 
BRANCH  28  29
HETATM   29  C4  UNL     1      -1.377 -10.250  16.446  1.00  0.00     0.031 C 
BRANCH  29  30
HETATM   30  C2  UNL     1      -1.923  -8.843  16.248  1.00  0.00    -0.021 C 
HETATM   31  C1  UNL     1      -2.796  -8.436  17.413  1.00  0.00     0.009 C 
HETATM   32  C3  UNL     1      -2.734  -8.729  14.998  1.00  0.00     0.009 C 
ENDBRANCH  29  30
ENDBRANCH  28  29
ENDBRANCH  27  28
ENDBRANCH   1  27
TORSDOF 6
ENDMDL
MODEL 5
REMARK VINA RESULT: -7.587590663      1.414      1.678
REMARK  6 active torsions:
REMARK  status: ('A' for Active; 'I' for Inactive)
REMARK    1  A    between atoms: C2_2  and  C4_4 
REMARK    2  A    between atoms: C4_4  and  C5_5 
REMARK    3  A    between atoms: C5_5  and  O1_6 
REMARK    4  A    between atoms: O1_6  and  C6_7 
REMARK       I    between atoms: C6_7  and  N1_9 
REMARK    5  A    between atoms: N2_12  and  C9_13 
REMARK    6  A    between atoms: N4_27  and  O4_29 
ROOT
HETATM    1  C6  UNL     1      -0.097  -9.928  18.289  1.00  0.00     0.363 C 
HETATM    2  O2  UNL     1       0.316 -11.087  18.545  1.00  0.00    -0.238 OA
HETATM    3  N1  UNL     1      -0.116  -8.970  19.342  1.00  0.00    -0.315 N 
HETATM    4  C7  UNL     1      -0.580  -7.611  19.114  1.00  0.00     0.149 C 
HETATM    5  C8  UNL     1       0.483  -6.587  19.502  1.00  0.00     0.152 C 
HETATM    6  N2  UNL     1       0.828  -6.888  20.893  1.00  0.00    -0.312 N 
HETATM    7  C18 UNL     1       0.539  -8.114  21.507  1.00  0.00     0.128 C 
HETATM    8  N4  UNL     1       0.456  -8.196  22.790  1.00  0.00    -0.255 N 
ATOM      9  H4  UNL     1       0.603  -7.354  23.346  1.00  0.00     0.195 HD
HETATM   10  C19 UNL     1       0.328  -9.329  20.664  1.00  0.00     0.155 C 
HETATM   11  C20 UNL     1       1.602 -10.139  20.639  1.00  0.00     0.041 C 
ENDROOT
BRANCH   6  12
HETATM   12  C9  UNL     1       1.492  -5.876  21.662  1.00  0.00     0.153 A 
HETATM   13  N3  UNL     1       1.859  -4.668  21.278  1.00  0.00    -0.339 N 
HETATM   14  C10 UNL     1       2.457  -3.875  22.119  1.00  0.00     0.033 A 
ATOM     15  H3  UNL     1       1.674  -4.356  20.324  1.00  0.00     0.168 HD
HETATM   16  C11 UNL     1       2.683  -4.343  23.387  1.00  0.00     0.076 A 
HETATM   17  C17 UNL     1       2.944  -2.461  21.839  1.00  0.00     0.067 C 
HETATM   18  S1  UNL     1       2.012  -5.911  23.287  1.00  0.00    -0.048 SA
HETATM   19  C12 UNL     1       3.356  -3.523  24.421  1.00  0.00     0.169 C 
HETATM   20  O3  UNL     1       3.303  -3.976  25.598  1.00  0.00    -0.292 OA
HETATM   21  C13 UNL     1       4.047  -2.248  24.097  1.00  0.00     0.093 C 
HETATM   22  C14 UNL     1       4.228  -2.232  22.593  1.00  0.00    -0.036 C 
HETATM   23  C15 UNL     1       4.715  -0.845  22.226  1.00  0.00     0.015 C 
HETATM   24  C16 UNL     1       5.307  -3.207  22.227  1.00  0.00     0.015 C 
ENDBRANCH   6  12
BRANCH   8  25
HETATM   25  O4  UNL     1       0.175  -9.376  23.437  1.00  0.00    -0.288 OA
ATOM     26  H4  UNL     1      -0.321  -9.409  24.247  1.00  0.00     0.244 HD
ENDBRANCH   8  25
BRANCH   1  27
HETATM   27  O1  UNL     1      -0.500  -9.663  17.014  1.00  0.00    -0.304 OA
BRANCH  27  28
HETATM   28  C5  UNL     1      -1.729  -9.962  16.413  1.00  0.00     0.181 C 
BRANCH  28  29
HETATM   29  C4  UNL     1      -2.696  -8.837  16.558  1.00  0.00     0.031 C 
BRANCH  29  30
HETATM   30  C2  UNL     1      -2.347  -7.665  15.652  1.00  0.00    -0.021 C 
HETATM   31  C1  UNL     1      -2.696  -6.352  16.312  1.00  0.00     0.009 C 
HETATM   32  C3  UNL     1      -3.069  -7.735  14.344  1.00  0.00     0.009 C 
ENDBRANCH  29  30
ENDBRANCH  28  29
ENDBRANCH  27  28
ENDBRANCH   1  27
TORSDOF 6
ENDMDL
