MODEL 1
REMARK VINA RESULT: -7.628284915      0.000      0.000
REMARK  5 active torsions:
REMARK  status: ('A' for Active; 'I' for Inactive)
REMARK    1  A    between atoms: S1_2  and  C2_3 
REMARK    2  A    between atoms: C2_3  and  C3_4 
REMARK    3  A    between atoms: C3_4  and  N1_5 
REMARK       I    between atoms: N1_5  and  C4_7 
REMARK    4  A    between atoms: C4_7  and  O2_9 
REMARK    5  A    between atoms: O2_9  and  C5_10 
ROOT
HETATM    1  C5  UNL     1      -0.075  -9.903  17.910  1.00  0.00     0.134 C 
HETATM    2  C6  UNL     1       1.341 -10.414  17.728  1.00  0.00     0.038 C 
HETATM    3  C7  UNL     1       1.705 -11.426  18.794  1.00  0.00     0.077 C 
HETATM    4  C8  UNL     1       1.627 -10.811  20.180  1.00  0.00     0.230 C 
HETATM    5  C9  UNL     1       0.390  -9.939  20.313  1.00  0.00     0.077 C 
HETATM    6  C10 UNL     1      -0.637 -10.272  19.256  1.00  0.00     0.038 C 
HETATM    7  O3  UNL     1       2.728 -10.002  20.437  1.00  0.00    -0.195 OA
HETATM    8  O4  UNL     1       2.624  -9.570  21.676  1.00  0.00    -0.194 OA
HETATM    9  C11 UNL     1       2.793 -10.683  22.498  1.00  0.00     0.237 C 
HETATM   10  O5  UNL     1       1.674 -11.506  22.319  1.00  0.00    -0.194 OA
HETATM   11  O6  UNL     1       1.620 -11.877  21.079  1.00  0.00    -0.195 OA
HETATM   12  C12 UNL     1       4.023 -11.415  22.082  1.00  0.00     0.055 C 
HETATM   13  C13 UNL     1       5.272 -10.642  22.433  1.00  0.00     0.015 C 
HETATM   14  C14 UNL     1       5.337 -10.398  23.908  1.00  0.00    -0.013 C 
HETATM   15  C15 UNL     1       5.338 -11.707  24.646  1.00  0.00     0.009 C 
HETATM   16  C16 UNL     1       4.055 -12.432  24.325  1.00  0.00    -0.013 C 
HETATM   17  C17 UNL     1       4.056 -12.738  22.855  1.00  0.00     0.015 C 
HETATM   18  C18 UNL     1       2.876 -11.603  24.751  1.00  0.00     0.015 C 
HETATM   19  C19 UNL     1       2.852 -10.315  23.955  1.00  0.00     0.055 C 
HETATM   20  C20 UNL     1       4.133  -9.572  24.297  1.00  0.00     0.015 C 
ENDROOT
BRANCH   1  21
HETATM   21  O2  UNL     1      -0.851 -10.474  16.885  1.00  0.00    -0.299 OA
BRANCH  21  22
HETATM   22  C4  UNL     1      -1.770  -9.765  16.125  1.00  0.00     0.360 C 
HETATM   23  N1  UNL     1      -2.574  -8.729  16.678  1.00  0.00    -0.336 N 
ATOM     24  H1  UNL     1      -2.491  -8.480  17.664  1.00  0.00     0.164 HD
HETATM   25  O1  UNL     1      -1.866 -10.083  14.894  1.00  0.00    -0.239 OA
BRANCH  23  26
HETATM   26  C3  UNL     1      -3.512  -8.032  15.823  1.00  0.00     0.135 C 
BRANCH  26  27
HETATM   27  C2  UNL     1      -2.841  -6.885  15.090  1.00  0.00     0.093 C 
BRANCH  27  28
HETATM   28  S1  UNL     1      -3.164  -5.386  16.079  1.00  0.00    -0.172 SA
HETATM   29  C1  UNL     1      -1.574  -4.580  16.446  1.00  0.00     0.089 C 
ENDBRANCH  27  28
ENDBRANCH  26  27
ENDBRANCH  23  26
ENDBRANCH  21  22
ENDBRANCH   1  21
TORSDOF 5
ENDMDL
MODEL 2
REMARK VINA RESULT: -7.507718910      2.159      2.856
REMARK  5 active torsions:
REMARK  status: ('A' for Active; 'I' for Inactive)
REMARK    1  A    between atoms: S1_2  and  C2_3 
REMARK    2  A    between atoms: C2_3  and  C3_4 
REMARK    3  A    between atoms: C3_4  and  N1_5 
REMARK       I    between atoms: N1_5  and  C4_7 
REMARK    4  A    between atoms: C4_7  and  O2_9 
REMARK    5  A    between atoms: O2_9  and  C5_10 
ROOT
HETATM    1  C5  UNL     1       0.392  -9.675  18.170  1.00  0.00     0.134 C 
HETATM    2  C6  UNL     1       1.562 -10.311  18.896  1.00  0.00     0.038 C 
HETATM    3  C7  UNL     1       1.207 -10.644  20.330  1.00  0.00     0.077 C 
HETATM    4  C8  UNL     1       0.830  -9.393  21.103  1.00  0.00     0.230 C 
HETATM    5  C9  UNL     1      -0.057  -8.488  20.263  1.00  0.00     0.077 C 
HETATM    6  C10 UNL     1      -0.692  -9.245  19.119  1.00  0.00     0.038 C 
HETATM    7  O3  UNL     1       1.954  -8.654  21.452  1.00  0.00    -0.195 OA
HETATM    8  O4  UNL     1       1.552  -7.633  22.179  1.00  0.00    -0.194 OA
HETATM    9  C11 UNL     1       1.080  -8.164  23.378  1.00  0.00     0.237 C 
HETATM   10  O5  UNL     1      -0.092  -8.872  23.087  1.00  0.00    -0.194 OA
HETATM   11  O6  UNL     1       0.189  -9.829  22.262  1.00  0.00    -0.195 OA
HETATM   12  C12 UNL     1       2.101  -9.096  23.934  1.00  0.00     0.055 C 
HETATM   13  C13 UNL     1       3.314  -8.351  24.439  1.00  0.00     0.015 C 
HETATM   14  C14 UNL     1       2.921  -7.379  25.507  1.00  0.00    -0.013 C 
HETATM   15  C15 UNL     1       2.273  -8.108  26.651  1.00  0.00     0.009 C 
HETATM   16  C16 UNL     1       1.035  -8.794  26.133  1.00  0.00    -0.013 C 
HETATM   17  C17 UNL     1       1.465  -9.821  25.125  1.00  0.00     0.015 C 
HETATM   18  C18 UNL     1       0.083  -7.778  25.566  1.00  0.00     0.015 C 
HETATM   19  C19 UNL     1       0.725  -7.096  24.376  1.00  0.00     0.055 C 
HETATM   20  C20 UNL     1       1.961  -6.384  24.901  1.00  0.00     0.015 C 
ENDROOT
BRANCH   1  21
HETATM   21  O2  UNL     1      -0.103 -10.636  17.269  1.00  0.00    -0.299 OA
BRANCH  21  22
HETATM   22  C4  UNL     1      -1.094 -10.380  16.333  1.00  0.00     0.360 C 
HETATM   23  N1  UNL     1      -1.558  -9.062  16.058  1.00  0.00    -0.336 N 
ATOM     24  H1  UNL     1      -1.163  -8.262  16.553  1.00  0.00     0.164 HD
HETATM   25  O1  UNL     1      -1.580 -11.386  15.720  1.00  0.00    -0.239 OA
BRANCH  23  26
HETATM   26  C3  UNL     1      -2.596  -8.873  15.068  1.00  0.00     0.135 C 
BRANCH  26  27
HETATM   27  C2  UNL     1      -2.976  -7.408  14.943  1.00  0.00     0.093 C 
BRANCH  27  28
HETATM   28  S1  UNL     1      -2.643  -6.652  16.571  1.00  0.00    -0.172 SA
HETATM   29  C1  UNL     1      -2.282  -4.886  16.325  1.00  0.00     0.089 C 
ENDBRANCH  27  28
ENDBRANCH  26  27
ENDBRANCH  23  26
ENDBRANCH  21  22
ENDBRANCH   1  21
TORSDOF 5
ENDMDL
MODEL 3
REMARK VINA RESULT: -7.495041936      2.077      2.962
REMARK  5 active torsions:
REMARK  status: ('A' for Active; 'I' for Inactive)
REMARK    1  A    between atoms: S1_2  and  C2_3 
REMARK    2  A    between atoms: C2_3  and  C3_4 
REMARK    3  A    between atoms: C3_4  and  N1_5 
REMARK       I    between atoms: N1_5  and  C4_7 
REMARK    4  A    between atoms: C4_7  and  O2_9 
REMARK    5  A    between atoms: O2_9  and  C5_10 
ROOT
HETATM    1  C5  UNL     1       1.109 -10.244  18.093  1.00  0.00     0.134 C 
HETATM    2  C6  UNL     1       1.102 -11.319  19.163  1.00  0.00     0.038 C 
HETATM    3  C7  UNL     1       0.351 -10.866  20.396  1.00  0.00     0.077 C 
HETATM    4  C8  UNL     1       0.994  -9.634  21.006  1.00  0.00     0.230 C 
HETATM    5  C9  UNL     1       1.398  -8.646  19.924  1.00  0.00     0.077 C 
HETATM    6  C10 UNL     1       0.662  -8.913  18.631  1.00  0.00     0.038 C 
HETATM    7  O3  UNL     1       2.146  -9.961  21.712  1.00  0.00    -0.195 OA
HETATM    8  O4  UNL     1       2.600  -8.858  22.269  1.00  0.00    -0.194 OA
HETATM    9  C11 UNL     1       1.670  -8.496  23.241  1.00  0.00     0.237 C 
HETATM   10  O5  UNL     1       0.505  -8.099  22.576  1.00  0.00    -0.194 OA
HETATM   11  O6  UNL     1       0.054  -9.098  21.885  1.00  0.00    -0.195 OA
HETATM   12  C12 UNL     1       1.376  -9.678  24.101  1.00  0.00     0.055 C 
HETATM   13  C13 UNL     1       2.552 -10.027  24.982  1.00  0.00     0.015 C 
HETATM   14  C14 UNL     1       2.903  -8.870  25.865  1.00  0.00    -0.013 C 
HETATM   15  C15 UNL     1       1.726  -8.505  26.725  1.00  0.00     0.009 C 
HETATM   16  C16 UNL     1       0.586  -8.105  25.823  1.00  0.00    -0.013 C 
HETATM   17  C17 UNL     1       0.200  -9.306  25.010  1.00  0.00     0.015 C 
HETATM   18  C18 UNL     1       0.989  -6.929  24.977  1.00  0.00     0.015 C 
HETATM   19  C19 UNL     1       2.134  -7.329  24.071  1.00  0.00     0.055 C 
HETATM   20  C20 UNL     1       3.292  -7.710  24.979  1.00  0.00     0.015 C 
ENDROOT
BRANCH   1  21
HETATM   21  O2  UNL     1       0.239 -10.675  17.074  1.00  0.00    -0.299 OA
BRANCH  21  22
HETATM   22  C4  UNL     1      -1.026 -10.146  16.864  1.00  0.00     0.360 C 
HETATM   23  N1  UNL     1      -1.330  -9.325  15.742  1.00  0.00    -0.336 N 
ATOM     24  H1  UNL     1      -0.610  -9.103  15.055  1.00  0.00     0.164 HD
HETATM   25  O1  UNL     1      -1.919 -10.430  17.729  1.00  0.00    -0.239 OA
BRANCH  23  26
HETATM   26  C3  UNL     1      -2.673  -8.808  15.589  1.00  0.00     0.135 C 
BRANCH  26  27
HETATM   27  C2  UNL     1      -2.683  -7.537  14.759  1.00  0.00     0.093 C 
BRANCH  27  28
HETATM   28  S1  UNL     1      -2.936  -6.162  15.932  1.00  0.00    -0.172 SA
HETATM   29  C1  UNL     1      -2.267  -6.652  17.551  1.00  0.00     0.089 C 
ENDBRANCH  27  28
ENDBRANCH  26  27
ENDBRANCH  23  26
ENDBRANCH  21  22
ENDBRANCH   1  21
TORSDOF 5
ENDMDL
MODEL 4
REMARK VINA RESULT: -7.362847411      2.136      3.345
REMARK  5 active torsions:
REMARK  status: ('A' for Active; 'I' for Inactive)
REMARK    1  A    between atoms: S1_2  and  C2_3 
REMARK    2  A    between atoms: C2_3  and  C3_4 
REMARK    3  A    between atoms: C3_4  and  N1_5 
REMARK       I    between atoms: N1_5  and  C4_7 
REMARK    4  A    between atoms: C4_7  and  O2_9 
REMARK    5  A    between atoms: O2_9  and  C5_10 
ROOT
HETATM    1  C5  UNL     1      -0.074 -10.338  18.646  1.00  0.00     0.134 C 
HETATM    2  C6  UNL     1      -0.675  -9.074  19.232  1.00  0.00     0.038 C 
HETATM    3  C7  UNL     1       0.357  -8.276  20.000  1.00  0.00     0.077 C 
HETATM    4  C8  UNL     1       0.919  -9.081  21.158  1.00  0.00     0.230 C 
HETATM    5  C9  UNL     1       1.189 -10.516  20.735  1.00  0.00     0.077 C 
HETATM    6  C10 UNL     1       1.278 -10.641  19.231  1.00  0.00     0.038 C 
HETATM    7  O3  UNL     1       0.025  -9.129  22.221  1.00  0.00    -0.195 OA
HETATM    8  O4  UNL     1       0.612  -9.776  23.206  1.00  0.00    -0.194 OA
HETATM    9  C11 UNL     1       1.655  -8.964  23.646  1.00  0.00     0.237 C 
HETATM   10  O5  UNL     1       2.615  -8.930  22.627  1.00  0.00    -0.194 OA
HETATM   11  O6  UNL     1       2.080  -8.423  21.563  1.00  0.00    -0.195 OA
HETATM   12  C12 UNL     1       1.135  -7.588  23.887  1.00  0.00     0.055 C 
HETATM   13  C13 UNL     1       0.238  -7.540  25.101  1.00  0.00     0.015 C 
HETATM   14  C14 UNL     1       0.985  -7.988  26.318  1.00  0.00    -0.013 C 
HETATM   15  C15 UNL     1       2.177  -7.101  26.544  1.00  0.00     0.009 C 
HETATM   16  C16 UNL     1       3.083  -7.212  25.344  1.00  0.00    -0.013 C 
HETATM   17  C17 UNL     1       2.339  -6.678  24.154  1.00  0.00     0.015 C 
HETATM   18  C18 UNL     1       3.529  -8.636  25.166  1.00  0.00     0.015 C 
HETATM   19  C19 UNL     1       2.325  -9.509  24.878  1.00  0.00     0.055 C 
HETATM   20  C20 UNL     1       1.422  -9.417  26.097  1.00  0.00     0.015 C 
ENDROOT
BRANCH   1  21
HETATM   21  O2  UNL     1       0.030 -10.135  17.257  1.00  0.00    -0.299 OA
BRANCH  21  22
HETATM   22  C4  UNL     1      -1.060 -10.065  16.403  1.00  0.00     0.360 C 
HETATM   23  N1  UNL     1      -1.572  -8.826  15.924  1.00  0.00    -0.336 N 
ATOM     24  H1  UNL     1      -1.140  -7.946  16.205  1.00  0.00     0.164 HD
HETATM   25  O1  UNL     1      -1.592 -11.171  16.057  1.00  0.00    -0.239 OA
BRANCH  23  26
HETATM   26  C3  UNL     1      -2.713  -8.832  15.035  1.00  0.00     0.135 C 
BRANCH  26  27
HETATM   27  C2  UNL     1      -3.459  -7.511  15.088  1.00  0.00     0.093 C 
BRANCH  27  28
HETATM   28  S1  UNL     1      -2.684  -6.538  16.424  1.00  0.00    -0.172 SA
HETATM   29  C1  UNL     1      -3.039  -4.777  16.140  1.00  0.00     0.089 C 
ENDBRANCH  27  28
ENDBRANCH  26  27
ENDBRANCH  23  26
ENDBRANCH  21  22
ENDBRANCH   1  21
TORSDOF 5
ENDMDL
MODEL 5
REMARK VINA RESULT: -7.141110552      5.636      6.930
REMARK  5 active torsions:
REMARK  status: ('A' for Active; 'I' for Inactive)
REMARK    1  A    between atoms: S1_2  and  C2_3 
REMARK    2  A    between atoms: C2_3  and  C3_4 
REMARK    3  A    between atoms: C3_4  and  N1_5 
REMARK       I    between atoms: N1_5  and  C4_7 
REMARK    4  A    between atoms: C4_7  and  O2_9 
REMARK    5  A    between atoms: O2_9  and  C5_10 
ROOT
HETATM    1  C5  UNL     1       0.884  -7.534  20.129  1.00  0.00     0.134 C 
HETATM    2  C6  UNL     1       1.153  -7.513  21.621  1.00  0.00     0.038 C 
HETATM    3  C7  UNL     1       0.843  -6.158  22.220  1.00  0.00     0.077 C 
HETATM    4  C8  UNL     1       1.706  -5.076  21.597  1.00  0.00     0.230 C 
HETATM    5  C9  UNL     1       1.806  -5.267  20.092  1.00  0.00     0.077 C 
HETATM    6  C10 UNL     1       0.694  -6.149  19.573  1.00  0.00     0.038 C 
HETATM    7  O3  UNL     1       3.001  -5.108  22.100  1.00  0.00    -0.195 OA
HETATM    8  O4  UNL     1       3.661  -4.100  21.571  1.00  0.00    -0.194 OA
HETATM    9  C11 UNL     1       3.097  -2.939  22.097  1.00  0.00     0.237 C 
HETATM   10  O5  UNL     1       1.804  -2.829  21.570  1.00  0.00    -0.194 OA
HETATM   11  O6  UNL     1       1.112  -3.861  21.936  1.00  0.00    -0.195 OA
HETATM   12  C12 UNL     1       3.022  -3.062  23.581  1.00  0.00     0.055 C 
HETATM   13  C13 UNL     1       4.393  -2.994  24.211  1.00  0.00     0.015 C 
HETATM   14  C14 UNL     1       5.058  -1.697  23.871  1.00  0.00    -0.013 C 
HETATM   15  C15 UNL     1       4.225  -0.548  24.365  1.00  0.00     0.009 C 
HETATM   16  C16 UNL     1       2.885  -0.605  23.678  1.00  0.00    -0.013 C 
HETATM   17  C17 UNL     1       2.205  -1.875  24.102  1.00  0.00     0.015 C 
HETATM   18  C18 UNL     1       3.066  -0.506  22.189  1.00  0.00     0.015 C 
HETATM   19  C19 UNL     1       3.853  -1.703  21.696  1.00  0.00     0.055 C 
HETATM   20  C20 UNL     1       5.214  -1.632  22.370  1.00  0.00     0.015 C 
ENDROOT
BRANCH   1  21
HETATM   21  O2  UNL     1      -0.279  -8.301  19.932  1.00  0.00    -0.299 OA
BRANCH  21  22
HETATM   22  C4  UNL     1      -0.673  -8.807  18.702  1.00  0.00     0.360 C 
HETATM   23  N1  UNL     1      -1.887  -8.414  18.072  1.00  0.00    -0.336 N 
ATOM     24  H1  UNL     1      -2.506  -7.740  18.520  1.00  0.00     0.164 HD
HETATM   25  O1  UNL     1       0.110  -9.649  18.150  1.00  0.00    -0.239 OA
BRANCH  23  26
HETATM   26  C3  UNL     1      -2.230  -8.985  16.787  1.00  0.00     0.135 C 
BRANCH  26  27
HETATM   27  C2  UNL     1      -3.379  -8.232  16.140  1.00  0.00     0.093 C 
BRANCH  27  28
HETATM   28  S1  UNL     1      -2.629  -6.842  15.225  1.00  0.00    -0.172 SA
HETATM   29  C1  UNL     1      -3.003  -5.298  16.112  1.00  0.00     0.089 C 
ENDBRANCH  27  28
ENDBRANCH  26  27
ENDBRANCH  23  26
ENDBRANCH  21  22
ENDBRANCH   1  21
TORSDOF 5
ENDMDL
