MODEL 1
REMARK VINA RESULT: -7.713063269      0.000      0.000
REMARK  12 active torsions:
REMARK  status: ('A' for Active; 'I' for Inactive)
REMARK    1  A    between atoms: C2_2  and  C3_3 
REMARK    2  A    between atoms: C3_3  and  C4_4 
REMARK    3  A    between atoms: C4_4  and  C5_5 
REMARK    4  A    between atoms: C5_5  and  C6_6 
REMARK    5  A    between atoms: C6_6  and  C7_7 
REMARK    6  A    between atoms: C7_7  and  C8_8 
REMARK    7  A    between atoms: C8_8  and  C9_9 
REMARK    8  A    between atoms: C9_9  and  C10_10 
REMARK    9  A    between atoms: C10_10  and  C11_11 
REMARK   10  A    between atoms: C11_11  and  C12_12 
REMARK   11  A    between atoms: C21_21  and  O1_22 
REMARK   12  A    between atoms: C24_26  and  O2_27 
ROOT
HETATM    1  C12 UNL     1     -18.477  24.684  -7.548  1.00  0.00    -0.014 C 
HETATM    2  C13 UNL     1     -18.003  25.671  -8.528  1.00  0.00     0.009 C 
HETATM    3  C14 UNL     1     -17.250  26.695  -7.695  1.00  0.00    -0.010 C 
HETATM    4  C15 UNL     1     -15.895  26.993  -8.253  1.00  0.00     0.005 C 
HETATM    5  C16 UNL     1     -14.764  26.253  -7.670  1.00  0.00     0.006 C 
HETATM    6  C17 UNL     1     -14.839  25.918  -6.237  1.00  0.00    -0.003 C 
HETATM    7  C18 UNL     1     -16.013  26.657  -5.632  1.00  0.00     0.024 C 
HETATM    8  C19 UNL     1     -17.266  26.223  -6.284  1.00  0.00    -0.003 C 
HETATM    9  C20 UNL     1     -17.509  24.768  -6.358  1.00  0.00     0.010 C 
HETATM   10  C21 UNL     1     -15.848  26.356  -4.197  1.00  0.00     0.134 C 
HETATM   11  C22 UNL     1     -14.338  26.453  -4.001  1.00  0.00     0.012 C 
HETATM   12  C23 UNL     1     -13.858  25.223  -3.289  1.00  0.00     0.021 C 
HETATM   13  C24 UNL     1     -13.938  27.732  -3.318  1.00  0.00     0.129 C 
HETATM   14  C25 UNL     1     -13.487  28.687  -4.384  1.00  0.00     0.033 C 
HETATM   15  C26 UNL     1     -13.440  27.932  -5.684  1.00  0.00     0.008 C 
HETATM   16  C27 UNL     1     -13.725  26.501  -5.387  1.00  0.00     0.003 C 
ENDROOT
BRANCH   1  17
HETATM   17  C11 UNL     1     -18.779  23.305  -7.934  1.00  0.00     0.005 C 
BRANCH  17  18
HETATM   18  C10 UNL     1     -17.740  22.303  -8.158  1.00  0.00     0.000 C 
BRANCH  18  19
HETATM   19  C9  UNL     1     -16.852  22.364  -9.332  1.00  0.00     0.000 C 
BRANCH  19  20
HETATM   20  C8  UNL     1     -15.385  22.589  -9.014  1.00  0.00     0.000 C 
BRANCH  20  21
HETATM   21  C7  UNL     1     -14.552  21.477  -9.611  1.00  0.00     0.000 C 
BRANCH  21  22
HETATM   22  C6  UNL     1     -15.397  20.463 -10.335  1.00  0.00     0.000 C 
BRANCH  22  23
HETATM   23  C5  UNL     1     -15.105  19.059  -9.917  1.00  0.00     0.000 C 
BRANCH  23  24
HETATM   24  C4  UNL     1     -16.345  18.294  -9.539  1.00  0.00     0.000 C 
BRANCH  24  25
HETATM   25  C3  UNL     1     -17.579  18.845 -10.228  1.00  0.00    -0.000 C 
BRANCH  25  26
HETATM   26  C2  UNL     1     -18.727  18.931  -9.257  1.00  0.00    -0.005 C 
HETATM   27  C1  UNL     1     -19.894  19.704  -9.852  1.00  0.00     0.005 C 
ENDBRANCH  25  26
ENDBRANCH  24  25
ENDBRANCH  23  24
ENDBRANCH  22  23
ENDBRANCH  21  22
ENDBRANCH  20  21
ENDBRANCH  19  20
ENDBRANCH  18  19
ENDBRANCH  17  18
ENDBRANCH   1  17
BRANCH  10  28
HETATM   28  O1  UNL     1     -16.453  27.342  -3.403  1.00  0.00    -0.394 OA
ATOM     29  H1  UNL     1     -15.856  27.656  -2.734  1.00  0.00     0.210 HD
ENDBRANCH  10  28
BRANCH  13  30
HETATM   30  O2  UNL     1     -12.883  27.455  -2.420  1.00  0.00    -0.395 OA
ATOM     31  H2  UNL     1     -12.141  28.004  -2.644  1.00  0.00     0.210 HD
ENDBRANCH  13  30
TORSDOF 12
ENDMDL
MODEL 2
REMARK VINA RESULT: -7.632944556      2.249      4.123
REMARK  12 active torsions:
REMARK  status: ('A' for Active; 'I' for Inactive)
REMARK    1  A    between atoms: C2_2  and  C3_3 
REMARK    2  A    between atoms: C3_3  and  C4_4 
REMARK    3  A    between atoms: C4_4  and  C5_5 
REMARK    4  A    between atoms: C5_5  and  C6_6 
REMARK    5  A    between atoms: C6_6  and  C7_7 
REMARK    6  A    between atoms: C7_7  and  C8_8 
REMARK    7  A    between atoms: C8_8  and  C9_9 
REMARK    8  A    between atoms: C9_9  and  C10_10 
REMARK    9  A    between atoms: C10_10  and  C11_11 
REMARK   10  A    between atoms: C11_11  and  C12_12 
REMARK   11  A    between atoms: C21_21  and  O1_22 
REMARK   12  A    between atoms: C24_26  and  O2_27 
ROOT
HETATM    1  C12 UNL     1     -17.404  23.145  -8.616  1.00  0.00    -0.014 C 
HETATM    2  C13 UNL     1     -16.002  23.240  -8.187  1.00  0.00     0.009 C 
HETATM    3  C14 UNL     1     -15.748  24.734  -8.064  1.00  0.00    -0.010 C 
HETATM    4  C15 UNL     1     -15.114  25.094  -6.757  1.00  0.00     0.005 C 
HETATM    5  C16 UNL     1     -16.018  25.547  -5.688  1.00  0.00     0.006 C 
HETATM    6  C17 UNL     1     -17.211  26.315  -6.089  1.00  0.00    -0.003 C 
HETATM    7  C18 UNL     1     -17.085  26.668  -7.555  1.00  0.00     0.024 C 
HETATM    8  C19 UNL     1     -17.028  25.431  -8.362  1.00  0.00    -0.003 C 
HETATM    9  C20 UNL     1     -18.087  24.430  -8.124  1.00  0.00     0.010 C 
HETATM   10  C21 UNL     1     -18.246  27.558  -7.748  1.00  0.00     0.134 C 
HETATM   11  C22 UNL     1     -18.252  28.390  -6.469  1.00  0.00     0.012 C 
HETATM   12  C23 UNL     1     -19.632  28.372  -5.881  1.00  0.00     0.021 C 
HETATM   13  C24 UNL     1     -17.718  29.778  -6.696  1.00  0.00     0.129 C 
HETATM   14  C25 UNL     1     -16.285  29.785  -6.253  1.00  0.00     0.033 C 
HETATM   15  C26 UNL     1     -16.004  28.463  -5.592  1.00  0.00     0.008 C 
HETATM   16  C27 UNL     1     -17.290  27.716  -5.510  1.00  0.00     0.003 C 
ENDROOT
BRANCH   1  17
HETATM   17  C11 UNL     1     -18.204  21.946  -8.360  1.00  0.00     0.005 C 
BRANCH  17  18
HETATM   18  C10 UNL     1     -19.058  21.336  -9.377  1.00  0.00     0.000 C 
BRANCH  18  19
HETATM   19  C9  UNL     1     -19.814  20.101  -9.108  1.00  0.00     0.000 C 
BRANCH  19  20
HETATM   20  C8  UNL     1     -19.010  18.820  -9.227  1.00  0.00     0.000 C 
BRANCH  20  21
HETATM   21  C7  UNL     1     -18.065  18.911 -10.404  1.00  0.00     0.000 C 
BRANCH  21  22
HETATM   22  C6  UNL     1     -16.967  17.884 -10.328  1.00  0.00     0.000 C 
BRANCH  22  23
HETATM   23  C5  UNL     1     -15.744  18.392  -9.636  1.00  0.00     0.000 C 
BRANCH  23  24
HETATM   24  C4  UNL     1     -15.456  19.836  -9.946  1.00  0.00     0.000 C 
BRANCH  24  25
HETATM   25  C3  UNL     1     -14.014  20.200  -9.648  1.00  0.00    -0.000 C 
BRANCH  25  26
HETATM   26  C2  UNL     1     -13.144  18.972  -9.695  1.00  0.00    -0.005 C 
HETATM   27  C1  UNL     1     -11.696  19.311  -9.371  1.00  0.00     0.005 C 
ENDBRANCH  25  26
ENDBRANCH  24  25
ENDBRANCH  23  24
ENDBRANCH  22  23
ENDBRANCH  21  22
ENDBRANCH  20  21
ENDBRANCH  19  20
ENDBRANCH  18  19
ENDBRANCH  17  18
ENDBRANCH   1  17
BRANCH  10  28
HETATM   28  O1  UNL     1     -18.039  28.427  -8.831  1.00  0.00    -0.394 OA
ATOM     29  H1  UNL     1     -18.145  29.333  -8.566  1.00  0.00     0.210 HD
ENDBRANCH  10  28
BRANCH  13  30
HETATM   30  O2  UNL     1     -18.480  30.688  -5.929  1.00  0.00    -0.395 OA
ATOM     31  H2  UNL     1     -18.282  30.551  -5.010  1.00  0.00     0.210 HD
ENDBRANCH  13  30
TORSDOF 12
ENDMDL
MODEL 3
REMARK VINA RESULT: -7.482527202      2.348      3.958
REMARK  12 active torsions:
REMARK  status: ('A' for Active; 'I' for Inactive)
REMARK    1  A    between atoms: C2_2  and  C3_3 
REMARK    2  A    between atoms: C3_3  and  C4_4 
REMARK    3  A    between atoms: C4_4  and  C5_5 
REMARK    4  A    between atoms: C5_5  and  C6_6 
REMARK    5  A    between atoms: C6_6  and  C7_7 
REMARK    6  A    between atoms: C7_7  and  C8_8 
REMARK    7  A    between atoms: C8_8  and  C9_9 
REMARK    8  A    between atoms: C9_9  and  C10_10 
REMARK    9  A    between atoms: C10_10  and  C11_11 
REMARK   10  A    between atoms: C11_11  and  C12_12 
REMARK   11  A    between atoms: C21_21  and  O1_22 
REMARK   12  A    between atoms: C24_26  and  O2_27 
ROOT
HETATM    1  C12 UNL     1     -17.391  23.149  -8.689  1.00  0.00    -0.014 C 
HETATM    2  C13 UNL     1     -15.999  23.232  -8.225  1.00  0.00     0.009 C 
HETATM    3  C14 UNL     1     -15.743  24.723  -8.072  1.00  0.00    -0.010 C 
HETATM    4  C15 UNL     1     -15.139  25.060  -6.746  1.00  0.00     0.005 C 
HETATM    5  C16 UNL     1     -16.066  25.501  -5.692  1.00  0.00     0.006 C 
HETATM    6  C17 UNL     1     -17.247  26.279  -6.109  1.00  0.00    -0.003 C 
HETATM    7  C18 UNL     1     -17.085  26.654  -7.566  1.00  0.00     0.024 C 
HETATM    8  C19 UNL     1     -17.013  25.430  -8.390  1.00  0.00    -0.003 C 
HETATM    9  C20 UNL     1     -18.082  24.430  -8.193  1.00  0.00     0.010 C 
HETATM   10  C21 UNL     1     -18.237  27.552  -7.773  1.00  0.00     0.134 C 
HETATM   11  C22 UNL     1     -18.271  28.364  -6.482  1.00  0.00     0.012 C 
HETATM   12  C23 UNL     1     -19.664  28.343  -5.927  1.00  0.00     0.021 C 
HETATM   13  C24 UNL     1     -17.726  29.754  -6.675  1.00  0.00     0.129 C 
HETATM   14  C25 UNL     1     -16.304  29.748  -6.198  1.00  0.00     0.033 C 
HETATM   15  C26 UNL     1     -16.044  28.415  -5.550  1.00  0.00     0.008 C 
HETATM   16  C27 UNL     1     -17.334  27.672  -5.511  1.00  0.00     0.003 C 
ENDROOT
BRANCH   1  17
HETATM   17  C11 UNL     1     -18.201  21.950  -8.470  1.00  0.00     0.005 C 
BRANCH  17  18
HETATM   18  C10 UNL     1     -19.079  21.393  -9.498  1.00  0.00     0.000 C 
BRANCH  18  19
HETATM   19  C9  UNL     1     -19.699  20.066  -9.343  1.00  0.00     0.000 C 
BRANCH  19  20
HETATM   20  C8  UNL     1     -18.805  19.011  -8.718  1.00  0.00     0.000 C 
BRANCH  20  21
HETATM   21  C7  UNL     1     -17.949  18.363  -9.782  1.00  0.00     0.000 C 
BRANCH  21  22
HETATM   22  C6  UNL     1     -16.484  18.409  -9.434  1.00  0.00     0.000 C 
BRANCH  22  23
HETATM   23  C5  UNL     1     -15.712  19.360 -10.289  1.00  0.00     0.000 C 
BRANCH  23  24
HETATM   24  C4  UNL     1     -16.394  19.650 -11.599  1.00  0.00     0.000 C 
BRANCH  24  25
HETATM   25  C3  UNL     1     -15.717  18.938 -12.755  1.00  0.00    -0.000 C 
BRANCH  25  26
HETATM   26  C2  UNL     1     -16.476  17.690 -13.119  1.00  0.00    -0.005 C 
HETATM   27  C1  UNL     1     -15.731  16.878 -14.167  1.00  0.00     0.005 C 
ENDBRANCH  25  26
ENDBRANCH  24  25
ENDBRANCH  23  24
ENDBRANCH  22  23
ENDBRANCH  21  22
ENDBRANCH  20  21
ENDBRANCH  19  20
ENDBRANCH  18  19
ENDBRANCH  17  18
ENDBRANCH   1  17
BRANCH  10  28
HETATM   28  O1  UNL     1     -18.001  28.436  -8.837  1.00  0.00    -0.394 OA
ATOM     29  H1  UNL     1     -18.815  28.689  -9.256  1.00  0.00     0.210 HD
ENDBRANCH  10  28
BRANCH  13  30
HETATM   30  O2  UNL     1     -18.504  30.654  -5.912  1.00  0.00    -0.395 OA
ATOM     31  H2  UNL     1     -19.069  31.142  -6.500  1.00  0.00     0.210 HD
ENDBRANCH  13  30
TORSDOF 12
ENDMDL
MODEL 4
REMARK VINA RESULT: -7.367488365      0.539      2.122
REMARK  12 active torsions:
REMARK  status: ('A' for Active; 'I' for Inactive)
REMARK    1  A    between atoms: C2_2  and  C3_3 
REMARK    2  A    between atoms: C3_3  and  C4_4 
REMARK    3  A    between atoms: C4_4  and  C5_5 
REMARK    4  A    between atoms: C5_5  and  C6_6 
REMARK    5  A    between atoms: C6_6  and  C7_7 
REMARK    6  A    between atoms: C7_7  and  C8_8 
REMARK    7  A    between atoms: C8_8  and  C9_9 
REMARK    8  A    between atoms: C9_9  and  C10_10 
REMARK    9  A    between atoms: C10_10  and  C11_11 
REMARK   10  A    between atoms: C11_11  and  C12_12 
REMARK   11  A    between atoms: C21_21  and  O1_22 
REMARK   12  A    between atoms: C24_26  and  O2_27 
ROOT
HETATM    1  C12 UNL     1     -18.389  24.398  -7.566  1.00  0.00    -0.014 C 
HETATM    2  C13 UNL     1     -17.917  25.344  -8.586  1.00  0.00     0.009 C 
HETATM    3  C14 UNL     1     -17.203  26.426  -7.793  1.00  0.00    -0.010 C 
HETATM    4  C15 UNL     1     -15.844  26.726  -8.340  1.00  0.00     0.005 C 
HETATM    5  C16 UNL     1     -14.709  26.043  -7.698  1.00  0.00     0.006 C 
HETATM    6  C17 UNL     1     -14.806  25.780  -6.251  1.00  0.00    -0.003 C 
HETATM    7  C18 UNL     1     -16.007  26.522  -5.707  1.00  0.00     0.024 C 
HETATM    8  C19 UNL     1     -17.237  26.026  -6.360  1.00  0.00    -0.003 C 
HETATM    9  C20 UNL     1     -17.447  24.565  -6.363  1.00  0.00     0.010 C 
HETATM   10  C21 UNL     1     -15.864  26.299  -4.256  1.00  0.00     0.134 C 
HETATM   11  C22 UNL     1     -14.361  26.439  -4.037  1.00  0.00     0.012 C 
HETATM   12  C23 UNL     1     -13.869  25.259  -3.253  1.00  0.00     0.021 C 
HETATM   13  C24 UNL     1     -14.004  27.761  -3.414  1.00  0.00     0.129 C 
HETATM   14  C25 UNL     1     -13.552  28.670  -4.519  1.00  0.00     0.033 C 
HETATM   15  C26 UNL     1     -13.462  27.851  -5.777  1.00  0.00     0.008 C 
HETATM   16  C27 UNL     1     -13.722  26.430  -5.411  1.00  0.00     0.003 C 
ENDROOT
BRANCH   1  17
HETATM   17  C11 UNL     1     -18.653  22.994  -7.886  1.00  0.00     0.005 C 
BRANCH  17  18
HETATM   18  C10 UNL     1     -18.411  22.429  -9.212  1.00  0.00     0.000 C 
BRANCH  18  19
HETATM   19  C9  UNL     1     -18.969  21.124  -9.605  1.00  0.00     0.000 C 
BRANCH  19  20
HETATM   20  C8  UNL     1     -18.999  20.082  -8.502  1.00  0.00     0.000 C 
BRANCH  20  21
HETATM   21  C7  UNL     1     -18.589  18.735  -9.052  1.00  0.00     0.000 C 
BRANCH  21  22
HETATM   22  C6  UNL     1     -17.671  18.866 -10.239  1.00  0.00     0.000 C 
BRANCH  22  23
HETATM   23  C5  UNL     1     -16.415  18.069 -10.093  1.00  0.00     0.000 C 
BRANCH  23  24
HETATM   24  C4  UNL     1     -15.232  18.914  -9.704  1.00  0.00     0.000 C 
BRANCH  24  25
HETATM   25  C3  UNL     1     -15.396  20.354 -10.151  1.00  0.00    -0.000 C 
BRANCH  25  26
HETATM   26  C2  UNL     1     -14.292  21.208  -9.586  1.00  0.00    -0.005 C 
HETATM   27  C1  UNL     1     -14.831  22.533  -9.069  1.00  0.00     0.005 C 
ENDBRANCH  25  26
ENDBRANCH  24  25
ENDBRANCH  23  24
ENDBRANCH  22  23
ENDBRANCH  21  22
ENDBRANCH  20  21
ENDBRANCH  19  20
ENDBRANCH  18  19
ENDBRANCH  17  18
ENDBRANCH   1  17
BRANCH  10  28
HETATM   28  O1  UNL     1     -16.507  27.310  -3.526  1.00  0.00    -0.394 OA
ATOM     29  H1  UNL     1     -16.707  28.056  -4.079  1.00  0.00     0.210 HD
ENDBRANCH  10  28
BRANCH  13  30
HETATM   30  O2  UNL     1     -12.960  27.555  -2.482  1.00  0.00    -0.395 OA
ATOM     31  H2  UNL     1     -12.842  28.350  -1.977  1.00  0.00     0.210 HD
ENDBRANCH  13  30
TORSDOF 12
ENDMDL
MODEL 5
REMARK VINA RESULT: -7.325980078      2.177      4.046
REMARK  12 active torsions:
REMARK  status: ('A' for Active; 'I' for Inactive)
REMARK    1  A    between atoms: C2_2  and  C3_3 
REMARK    2  A    between atoms: C3_3  and  C4_4 
REMARK    3  A    between atoms: C4_4  and  C5_5 
REMARK    4  A    between atoms: C5_5  and  C6_6 
REMARK    5  A    between atoms: C6_6  and  C7_7 
REMARK    6  A    between atoms: C7_7  and  C8_8 
REMARK    7  A    between atoms: C8_8  and  C9_9 
REMARK    8  A    between atoms: C9_9  and  C10_10 
REMARK    9  A    between atoms: C10_10  and  C11_11 
REMARK   10  A    between atoms: C11_11  and  C12_12 
REMARK   11  A    between atoms: C21_21  and  O1_22 
REMARK   12  A    between atoms: C24_26  and  O2_27 
ROOT
HETATM    1  C12 UNL     1     -14.420  23.718  -9.321  1.00  0.00    -0.014 C 
HETATM    2  C13 UNL     1     -13.278  24.367  -8.664  1.00  0.00     0.009 C 
HETATM    3  C14 UNL     1     -13.782  25.761  -8.326  1.00  0.00    -0.010 C 
HETATM    4  C15 UNL     1     -13.514  26.130  -6.902  1.00  0.00     0.005 C 
HETATM    5  C16 UNL     1     -14.613  25.917  -5.946  1.00  0.00     0.006 C 
HETATM    6  C17 UNL     1     -15.988  26.109  -6.441  1.00  0.00    -0.003 C 
HETATM    7  C18 UNL     1     -15.921  26.737  -7.816  1.00  0.00     0.024 C 
HETATM    8  C19 UNL     1     -15.209  25.833  -8.743  1.00  0.00    -0.003 C 
HETATM    9  C20 UNL     1     -15.675  24.433  -8.798  1.00  0.00     0.010 C 
HETATM   10  C21 UNL     1     -17.345  27.013  -8.088  1.00  0.00     0.134 C 
HETATM   11  C22 UNL     1     -17.859  27.504  -6.738  1.00  0.00     0.012 C 
HETATM   12  C23 UNL     1     -19.107  26.749  -6.386  1.00  0.00     0.021 C 
HETATM   13  C24 UNL     1     -18.038  28.998  -6.712  1.00  0.00     0.129 C 
HETATM   14  C25 UNL     1     -16.828  29.582  -6.045  1.00  0.00     0.033 C 
HETATM   15  C26 UNL     1     -16.007  28.443  -5.507  1.00  0.00     0.008 C 
HETATM   16  C27 UNL     1     -16.779  27.188  -5.723  1.00  0.00     0.003 C 
ENDROOT
BRANCH   1  17
HETATM   17  C11 UNL     1     -14.566  22.261  -9.340  1.00  0.00     0.005 C 
BRANCH  17  18
HETATM   18  C10 UNL     1     -15.402  21.565 -10.317  1.00  0.00     0.000 C 
BRANCH  18  19
HETATM   19  C9  UNL     1     -15.505  20.096 -10.333  1.00  0.00     0.000 C 
BRANCH  19  20
HETATM   20  C8  UNL     1     -16.186  19.516 -11.559  1.00  0.00     0.000 C 
BRANCH  20  21
HETATM   21  C7  UNL     1     -17.226  18.502 -11.140  1.00  0.00     0.000 C 
BRANCH  21  22
HETATM   22  C6  UNL     1     -17.492  18.544  -9.658  1.00  0.00     0.000 C 
BRANCH  22  23
HETATM   23  C5  UNL     1     -18.932  18.774  -9.333  1.00  0.00     0.000 C 
BRANCH  23  24
HETATM   24  C4  UNL     1     -19.133  19.881  -8.333  1.00  0.00     0.000 C 
BRANCH  24  25
HETATM   25  C3  UNL     1     -18.833  21.242  -8.933  1.00  0.00    -0.000 C 
BRANCH  25  26
HETATM   26  C2  UNL     1     -18.151  22.122  -7.919  1.00  0.00    -0.005 C 
HETATM   27  C1  UNL     1     -18.757  23.517  -7.905  1.00  0.00     0.005 C 
ENDBRANCH  25  26
ENDBRANCH  24  25
ENDBRANCH  23  24
ENDBRANCH  22  23
ENDBRANCH  21  22
ENDBRANCH  20  21
ENDBRANCH  19  20
ENDBRANCH  18  19
ENDBRANCH  17  18
ENDBRANCH   1  17
BRANCH  10  28
HETATM   28  O1  UNL     1     -17.487  28.058  -9.014  1.00  0.00    -0.394 OA
ATOM     29  H1  UNL     1     -18.389  28.354  -9.059  1.00  0.00     0.210 HD
ENDBRANCH  10  28
BRANCH  13  30
HETATM   30  O2  UNL     1     -19.207  29.300  -5.976  1.00  0.00    -0.395 OA
ATOM     31  H2  UNL     1     -19.912  29.482  -6.586  1.00  0.00     0.210 HD
ENDBRANCH  13  30
TORSDOF 12
ENDMDL
