MODEL 1
REMARK VINA RESULT: -8.217854309      0.000      0.000
REMARK  12 active torsions:
REMARK  status: ('A' for Active; 'I' for Inactive)
REMARK    1  A    between atoms: C2_2  and  C3_3 
REMARK    2  A    between atoms: C3_3  and  C4_4 
REMARK    3  A    between atoms: C4_4  and  C5_5 
REMARK    4  A    between atoms: C5_5  and  O1_6 
REMARK    5  A    between atoms: O1_6  and  C6_7 
REMARK    6  A    between atoms: C9_10  and  C10_11 
REMARK    7  A    between atoms: C10_11  and  C12_13 
REMARK    8  A    between atoms: C12_13  and  C13_14 
REMARK    9  A    between atoms: C13_14  and  C14_15 
REMARK   10  A    between atoms: C14_15  and  C15_16 
REMARK   11  A    between atoms: C15_16  and  O2_19 
REMARK   12  A    between atoms: C24_27  and  O3_29 
ROOT
HETATM    1  C6  UNL     1     -15.332  19.686 -10.323  1.00  0.00     0.087 C 
HETATM    2  C7  UNL     1     -14.436  18.524 -10.401  1.00  0.00     0.008 C 
HETATM    3  C8  UNL     1     -14.080  17.767 -11.431  1.00  0.00    -0.023 C 
HETATM    4  C9  UNL     1     -14.538  17.937 -12.826  1.00  0.00     0.012 C 
HETATM    5  C18 UNL     1     -15.998  18.216 -12.816  1.00  0.00     0.014 C 
HETATM    6  C19 UNL     1     -16.404  19.462 -12.113  1.00  0.00     0.001 C 
HETATM    7  C20 UNL     1     -15.315  20.378 -11.704  1.00  0.00     0.048 C 
HETATM    8  C21 UNL     1     -16.792  19.331 -10.665  1.00  0.00     0.001 C 
HETATM    9  C22 UNL     1     -17.231  17.989 -10.204  1.00  0.00     0.016 C 
HETATM   10  C23 UNL     1     -18.011  18.305  -8.921  1.00  0.00     0.038 C 
HETATM   11  C24 UNL     1     -18.675  19.636  -9.168  1.00  0.00     0.055 C 
HETATM   12  C25 UNL     1     -20.022  19.509  -9.811  1.00  0.00     0.045 C 
HETATM   13  C26 UNL     1     -17.758  20.350 -10.144  1.00  0.00     0.050 C 
ENDROOT
BRANCH   4  14
HETATM   14  C10 UNL     1     -14.278  16.683 -13.631  1.00  0.00    -0.011 C 
HETATM   15  C11 UNL     1     -15.588  16.376 -14.370  1.00  0.00     0.010 C 
BRANCH  14  16
HETATM   16  C12 UNL     1     -13.221  16.843 -14.681  1.00  0.00     0.005 C 
BRANCH  16  17
HETATM   17  C13 UNL     1     -12.519  15.481 -14.780  1.00  0.00     0.003 C 
BRANCH  17  18
HETATM   18  C14 UNL     1     -12.092  15.000 -13.412  1.00  0.00     0.037 C 
BRANCH  18  19
HETATM   19  C15 UNL     1     -10.598  15.221 -13.316  1.00  0.00     0.051 C 
HETATM   20  C16 UNL     1      -9.984  14.069 -12.516  1.00  0.00     0.045 C 
HETATM   21  C17 UNL     1      -9.969  15.164 -14.695  1.00  0.00     0.045 C 
BRANCH  19  22
HETATM   22  O2  UNL     1     -10.286  16.430 -12.707  1.00  0.00    -0.391 OA
ATOM     23  H2  UNL     1      -9.539  16.356 -12.125  1.00  0.00     0.210 HD
ENDBRANCH  19  22
ENDBRANCH  18  19
ENDBRANCH  17  18
ENDBRANCH  16  17
ENDBRANCH  14  16
ENDBRANCH   4  14
BRANCH   1  24
HETATM   24  O1  UNL     1     -15.194  20.582  -9.319  1.00  0.00    -0.375 OA
BRANCH  24  25
HETATM   25  C5  UNL     1     -14.320  21.603  -9.416  1.00  0.00     0.169 C 
BRANCH  25  26
HETATM   26  C4  UNL     1     -14.608  22.857  -8.640  1.00  0.00     0.026 C 
BRANCH  26  27
HETATM   27  C3  UNL     1     -16.030  23.279  -9.083  1.00  0.00     0.002 C 
BRANCH  27  28
HETATM   28  C2  UNL     1     -16.919  23.311  -7.870  1.00  0.00    -0.004 C 
HETATM   29  C1  UNL     1     -18.305  23.765  -8.257  1.00  0.00     0.005 C 
ENDBRANCH  27  28
ENDBRANCH  26  27
ENDBRANCH  25  26
ENDBRANCH  24  25
ENDBRANCH   1  24
BRANCH  11  30
HETATM   30  O3  UNL     1     -18.741  20.311  -7.944  1.00  0.00    -0.390 OA
ATOM     31  H3  UNL     1     -19.656  20.366  -7.694  1.00  0.00     0.210 HD
ENDBRANCH  11  30
TORSDOF 12
ENDMDL
MODEL 2
REMARK VINA RESULT: -7.938272620      0.960      1.747
REMARK  12 active torsions:
REMARK  status: ('A' for Active; 'I' for Inactive)
REMARK    1  A    between atoms: C2_2  and  C3_3 
REMARK    2  A    between atoms: C3_3  and  C4_4 
REMARK    3  A    between atoms: C4_4  and  C5_5 
REMARK    4  A    between atoms: C5_5  and  O1_6 
REMARK    5  A    between atoms: O1_6  and  C6_7 
REMARK    6  A    between atoms: C9_10  and  C10_11 
REMARK    7  A    between atoms: C10_11  and  C12_13 
REMARK    8  A    between atoms: C12_13  and  C13_14 
REMARK    9  A    between atoms: C13_14  and  C14_15 
REMARK   10  A    between atoms: C14_15  and  C15_16 
REMARK   11  A    between atoms: C15_16  and  O2_19 
REMARK   12  A    between atoms: C24_27  and  O3_29 
ROOT
HETATM    1  C6  UNL     1     -15.329  19.683 -10.347  1.00  0.00     0.087 C 
HETATM    2  C7  UNL     1     -14.455  18.504 -10.413  1.00  0.00     0.008 C 
HETATM    3  C8  UNL     1     -14.109  17.732 -11.436  1.00  0.00    -0.023 C 
HETATM    4  C9  UNL     1     -14.558  17.901 -12.834  1.00  0.00     0.012 C 
HETATM    5  C18 UNL     1     -16.013  18.209 -12.833  1.00  0.00     0.014 C 
HETATM    6  C19 UNL     1     -16.397  19.468 -12.141  1.00  0.00     0.001 C 
HETATM    7  C20 UNL     1     -15.293  20.365 -11.733  1.00  0.00     0.048 C 
HETATM    8  C21 UNL     1     -16.794  19.354 -10.693  1.00  0.00     0.001 C 
HETATM    9  C22 UNL     1     -17.261  18.024 -10.225  1.00  0.00     0.016 C 
HETATM   10  C23 UNL     1     -18.040  18.365  -8.948  1.00  0.00     0.038 C 
HETATM   11  C24 UNL     1     -18.677  19.707  -9.207  1.00  0.00     0.055 C 
HETATM   12  C25 UNL     1     -20.023  19.602  -9.855  1.00  0.00     0.045 C 
HETATM   13  C26 UNL     1     -17.742  20.396 -10.184  1.00  0.00     0.050 C 
ENDROOT
BRANCH   4  14
HETATM   14  C10 UNL     1     -14.319  16.636 -13.629  1.00  0.00    -0.011 C 
HETATM   15  C11 UNL     1     -15.584  16.423 -14.473  1.00  0.00     0.010 C 
BRANCH  14  16
HETATM   16  C12 UNL     1     -13.174  16.730 -14.590  1.00  0.00     0.005 C 
BRANCH  16  17
HETATM   17  C13 UNL     1     -12.541  15.331 -14.627  1.00  0.00     0.003 C 
BRANCH  17  18
HETATM   18  C14 UNL     1     -12.038  14.938 -13.257  1.00  0.00     0.037 C 
BRANCH  18  19
HETATM   19  C15 UNL     1     -10.541  15.161 -13.259  1.00  0.00     0.051 C 
HETATM   20  C16 UNL     1      -9.876  14.024 -12.480  1.00  0.00     0.045 C 
HETATM   21  C17 UNL     1     -10.000  15.080 -14.673  1.00  0.00     0.045 C 
BRANCH  19  22
HETATM   22  O2  UNL     1     -10.193  16.381 -12.691  1.00  0.00    -0.391 OA
ATOM     23  H2  UNL     1      -9.349  16.690 -12.998  1.00  0.00     0.210 HD
ENDBRANCH  19  22
ENDBRANCH  18  19
ENDBRANCH  17  18
ENDBRANCH  16  17
ENDBRANCH  14  16
ENDBRANCH   4  14
BRANCH   1  24
HETATM   24  O1  UNL     1     -15.178  20.583  -9.349  1.00  0.00    -0.375 OA
BRANCH  24  25
HETATM   25  C5  UNL     1     -14.210  21.520  -9.401  1.00  0.00     0.169 C 
BRANCH  25  26
HETATM   26  C4  UNL     1     -14.570  22.930  -9.029  1.00  0.00     0.026 C 
BRANCH  26  27
HETATM   27  C3  UNL     1     -13.583  23.815  -9.828  1.00  0.00     0.002 C 
BRANCH  27  28
HETATM   28  C2  UNL     1     -12.254  23.113  -9.890  1.00  0.00    -0.004 C 
HETATM   29  C1  UNL     1     -11.296  23.895 -10.755  1.00  0.00     0.005 C 
ENDBRANCH  27  28
ENDBRANCH  26  27
ENDBRANCH  25  26
ENDBRANCH  24  25
ENDBRANCH   1  24
BRANCH  11  30
HETATM   30  O3  UNL     1     -18.735  20.392  -7.988  1.00  0.00    -0.390 OA
ATOM     31  H3  UNL     1     -17.843  20.588  -7.725  1.00  0.00     0.210 HD
ENDBRANCH  11  30
TORSDOF 12
ENDMDL
MODEL 3
REMARK VINA RESULT: -7.523568649      2.478      8.180
REMARK  12 active torsions:
REMARK  status: ('A' for Active; 'I' for Inactive)
REMARK    1  A    between atoms: C2_2  and  C3_3 
REMARK    2  A    between atoms: C3_3  and  C4_4 
REMARK    3  A    between atoms: C4_4  and  C5_5 
REMARK    4  A    between atoms: C5_5  and  O1_6 
REMARK    5  A    between atoms: O1_6  and  C6_7 
REMARK    6  A    between atoms: C9_10  and  C10_11 
REMARK    7  A    between atoms: C10_11  and  C12_13 
REMARK    8  A    between atoms: C12_13  and  C13_14 
REMARK    9  A    between atoms: C13_14  and  C14_15 
REMARK   10  A    between atoms: C14_15  and  C15_16 
REMARK   11  A    between atoms: C15_16  and  O2_19 
REMARK   12  A    between atoms: C24_27  and  O3_29 
ROOT
HETATM    1  C6  UNL     1     -14.768  19.039 -10.640  1.00  0.00     0.087 C 
HETATM    2  C7  UNL     1     -15.102  20.452 -10.410  1.00  0.00     0.008 C 
HETATM    3  C8  UNL     1     -16.197  21.020  -9.922  1.00  0.00    -0.023 C 
HETATM    4  C9  UNL     1     -17.410  20.307  -9.470  1.00  0.00     0.012 C 
HETATM    5  C18 UNL     1     -17.726  19.235 -10.450  1.00  0.00     0.014 C 
HETATM    6  C19 UNL     1     -16.685  18.185 -10.603  1.00  0.00     0.001 C 
HETATM    7  C20 UNL     1     -15.575  18.202  -9.623  1.00  0.00     0.048 C 
HETATM    8  C21 UNL     1     -15.673  18.383 -11.700  1.00  0.00     0.001 C 
HETATM    9  C22 UNL     1     -16.064  19.272 -12.824  1.00  0.00     0.016 C 
HETATM   10  C23 UNL     1     -15.100  18.856 -13.942  1.00  0.00     0.038 C 
HETATM   11  C24 UNL     1     -14.883  17.374 -13.758  1.00  0.00     0.055 C 
HETATM   12  C25 UNL     1     -15.893  16.540 -14.484  1.00  0.00     0.045 C 
HETATM   13  C26 UNL     1     -15.065  17.139 -12.271  1.00  0.00     0.050 C 
ENDROOT
BRANCH   4  14
HETATM   14  C10 UNL     1     -18.585  21.256  -9.376  1.00  0.00    -0.011 C 
HETATM   15  C11 UNL     1     -19.838  20.371  -9.315  1.00  0.00     0.010 C 
BRANCH  14  16
HETATM   16  C12 UNL     1     -18.591  22.094  -8.135  1.00  0.00     0.005 C 
BRANCH  16  17
HETATM   17  C13 UNL     1     -18.298  23.529  -8.596  1.00  0.00     0.003 C 
BRANCH  17  18
HETATM   18  C14 UNL     1     -18.623  24.518  -7.499  1.00  0.00     0.037 C 
BRANCH  18  19
HETATM   19  C15 UNL     1     -17.677  25.688  -7.669  1.00  0.00     0.051 C 
HETATM   20  C16 UNL     1     -17.316  26.229  -6.284  1.00  0.00     0.045 C 
HETATM   21  C17 UNL     1     -16.377  25.224  -8.297  1.00  0.00     0.045 C 
BRANCH  19  22
HETATM   22  O2  UNL     1     -18.234  26.704  -8.437  1.00  0.00    -0.391 OA
ATOM     23  H2  UNL     1     -17.726  27.506  -8.391  1.00  0.00     0.210 HD
ENDBRANCH  19  22
ENDBRANCH  18  19
ENDBRANCH  17  18
ENDBRANCH  16  17
ENDBRANCH  14  16
ENDBRANCH   4  14
BRANCH   1  24
HETATM   24  O1  UNL     1     -13.475  18.647 -10.688  1.00  0.00    -0.375 OA
BRANCH  24  25
HETATM   25  C5  UNL     1     -12.734  18.564  -9.565  1.00  0.00     0.169 C 
BRANCH  25  26
HETATM   26  C4  UNL     1     -11.533  19.458  -9.442  1.00  0.00     0.026 C 
BRANCH  26  27
HETATM   27  C3  UNL     1     -10.419  18.549  -8.869  1.00  0.00     0.002 C 
BRANCH  27  28
HETATM   28  C2  UNL     1      -9.222  18.631  -9.777  1.00  0.00    -0.004 C 
HETATM   29  C1  UNL     1      -8.998  17.302 -10.456  1.00  0.00     0.005 C 
ENDBRANCH  27  28
ENDBRANCH  26  27
ENDBRANCH  25  26
ENDBRANCH  24  25
ENDBRANCH   1  24
BRANCH  11  30
HETATM   30  O3  UNL     1     -13.576  17.084 -14.165  1.00  0.00    -0.390 OA
ATOM     31  H3  UNL     1     -13.540  17.179 -15.109  1.00  0.00     0.210 HD
ENDBRANCH  11  30
TORSDOF 12
ENDMDL
MODEL 4
REMARK VINA RESULT: -7.510827077      2.308      7.809
REMARK  12 active torsions:
REMARK  status: ('A' for Active; 'I' for Inactive)
REMARK    1  A    between atoms: C2_2  and  C3_3 
REMARK    2  A    between atoms: C3_3  and  C4_4 
REMARK    3  A    between atoms: C4_4  and  C5_5 
REMARK    4  A    between atoms: C5_5  and  O1_6 
REMARK    5  A    between atoms: O1_6  and  C6_7 
REMARK    6  A    between atoms: C9_10  and  C10_11 
REMARK    7  A    between atoms: C10_11  and  C12_13 
REMARK    8  A    between atoms: C12_13  and  C13_14 
REMARK    9  A    between atoms: C13_14  and  C14_15 
REMARK   10  A    between atoms: C14_15  and  C15_16 
REMARK   11  A    between atoms: C15_16  and  O2_19 
REMARK   12  A    between atoms: C24_27  and  O3_29 
ROOT
HETATM    1  C6  UNL     1     -14.769  19.103 -10.743  1.00  0.00     0.087 C 
HETATM    2  C7  UNL     1     -15.289  20.465 -10.559  1.00  0.00     0.008 C 
HETATM    3  C8  UNL     1     -16.449  20.898 -10.084  1.00  0.00    -0.023 C 
HETATM    4  C9  UNL     1     -17.555  20.045  -9.599  1.00  0.00     0.012 C 
HETATM    5  C18 UNL     1     -17.726  18.908 -10.541  1.00  0.00     0.014 C 
HETATM    6  C19 UNL     1     -16.553  18.002 -10.665  1.00  0.00     0.001 C 
HETATM    7  C20 UNL     1     -15.454  18.201  -9.694  1.00  0.00     0.048 C 
HETATM    8  C21 UNL     1     -15.580  18.296 -11.775  1.00  0.00     0.001 C 
HETATM    9  C22 UNL     1     -16.088  19.086 -12.925  1.00  0.00     0.016 C 
HETATM   10  C23 UNL     1     -15.079  18.765 -14.035  1.00  0.00     0.038 C 
HETATM   11  C24 UNL     1     -14.665  17.333 -13.803  1.00  0.00     0.055 C 
HETATM   12  C25 UNL     1     -15.556  16.346 -14.494  1.00  0.00     0.045 C 
HETATM   13  C26 UNL     1     -14.811  17.126 -12.307  1.00  0.00     0.050 C 
ENDROOT
BRANCH   4  14
HETATM   14  C10 UNL     1     -18.846  20.831  -9.530  1.00  0.00    -0.011 C 
HETATM   15  C11 UNL     1     -19.971  19.818  -9.783  1.00  0.00     0.010 C 
BRANCH  14  16
HETATM   16  C12 UNL     1     -19.114  21.443  -8.190  1.00  0.00     0.005 C 
BRANCH  16  17
HETATM   17  C13 UNL     1     -18.641  22.900  -8.291  1.00  0.00     0.003 C 
BRANCH  17  18
HETATM   18  C14 UNL     1     -17.461  23.143  -7.377  1.00  0.00     0.037 C 
BRANCH  18  19
HETATM   19  C15 UNL     1     -16.925  24.519  -7.709  1.00  0.00     0.051 C 
HETATM   20  C16 UNL     1     -15.842  24.377  -8.780  1.00  0.00     0.045 C 
HETATM   21  C17 UNL     1     -18.018  25.375  -8.319  1.00  0.00     0.045 C 
BRANCH  19  22
HETATM   22  O2  UNL     1     -16.397  25.158  -6.593  1.00  0.00    -0.391 OA
ATOM     23  H2  UNL     1     -16.940  25.881  -6.304  1.00  0.00     0.210 HD
ENDBRANCH  19  22
ENDBRANCH  18  19
ENDBRANCH  17  18
ENDBRANCH  16  17
ENDBRANCH  14  16
ENDBRANCH   4  14
BRANCH   1  24
HETATM   24  O1  UNL     1     -13.435  18.887 -10.786  1.00  0.00    -0.375 OA
BRANCH  24  25
HETATM   25  C5  UNL     1     -12.734  18.653  -9.659  1.00  0.00     0.169 C 
BRANCH  25  26
HETATM   26  C4  UNL     1     -11.538  19.518  -9.377  1.00  0.00     0.026 C 
BRANCH  26  27
HETATM   27  C3  UNL     1     -10.458  18.541  -8.851  1.00  0.00     0.002 C 
BRANCH  27  28
HETATM   28  C2  UNL     1      -9.254  18.633  -9.748  1.00  0.00    -0.004 C 
HETATM   29  C1  UNL     1      -9.023  17.311 -10.440  1.00  0.00     0.005 C 
ENDBRANCH  27  28
ENDBRANCH  26  27
ENDBRANCH  25  26
ENDBRANCH  24  25
ENDBRANCH   1  24
BRANCH  11  30
HETATM   30  O3  UNL     1     -13.331  17.206 -14.208  1.00  0.00    -0.390 OA
ATOM     31  H3  UNL     1     -13.101  16.286 -14.158  1.00  0.00     0.210 HD
ENDBRANCH  11  30
TORSDOF 12
ENDMDL
MODEL 5
REMARK VINA RESULT: -7.428669180      6.050     10.580
REMARK  12 active torsions:
REMARK  status: ('A' for Active; 'I' for Inactive)
REMARK    1  A    between atoms: C2_2  and  C3_3 
REMARK    2  A    between atoms: C3_3  and  C4_4 
REMARK    3  A    between atoms: C4_4  and  C5_5 
REMARK    4  A    between atoms: C5_5  and  O1_6 
REMARK    5  A    between atoms: O1_6  and  C6_7 
REMARK    6  A    between atoms: C9_10  and  C10_11 
REMARK    7  A    between atoms: C10_11  and  C12_13 
REMARK    8  A    between atoms: C12_13  and  C13_14 
REMARK    9  A    between atoms: C13_14  and  C14_15 
REMARK   10  A    between atoms: C14_15  and  C15_16 
REMARK   11  A    between atoms: C15_16  and  O2_19 
REMARK   12  A    between atoms: C24_27  and  O3_29 
ROOT
HETATM    1  C6  UNL     1     -16.840  25.484  -7.607  1.00  0.00     0.087 C 
HETATM    2  C7  UNL     1     -17.146  25.326  -6.178  1.00  0.00     0.008 C 
HETATM    3  C8  UNL     1     -16.882  26.107  -5.139  1.00  0.00    -0.023 C 
HETATM    4  C9  UNL     1     -16.171  27.402  -5.192  1.00  0.00     0.012 C 
HETATM    5  C18 UNL     1     -15.002  27.266  -6.101  1.00  0.00     0.014 C 
HETATM    6  C19 UNL     1     -15.329  26.937  -7.514  1.00  0.00     0.001 C 
HETATM    7  C20 UNL     1     -16.757  26.999  -7.897  1.00  0.00     0.048 C 
HETATM    8  C21 UNL     1     -15.326  25.480  -7.891  1.00  0.00     0.001 C 
HETATM    9  C22 UNL     1     -14.533  24.563  -7.033  1.00  0.00     0.016 C 
HETATM   10  C23 UNL     1     -14.319  23.344  -7.939  1.00  0.00     0.038 C 
HETATM   11  C24 UNL     1     -14.197  23.895  -9.338  1.00  0.00     0.055 C 
HETATM   12  C25 UNL     1     -12.791  24.261  -9.702  1.00  0.00     0.045 C 
HETATM   13  C26 UNL     1     -15.022  25.169  -9.324  1.00  0.00     0.050 C 
ENDROOT
BRANCH   4  14
HETATM   14  C10 UNL     1     -15.686  27.803  -3.816  1.00  0.00    -0.011 C 
HETATM   15  C11 UNL     1     -16.490  26.954  -2.822  1.00  0.00     0.010 C 
BRANCH  14  16
HETATM   16  C12 UNL     1     -14.241  27.501  -3.569  1.00  0.00     0.005 C 
BRANCH  16  17
HETATM   17  C13 UNL     1     -14.220  26.278  -2.640  1.00  0.00     0.003 C 
BRANCH  17  18
HETATM   18  C14 UNL     1     -12.801  25.919  -2.263  1.00  0.00     0.037 C 
BRANCH  18  19
HETATM   19  C15 UNL     1     -12.867  24.613  -1.501  1.00  0.00     0.051 C 
HETATM   20  C16 UNL     1     -11.726  24.582  -0.482  1.00  0.00     0.045 C 
HETATM   21  C17 UNL     1     -14.154  24.536  -0.701  1.00  0.00     0.045 C 
BRANCH  19  22
HETATM   22  O2  UNL     1     -12.772  23.510  -2.342  1.00  0.00    -0.391 OA
ATOM     23  H2  UNL     1     -12.471  22.735  -1.883  1.00  0.00     0.210 HD
ENDBRANCH  19  22
ENDBRANCH  18  19
ENDBRANCH  17  18
ENDBRANCH  16  17
ENDBRANCH  14  16
ENDBRANCH   4  14
BRANCH   1  24
HETATM   24  O1  UNL     1     -17.586  24.843  -8.535  1.00  0.00    -0.375 OA
BRANCH  24  25
HETATM   25  C5  UNL     1     -18.421  23.843  -8.184  1.00  0.00     0.169 C 
BRANCH  25  26
HETATM   26  C4  UNL     1     -17.879  22.442  -8.170  1.00  0.00     0.026 C 
BRANCH  26  27
HETATM   27  C3  UNL     1     -18.585  21.733  -9.351  1.00  0.00     0.002 C 
BRANCH  27  28
HETATM   28  C2  UNL     1     -19.268  20.499  -8.827  1.00  0.00    -0.004 C 
HETATM   29  C1  UNL     1     -20.139  19.895  -9.901  1.00  0.00     0.005 C 
ENDBRANCH  27  28
ENDBRANCH  26  27
ENDBRANCH  25  26
ENDBRANCH  24  25
ENDBRANCH   1  24
BRANCH  11  30
HETATM   30  O3  UNL     1     -14.735  22.948 -10.216  1.00  0.00    -0.390 OA
ATOM     31  H3  UNL     1     -15.456  22.519  -9.770  1.00  0.00     0.210 HD
ENDBRANCH  11  30
TORSDOF 12
ENDMDL
