MODEL 1
REMARK VINA RESULT: -5.812068385      0.000      0.000
REMARK  5 active torsions:
REMARK  status: ('A' for Active; 'I' for Inactive)
REMARK    1  A    between atoms: C3_5  and  C4_6 
REMARK    2  A    between atoms: C6_11  and  N3_12 
REMARK    3  A    between atoms: N3_12  and  N4_14 
REMARK       I    between atoms: N4_14  and  C7_16 
REMARK       I    between atoms: C7_16  and  N5_18 
REMARK    4  A    between atoms: N5_18  and  C8_20 
REMARK    5  A    between atoms: C8_20  and  C10_22 
ROOT
HETATM    1  C1  UNL     1      10.514  15.298  71.159  1.00  0.00     0.089 C 
HETATM    2  C2  UNL     1      11.402  15.489  69.948  1.00  0.00     0.079 A 
HETATM    3  N1  UNL     1      12.176  16.587  69.857  1.00  0.00    -0.341 N 
ATOM      4  H1  UNL     1      12.191  17.306  70.580  1.00  0.00     0.167 HD
HETATM    5  C3  UNL     1      12.937  16.666  68.730  1.00  0.00     0.120 A 
HETATM    6  C5  UNL     1      12.884  15.651  67.762  1.00  0.00     0.084 A 
HETATM    7  S1  UNL     1      13.643  15.358  66.255  1.00  0.00    -0.046 SA
HETATM    8  C6  UNL     1      12.900  13.866  65.889  1.00  0.00     0.166 A 
HETATM    9  N6  UNL     1      12.105  13.662  66.937  1.00  0.00    -0.320 N 
ATOM     10  H6  UNL     1      11.524  12.826  66.993  1.00  0.00     0.169 HD
HETATM   11  C13 UNL     1      12.083  14.550  67.891  1.00  0.00     0.128 A 
HETATM   12  N7  UNL     1      11.341  14.529  69.049  1.00  0.00    -0.331 N 
ATOM     13  H7  UNL     1      10.718  13.739  69.217  1.00  0.00     0.168 HD
ENDROOT
BRANCH   8  14
HETATM   14  N3  UNL     1      13.030  13.063  64.854  1.00  0.00    -0.276 N 
ATOM     15  H3  UNL     1      12.236  12.537  64.489  1.00  0.00     0.189 HD
BRANCH  14  16
HETATM   16  N4  UNL     1      14.283  12.961  64.279  1.00  0.00    -0.250 N 
HETATM   17  C7  UNL     1      15.399  12.395  64.954  1.00  0.00     0.335 C 
HETATM   18  O2  UNL     1      15.216  11.980  66.126  1.00  0.00    -0.246 OA
HETATM   19  N5  UNL     1      16.697  12.270  64.393  1.00  0.00    -0.337 N 
ATOM     20  H5  UNL     1      16.858  12.603  63.442  1.00  0.00     0.164 HD
ATOM     21  H4  UNL     1      14.413  13.307  63.328  1.00  0.00     0.192 HD
BRANCH  19  22
HETATM   22  C8  UNL     1      17.799  11.684  65.128  1.00  0.00     0.085 C 
HETATM   23  C9  UNL     1      18.622  12.699  65.871  1.00  0.00     0.032 C 
BRANCH  22  24
HETATM   24  C10 UNL     1      18.623  10.757  64.260  1.00  0.00    -0.000 C 
HETATM   25  C11 UNL     1      18.339   9.340  64.755  1.00  0.00     0.011 C 
HETATM   26  C12 UNL     1      20.094  10.976  64.359  1.00  0.00     0.011 C 
ENDBRANCH  22  24
ENDBRANCH  19  22
ENDBRANCH  14  16
ENDBRANCH   8  14
BRANCH   5  27
HETATM   27  C4  UNL     1      13.818  17.777  68.477  1.00  0.00     0.282 C 
HETATM   28  N2  UNL     1      15.195  17.684  68.754  1.00  0.00    -0.056 NA
HETATM   29  O1  UNL     1      13.369  18.851  68.002  1.00  0.00    -0.269 OA
ENDBRANCH   5  27
TORSDOF 5
ENDMDL
MODEL 2
REMARK VINA RESULT: -5.789507837      1.597      2.544
REMARK  5 active torsions:
REMARK  status: ('A' for Active; 'I' for Inactive)
REMARK    1  A    between atoms: C3_5  and  C4_6 
REMARK    2  A    between atoms: C6_11  and  N3_12 
REMARK    3  A    between atoms: N3_12  and  N4_14 
REMARK       I    between atoms: N4_14  and  C7_16 
REMARK       I    between atoms: C7_16  and  N5_18 
REMARK    4  A    between atoms: N5_18  and  C8_20 
REMARK    5  A    between atoms: C8_20  and  C10_22 
ROOT
HETATM    1  C1  UNL     1      13.769  18.785  68.901  1.00  0.00     0.089 C 
HETATM    2  C2  UNL     1      13.291  17.369  68.664  1.00  0.00     0.079 A 
HETATM    3  N1  UNL     1      12.615  16.724  69.633  1.00  0.00    -0.341 N 
ATOM      4  H1  UNL     1      12.406  17.155  70.534  1.00  0.00     0.167 HD
HETATM    5  C3  UNL     1      12.229  15.455  69.323  1.00  0.00     0.120 A 
HETATM    6  C5  UNL     1      12.538  14.902  68.070  1.00  0.00     0.084 A 
HETATM    7  S1  UNL     1      12.257  13.403  67.292  1.00  0.00    -0.046 SA
HETATM    8  C6  UNL     1      13.028  13.744  65.809  1.00  0.00     0.166 A 
HETATM    9  N6  UNL     1      13.465  14.990  65.978  1.00  0.00    -0.320 N 
ATOM     10  H6  UNL     1      13.976  15.466  65.235  1.00  0.00     0.169 HD
HETATM   11  C13 UNL     1      13.228  15.591  67.111  1.00  0.00     0.128 A 
HETATM   12  N7  UNL     1      13.589  16.864  67.485  1.00  0.00    -0.331 N 
ATOM     13  H7  UNL     1      14.107  17.441  66.822  1.00  0.00     0.168 HD
ENDROOT
BRANCH   8  14
HETATM   14  N3  UNL     1      13.189  13.013  64.726  1.00  0.00    -0.276 N 
ATOM     15  H3  UNL     1      12.406  12.512  64.305  1.00  0.00     0.189 HD
BRANCH  14  16
HETATM   16  N4  UNL     1      14.458  12.949  64.181  1.00  0.00    -0.250 N 
HETATM   17  C7  UNL     1      15.563  12.370  64.863  1.00  0.00     0.335 C 
HETATM   18  O2  UNL     1      15.355  11.906  66.012  1.00  0.00    -0.246 OA
HETATM   19  N5  UNL     1      16.877  12.284  64.332  1.00  0.00    -0.337 N 
ATOM     20  H5  UNL     1      17.059  12.657  63.400  1.00  0.00     0.164 HD
ATOM     21  H4  UNL     1      14.608  13.335  63.249  1.00  0.00     0.192 HD
BRANCH  19  22
HETATM   22  C8  UNL     1      17.967  11.682  65.072  1.00  0.00     0.085 C 
HETATM   23  C9  UNL     1      18.757  12.676  65.877  1.00  0.00     0.032 C 
BRANCH  22  24
HETATM   24  C10 UNL     1      18.826  10.801  64.190  1.00  0.00    -0.000 C 
HETATM   25  C11 UNL     1      18.547   9.362  64.620  1.00  0.00     0.011 C 
HETATM   26  C12 UNL     1      20.291  11.034  64.337  1.00  0.00     0.011 C 
ENDBRANCH  22  24
ENDBRANCH  19  22
ENDBRANCH  14  16
ENDBRANCH   8  14
BRANCH   5  27
HETATM   27  C4  UNL     1      11.500  14.628  70.250  1.00  0.00     0.282 C 
HETATM   28  N2  UNL     1      12.127  13.547  70.900  1.00  0.00    -0.056 NA
HETATM   29  O1  UNL     1      10.289  14.859  70.495  1.00  0.00    -0.269 OA
ENDBRANCH   5  27
TORSDOF 5
ENDMDL
MODEL 3
REMARK VINA RESULT: -5.739426371      3.451      8.542
REMARK  5 active torsions:
REMARK  status: ('A' for Active; 'I' for Inactive)
REMARK    1  A    between atoms: C3_5  and  C4_6 
REMARK    2  A    between atoms: C6_11  and  N3_12 
REMARK    3  A    between atoms: N3_12  and  N4_14 
REMARK       I    between atoms: N4_14  and  C7_16 
REMARK       I    between atoms: C7_16  and  N5_18 
REMARK    4  A    between atoms: N5_18  and  C8_20 
REMARK    5  A    between atoms: C8_20  and  C10_22 
ROOT
HETATM    1  C1  UNL     1      17.674  12.799  65.307  1.00  0.00     0.089 C 
HETATM    2  C2  UNL     1      16.381  13.350  65.868  1.00  0.00     0.079 A 
HETATM    3  N1  UNL     1      15.244  12.642  65.737  1.00  0.00    -0.341 N 
ATOM      4  H1  UNL     1      15.214  11.736  65.269  1.00  0.00     0.167 HD
HETATM    5  C3  UNL     1      14.135  13.224  66.274  1.00  0.00     0.120 A 
HETATM    6  C5  UNL     1      14.223  14.472  66.910  1.00  0.00     0.084 A 
HETATM    7  S1  UNL     1      13.123  15.525  67.694  1.00  0.00    -0.046 SA
HETATM    8  C6  UNL     1      14.220  16.763  68.113  1.00  0.00     0.166 A 
HETATM    9  N6  UNL     1      15.377  16.313  67.633  1.00  0.00    -0.320 N 
ATOM     10  H6  UNL     1      16.231  16.860  67.740  1.00  0.00     0.169 HD
HETATM   11  C13 UNL     1      15.399  15.160  67.023  1.00  0.00     0.128 A 
HETATM   12  N7  UNL     1      16.479  14.522  66.461  1.00  0.00    -0.331 N 
ATOM     13  H7  UNL     1      17.393  14.973  66.505  1.00  0.00     0.168 HD
ENDROOT
BRANCH   8  14
HETATM   14  N3  UNL     1      14.042  17.901  68.749  1.00  0.00    -0.276 N 
ATOM     15  H3  UNL     1      14.430  18.053  69.680  1.00  0.00     0.189 HD
BRANCH  14  16
HETATM   16  N4  UNL     1      13.309  18.883  68.108  1.00  0.00    -0.250 N 
HETATM   17  C7  UNL     1      13.679  20.255  68.122  1.00  0.00     0.335 C 
HETATM   18  O2  UNL     1      14.720  20.568  68.753  1.00  0.00    -0.246 OA
HETATM   19  N5  UNL     1      12.954  21.288  67.470  1.00  0.00    -0.337 N 
ATOM     20  H5  UNL     1      12.107  21.047  66.954  1.00  0.00     0.164 HD
ATOM     21  H4  UNL     1      12.465  18.611  67.604  1.00  0.00     0.192 HD
BRANCH  19  22
HETATM   22  C8  UNL     1      13.378  22.672  67.516  1.00  0.00     0.085 C 
HETATM   23  C9  UNL     1      12.367  23.581  68.158  1.00  0.00     0.032 C 
BRANCH  22  24
HETATM   24  C10 UNL     1      13.855  23.159  66.164  1.00  0.00    -0.000 C 
HETATM   25  C11 UNL     1      15.380  23.083  66.195  1.00  0.00     0.011 C 
HETATM   26  C12 UNL     1      13.485  24.570  65.859  1.00  0.00     0.011 C 
ENDBRANCH  22  24
ENDBRANCH  19  22
ENDBRANCH  14  16
ENDBRANCH   8  14
BRANCH   5  27
HETATM   27  C4  UNL     1      12.838  12.600  66.216  1.00  0.00     0.282 C 
HETATM   28  N2  UNL     1      12.334  11.880  67.317  1.00  0.00    -0.056 NA
HETATM   29  O1  UNL     1      12.133  12.689  65.179  1.00  0.00    -0.269 OA
ENDBRANCH   5  27
TORSDOF 5
ENDMDL
MODEL 4
REMARK VINA RESULT: -5.684350303      3.582      8.778
REMARK  5 active torsions:
REMARK  status: ('A' for Active; 'I' for Inactive)
REMARK    1  A    between atoms: C3_5  and  C4_6 
REMARK    2  A    between atoms: C6_11  and  N3_12 
REMARK    3  A    between atoms: N3_12  and  N4_14 
REMARK       I    between atoms: N4_14  and  C7_16 
REMARK       I    between atoms: C7_16  and  N5_18 
REMARK    4  A    between atoms: N5_18  and  C8_20 
REMARK    5  A    between atoms: C8_20  and  C10_22 
ROOT
HETATM    1  C1  UNL     1      17.694  12.849  65.876  1.00  0.00     0.089 C 
HETATM    2  C2  UNL     1      16.343  13.404  66.273  1.00  0.00     0.079 A 
HETATM    3  N1  UNL     1      15.236  12.663  66.079  1.00  0.00    -0.341 N 
ATOM      4  H1  UNL     1      15.268  11.729  65.671  1.00  0.00     0.167 HD
HETATM    5  C3  UNL     1      14.070  13.252  66.467  1.00  0.00     0.120 A 
HETATM    6  C5  UNL     1      14.074  14.540  67.025  1.00  0.00     0.084 A 
HETATM    7  S1  UNL     1      12.885  15.615  67.629  1.00  0.00    -0.046 SA
HETATM    8  C6  UNL     1      13.915  16.902  68.069  1.00  0.00     0.166 A 
HETATM    9  N6  UNL     1      15.120  16.449  67.734  1.00  0.00    -0.320 N 
ATOM     10  H6  UNL     1      15.951  17.022  67.887  1.00  0.00     0.169 HD
HETATM   11  C13 UNL     1      15.221  15.261  67.206  1.00  0.00     0.128 A 
HETATM   12  N7  UNL     1      16.363  14.613  66.794  1.00  0.00    -0.331 N 
ATOM     13  H7  UNL     1      17.260  15.088  66.896  1.00  0.00     0.168 HD
ENDROOT
BRANCH   8  14
HETATM   14  N3  UNL     1      13.655  18.074  68.609  1.00  0.00    -0.276 N 
ATOM     15  H3  UNL     1      13.708  18.215  69.618  1.00  0.00     0.189 HD
BRANCH  14  16
HETATM   16  N4  UNL     1      13.310  19.108  67.757  1.00  0.00    -0.250 N 
HETATM   17  C7  UNL     1      13.080  20.436  68.208  1.00  0.00     0.335 C 
HETATM   18  O2  UNL     1      13.197  20.657  69.440  1.00  0.00    -0.246 OA
HETATM   19  N5  UNL     1      12.730  21.520  67.361  1.00  0.00    -0.337 N 
ATOM     20  H5  UNL     1      12.631  21.354  66.360  1.00  0.00     0.164 HD
ATOM     21  H4  UNL     1      13.216  18.908  66.762  1.00  0.00     0.192 HD
BRANCH  19  22
HETATM   22  C8  UNL     1      12.507  22.856  67.876  1.00  0.00     0.085 C 
HETATM   23  C9  UNL     1      11.056  23.160  68.128  1.00  0.00     0.032 C 
BRANCH  22  24
HETATM   24  C10 UNL     1      13.206  23.905  67.038  1.00  0.00    -0.000 C 
HETATM   25  C11 UNL     1      12.105  24.723  66.368  1.00  0.00     0.011 C 
HETATM   26  C12 UNL     1      14.067  23.347  65.955  1.00  0.00     0.011 C 
ENDBRANCH  22  24
ENDBRANCH  19  22
ENDBRANCH  14  16
ENDBRANCH   8  14
BRANCH   5  27
HETATM   27  C4  UNL     1      12.796  12.596  66.325  1.00  0.00     0.282 C 
HETATM   28  N2  UNL     1      12.192  11.949  67.420  1.00  0.00    -0.056 NA
HETATM   29  O1  UNL     1      12.201  12.591  65.218  1.00  0.00    -0.269 OA
ENDBRANCH   5  27
TORSDOF 5
ENDMDL
MODEL 5
REMARK VINA RESULT: -5.608541359      3.099      8.732
REMARK  5 active torsions:
REMARK  status: ('A' for Active; 'I' for Inactive)
REMARK    1  A    between atoms: C3_5  and  C4_6 
REMARK    2  A    between atoms: C6_11  and  N3_12 
REMARK    3  A    between atoms: N3_12  and  N4_14 
REMARK       I    between atoms: N4_14  and  C7_16 
REMARK       I    between atoms: C7_16  and  N5_18 
REMARK    4  A    between atoms: N5_18  and  C8_20 
REMARK    5  A    between atoms: C8_20  and  C10_22 
ROOT
HETATM    1  C1  UNL     1      17.475  12.189  64.534  1.00  0.00     0.089 C 
HETATM    2  C2  UNL     1      16.381  12.962  65.239  1.00  0.00     0.079 A 
HETATM    3  N1  UNL     1      15.102  12.557  65.128  1.00  0.00    -0.341 N 
ATOM      4  H1  UNL     1      14.833  11.739  64.581  1.00  0.00     0.167 HD
HETATM    5  C3  UNL     1      14.193  13.320  65.798  1.00  0.00     0.120 A 
HETATM    6  C5  UNL     1      14.609  14.437  66.539  1.00  0.00     0.084 A 
HETATM    7  S1  UNL     1      13.834  15.626  67.498  1.00  0.00    -0.046 SA
HETATM    8  C6  UNL     1      15.215  16.522  67.947  1.00  0.00     0.166 A 
HETATM    9  N6  UNL     1      16.205  15.869  67.342  1.00  0.00    -0.320 N 
ATOM     10  H6  UNL     1      17.169  16.188  67.436  1.00  0.00     0.169 HD
HETATM   11  C13 UNL     1      15.919  14.816  66.628  1.00  0.00     0.128 A 
HETATM   12  N7  UNL     1      16.786  14.008  65.930  1.00  0.00    -0.331 N 
ATOM     13  H7  UNL     1      17.782  14.227  65.947  1.00  0.00     0.168 HD
ENDROOT
BRANCH   8  14
HETATM   14  N3  UNL     1      15.346  17.595  68.698  1.00  0.00    -0.276 N 
ATOM     15  H3  UNL     1      16.251  17.865  69.081  1.00  0.00     0.189 HD
BRANCH  14  16
HETATM   16  N4  UNL     1      14.209  18.342  68.948  1.00  0.00    -0.250 N 
HETATM   17  C7  UNL     1      14.112  19.726  68.640  1.00  0.00     0.335 C 
HETATM   18  O2  UNL     1      15.117  20.275  68.121  1.00  0.00    -0.246 OA
HETATM   19  N5  UNL     1      12.960  20.521  68.878  1.00  0.00    -0.337 N 
ATOM     20  H5  UNL     1      12.138  20.087  69.298  1.00  0.00     0.164 HD
ATOM     21  H4  UNL     1      13.405  17.879  69.372  1.00  0.00     0.192 HD
BRANCH  19  22
HETATM   22  C8  UNL     1      12.916  21.930  68.542  1.00  0.00     0.085 C 
HETATM   23  C9  UNL     1      13.289  22.825  69.692  1.00  0.00     0.032 C 
BRANCH  22  24
HETATM   24  C10 UNL     1      11.608  22.310  67.881  1.00  0.00    -0.000 C 
HETATM   25  C11 UNL     1      11.908  23.521  67.002  1.00  0.00     0.011 C 
HETATM   26  C12 UNL     1      10.535  22.707  68.836  1.00  0.00     0.011 C 
ENDBRANCH  22  24
ENDBRANCH  19  22
ENDBRANCH  14  16
ENDBRANCH   8  14
BRANCH   5  27
HETATM   27  C4  UNL     1      12.784  13.024  65.779  1.00  0.00     0.282 C 
HETATM   28  N2  UNL     1      12.208  12.188  66.755  1.00  0.00    -0.056 NA
HETATM   29  O1  UNL     1      12.042  13.512  64.889  1.00  0.00    -0.269 OA
ENDBRANCH   5  27
TORSDOF 5
ENDMDL
