MODEL 1
REMARK VINA RESULT: -5.939751288      0.000      0.000
REMARK  9 active torsions:
REMARK  status: ('A' for Active; 'I' for Inactive)
REMARK    1  A    between atoms: N1_2  and  C3_4 
REMARK    2  A    between atoms: N1_2  and  C5_10 
REMARK    3  A    between atoms: C3_4  and  C4_5 
REMARK    4  A    between atoms: C4_5  and  O1_6 
REMARK    5  A    between atoms: O1_6  and  N2_7 
REMARK    6  A    between atoms: C5_10  and  C6_11 
REMARK    7  A    between atoms: C9_14  and  C10_15 
REMARK    8  A    between atoms: C10_15  and  N3_16 
REMARK    9  A    between atoms: N3_16  and  N4_18 
REMARK       I    between atoms: N4_18  and  C11_20 
ROOT
HETATM    1  C6  UNL     1      50.227   4.946  57.898  1.00  0.00    -0.031 A 
HETATM    2  C7  UNL     1      51.145   4.803  56.900  1.00  0.00     0.010 A 
HETATM    3  C8  UNL     1      51.156   5.608  55.748  1.00  0.00     0.015 A 
HETATM    4  C9  UNL     1      50.164   6.586  55.633  1.00  0.00    -0.002 A 
HETATM    5  C12 UNL     1      49.184   6.736  56.674  1.00  0.00     0.023 A 
HETATM    6 BR1  UNL     1      47.855   8.024  56.520  1.00  0.00    -0.050 Br
HETATM    7  C13 UNL     1      49.284   5.926  57.727  1.00  0.00     0.028 A 
ENDROOT
BRANCH   1   8
HETATM    8  C5  UNL     1      50.410   4.149  59.159  1.00  0.00     0.275 C 
BRANCH   8   9
HETATM    9  N1  UNL     1      49.658   2.898  59.217  1.00  0.00    -0.069 N 
HETATM   10  C1  UNL     1      49.501   2.297  57.931  1.00  0.00     0.272 C 
HETATM   11  C2  UNL     1      50.499   1.953  60.002  1.00  0.00     0.272 C 
BRANCH   9  12
HETATM   12  C3  UNL     1      48.428   3.226  59.777  1.00  0.00     0.265 C 
BRANCH  12  13
HETATM   13  C4  UNL     1      47.141   2.784  59.015  1.00  0.00     0.228 C 
BRANCH  13  14
HETATM   14  O1  UNL     1      46.713   1.739  59.934  1.00  0.00    -0.286 OA
BRANCH  14  15
HETATM   15  N2  UNL     1      46.069   0.764  59.276  1.00  0.00    -0.311 N 
ATOM     16  H22 UNL     1      45.056   0.728  59.162  1.00  0.00     0.184 HD
ATOM     17  H21 UNL     1      46.730   0.076  58.913  1.00  0.00     0.184 HD
ENDBRANCH  14  15
ENDBRANCH  13  14
ENDBRANCH  12  13
ENDBRANCH   9  12
ENDBRANCH   8   9
ENDBRANCH   1   8
BRANCH   4  18
HETATM   18  C10 UNL     1      50.067   7.369  54.498  1.00  0.00     0.120 C 
BRANCH  18  19
HETATM   19  N3  UNL     1      49.900   7.091  53.201  1.00  0.00    -0.309 N 
ATOM     20  H3  UNL     1      50.689   6.759  52.645  1.00  0.00     0.186 HD
BRANCH  19  21
HETATM   21  N4  UNL     1      48.663   7.254  52.614  1.00  0.00    -0.274 N 
HETATM   22  C11 UNL     1      47.813   8.088  52.751  1.00  0.00     0.200 C 
HETATM   23  N5  UNL     1      46.725   7.379  51.507  1.00  0.00    -0.062 NA
HETATM   24  N6  UNL     1      47.040   9.069  53.051  1.00  0.00    -0.372 N 
ATOM     25  H62 UNL     1      47.657   9.471  53.757  1.00  0.00     0.158 HD
ATOM     26  H61 UNL     1      46.317   9.778  53.168  1.00  0.00     0.158 HD
ATOM     27  H4  UNL     1      48.426   6.528  51.937  1.00  0.00     0.189 HD
ENDBRANCH  19  21
ENDBRANCH  18  19
ENDBRANCH   4  18
TORSDOF 9
ENDMDL
MODEL 2
REMARK VINA RESULT: -5.924294075      1.574      2.174
REMARK  9 active torsions:
REMARK  status: ('A' for Active; 'I' for Inactive)
REMARK    1  A    between atoms: N1_2  and  C3_4 
REMARK    2  A    between atoms: N1_2  and  C5_10 
REMARK    3  A    between atoms: C3_4  and  C4_5 
REMARK    4  A    between atoms: C4_5  and  O1_6 
REMARK    5  A    between atoms: O1_6  and  N2_7 
REMARK    6  A    between atoms: C5_10  and  C6_11 
REMARK    7  A    between atoms: C9_14  and  C10_15 
REMARK    8  A    between atoms: C10_15  and  N3_16 
REMARK    9  A    between atoms: N3_16  and  N4_18 
REMARK       I    between atoms: N4_18  and  C11_20 
ROOT
HETATM    1  C6  UNL     1      49.804   6.300  57.487  1.00  0.00    -0.031 A 
HETATM    2  C7  UNL     1      48.557   6.713  57.122  1.00  0.00     0.010 A 
HETATM    3  C8  UNL     1      48.254   7.186  55.833  1.00  0.00     0.015 A 
HETATM    4  C9  UNL     1      49.296   7.238  54.903  1.00  0.00    -0.002 A 
HETATM    5  C12 UNL     1      50.616   6.817  55.283  1.00  0.00     0.023 A 
HETATM    6 BR1  UNL     1      52.007   6.899  54.055  1.00  0.00    -0.050 Br
HETATM    7  C13 UNL     1      50.779   6.371  56.527  1.00  0.00     0.028 A 
ENDROOT
BRANCH   1   8
HETATM    8  C5  UNL     1      49.977   5.654  58.834  1.00  0.00     0.275 C 
BRANCH   8   9
HETATM    9  N1  UNL     1      49.886   4.196  58.839  1.00  0.00    -0.069 N 
HETATM   10  C1  UNL     1      49.817   3.650  57.521  1.00  0.00     0.272 C 
HETATM   11  C2  UNL     1      51.172   3.708  59.410  1.00  0.00     0.272 C 
BRANCH   9  12
HETATM   12  C3  UNL     1      48.743   3.895  59.573  1.00  0.00     0.265 C 
BRANCH  12  13
HETATM   13  C4  UNL     1      47.524   3.293  58.807  1.00  0.00     0.228 C 
BRANCH  13  14
HETATM   14  O1  UNL     1      47.120   2.316  59.808  1.00  0.00    -0.286 OA
BRANCH  14  15
HETATM   15  N2  UNL     1      46.152   1.521  59.331  1.00  0.00    -0.311 N 
ATOM     16  H22 UNL     1      45.402   1.134  59.903  1.00  0.00     0.184 HD
ATOM     17  H21 UNL     1      46.275   1.363  58.330  1.00  0.00     0.184 HD
ENDBRANCH  14  15
ENDBRANCH  13  14
ENDBRANCH  12  13
ENDBRANCH   9  12
ENDBRANCH   8   9
ENDBRANCH   1   8
BRANCH   4  18
HETATM   18  C10 UNL     1      49.092   7.757  53.638  1.00  0.00     0.120 C 
BRANCH  18  19
HETATM   19  N3  UNL     1      48.667   7.229  52.484  1.00  0.00    -0.309 N 
ATOM     20  H3  UNL     1      49.202   6.485  52.036  1.00  0.00     0.186 HD
BRANCH  19  21
HETATM   21  N4  UNL     1      47.505   7.690  51.901  1.00  0.00    -0.274 N 
HETATM   22  C11 UNL     1      46.969   7.427  50.862  1.00  0.00     0.200 C 
HETATM   23  N5  UNL     1      45.564   8.510  51.156  1.00  0.00    -0.062 NA
HETATM   24  N6  UNL     1      46.571   7.009  49.715  1.00  0.00    -0.372 N 
ATOM     25  H62 UNL     1      47.368   6.394  49.548  1.00  0.00     0.158 HD
ATOM     26  H61 UNL     1      46.115   6.785  48.830  1.00  0.00     0.158 HD
ATOM     27  H4  UNL     1      47.009   8.386  52.459  1.00  0.00     0.189 HD
ENDBRANCH  19  21
ENDBRANCH  18  19
ENDBRANCH   4  18
TORSDOF 9
ENDMDL
MODEL 3
REMARK VINA RESULT: -5.916701732      1.400      1.745
REMARK  9 active torsions:
REMARK  status: ('A' for Active; 'I' for Inactive)
REMARK    1  A    between atoms: N1_2  and  C3_4 
REMARK    2  A    between atoms: N1_2  and  C5_10 
REMARK    3  A    between atoms: C3_4  and  C4_5 
REMARK    4  A    between atoms: C4_5  and  O1_6 
REMARK    5  A    between atoms: O1_6  and  N2_7 
REMARK    6  A    between atoms: C5_10  and  C6_11 
REMARK    7  A    between atoms: C9_14  and  C10_15 
REMARK    8  A    between atoms: C10_15  and  N3_16 
REMARK    9  A    between atoms: N3_16  and  N4_18 
REMARK       I    between atoms: N4_18  and  C11_20 
ROOT
HETATM    1  C6  UNL     1      49.614   5.275  57.846  1.00  0.00    -0.031 A 
HETATM    2  C7  UNL     1      48.642   6.072  57.315  1.00  0.00     0.010 A 
HETATM    3  C8  UNL     1      48.806   6.785  56.115  1.00  0.00     0.015 A 
HETATM    4  C9  UNL     1      50.033   6.667  55.457  1.00  0.00    -0.002 A 
HETATM    5  C12 UNL     1      51.069   5.841  56.015  1.00  0.00     0.023 A 
HETATM    6 BR1  UNL     1      52.706   5.694  55.152  1.00  0.00    -0.050 Br
HETATM    7  C13 UNL     1      50.792   5.200  57.149  1.00  0.00     0.028 A 
ENDROOT
BRANCH   1   8
HETATM    8  C5  UNL     1      49.272   4.428  59.039  1.00  0.00     0.275 C 
BRANCH   8   9
HETATM    9  N1  UNL     1      48.853   3.062  58.731  1.00  0.00    -0.069 N 
HETATM   10  C1  UNL     1      49.130   2.701  57.377  1.00  0.00     0.272 C 
HETATM   11  C2  UNL     1      49.709   2.175  59.566  1.00  0.00     0.272 C 
BRANCH   9  12
HETATM   12  C3  UNL     1      47.489   3.019  58.999  1.00  0.00     0.265 C 
BRANCH  12  13
HETATM   13  C4  UNL     1      46.966   1.882  59.930  1.00  0.00     0.228 C 
BRANCH  13  14
HETATM   14  O1  UNL     1      46.489   0.978  58.894  1.00  0.00    -0.286 OA
BRANCH  14  15
HETATM   15  N2  UNL     1      45.643   0.072  59.407  1.00  0.00    -0.311 N 
ATOM     16  H22 UNL     1      45.900  -0.599  60.130  1.00  0.00     0.184 HD
ATOM     17  H21 UNL     1      44.722   0.153  58.975  1.00  0.00     0.184 HD
ENDBRANCH  14  15
ENDBRANCH  13  14
ENDBRANCH  12  13
ENDBRANCH   9  12
ENDBRANCH   8   9
ENDBRANCH   1   8
BRANCH   4  18
HETATM   18  C10 UNL     1      50.295   7.392  54.309  1.00  0.00     0.120 C 
BRANCH  18  19
HETATM   19  N3  UNL     1      50.059   7.175  53.010  1.00  0.00    -0.309 N 
ATOM     20  H3  UNL     1      50.827   6.920  52.388  1.00  0.00     0.186 HD
BRANCH  19  21
HETATM   21  N4  UNL     1      48.779   7.297  52.512  1.00  0.00    -0.274 N 
HETATM   22  C11 UNL     1      47.903   8.084  52.734  1.00  0.00     0.200 C 
HETATM   23  N5  UNL     1      46.769   7.365  51.539  1.00  0.00    -0.062 NA
HETATM   24  N6  UNL     1      47.108   9.016  53.119  1.00  0.00    -0.372 N 
ATOM     25  H62 UNL     1      47.751   9.425  53.798  1.00  0.00     0.158 HD
ATOM     26  H61 UNL     1      46.362   9.686  53.308  1.00  0.00     0.158 HD
ATOM     27  H4  UNL     1      48.532   6.584  51.826  1.00  0.00     0.189 HD
ENDBRANCH  19  21
ENDBRANCH  18  19
ENDBRANCH   4  18
TORSDOF 9
ENDMDL
MODEL 4
REMARK VINA RESULT: -5.847751976      3.598      8.104
REMARK  9 active torsions:
REMARK  status: ('A' for Active; 'I' for Inactive)
REMARK    1  A    between atoms: N1_2  and  C3_4 
REMARK    2  A    between atoms: N1_2  and  C5_10 
REMARK    3  A    between atoms: C3_4  and  C4_5 
REMARK    4  A    between atoms: C4_5  and  O1_6 
REMARK    5  A    between atoms: O1_6  and  N2_7 
REMARK    6  A    between atoms: C5_10  and  C6_11 
REMARK    7  A    between atoms: C9_14  and  C10_15 
REMARK    8  A    between atoms: C10_15  and  N3_16 
REMARK    9  A    between atoms: N3_16  and  N4_18 
REMARK       I    between atoms: N4_18  and  C11_20 
ROOT
HETATM    1  C6  UNL     1      48.722   4.950  58.460  1.00  0.00    -0.031 A 
HETATM    2  C7  UNL     1      49.539   5.033  59.549  1.00  0.00     0.010 A 
HETATM    3  C8  UNL     1      49.616   4.027  60.527  1.00  0.00     0.015 A 
HETATM    4  C9  UNL     1      48.801   2.903  60.364  1.00  0.00    -0.002 A 
HETATM    5  C12 UNL     1      47.926   2.813  59.226  1.00  0.00     0.023 A 
HETATM    6 BR1  UNL     1      46.831   1.329  59.013  1.00  0.00    -0.050 Br
HETATM    7  C13 UNL     1      47.952   3.821  58.357  1.00  0.00     0.028 A 
ENDROOT
BRANCH   1   8
HETATM    8  C5  UNL     1      48.844   6.001  57.392  1.00  0.00     0.275 C 
BRANCH   8   9
HETATM    9  N1  UNL     1      50.126   6.026  56.691  1.00  0.00    -0.069 N 
HETATM   10  C1  UNL     1      51.191   6.493  57.520  1.00  0.00     0.272 C 
HETATM   11  C2  UNL     1      50.450   4.606  56.382  1.00  0.00     0.272 C 
BRANCH   9  12
HETATM   12  C3  UNL     1      49.936   6.859  55.593  1.00  0.00     0.265 C 
BRANCH  12  13
HETATM   13  C4  UNL     1      48.473   7.267  55.235  1.00  0.00     0.228 C 
BRANCH  13  14
HETATM   14  O1  UNL     1      48.768   8.040  54.037  1.00  0.00    -0.286 OA
BRANCH  14  15
HETATM   15  N2  UNL     1      48.956   7.231  52.984  1.00  0.00    -0.311 N 
ATOM     16  H22 UNL     1      49.737   6.581  52.900  1.00  0.00     0.184 HD
ATOM     17  H21 UNL     1      48.216   7.360  52.294  1.00  0.00     0.184 HD
ENDBRANCH  14  15
ENDBRANCH  13  14
ENDBRANCH  12  13
ENDBRANCH   9  12
ENDBRANCH   8   9
ENDBRANCH   1   8
BRANCH   4  18
HETATM   18  C10 UNL     1      48.769   1.905  61.320  1.00  0.00     0.120 C 
BRANCH  18  19
HETATM   19  N3  UNL     1      49.650   0.977  61.710  1.00  0.00    -0.309 N 
ATOM     20  H3  UNL     1      49.893   0.209  61.083  1.00  0.00     0.186 HD
BRANCH  19  21
HETATM   21  N4  UNL     1      50.228   1.057  62.959  1.00  0.00    -0.274 N 
HETATM   22  C11 UNL     1      50.536   1.992  63.643  1.00  0.00     0.200 C 
HETATM   23  N5  UNL     1      51.106   0.977  65.012  1.00  0.00    -0.062 NA
HETATM   24  N6  UNL     1      50.792   3.119  64.204  1.00  0.00    -0.372 N 
ATOM     25  H62 UNL     1      50.468   3.695  63.427  1.00  0.00     0.158 HD
ATOM     26  H61 UNL     1      51.054   3.915  64.785  1.00  0.00     0.158 HD
ATOM     27  H4  UNL     1      50.432   0.150  63.380  1.00  0.00     0.189 HD
ENDBRANCH  19  21
ENDBRANCH  18  19
ENDBRANCH   4  18
TORSDOF 9
ENDMDL
MODEL 5
REMARK VINA RESULT: -5.834493450      3.612      8.077
REMARK  9 active torsions:
REMARK  status: ('A' for Active; 'I' for Inactive)
REMARK    1  A    between atoms: N1_2  and  C3_4 
REMARK    2  A    between atoms: N1_2  and  C5_10 
REMARK    3  A    between atoms: C3_4  and  C4_5 
REMARK    4  A    between atoms: C4_5  and  O1_6 
REMARK    5  A    between atoms: O1_6  and  N2_7 
REMARK    6  A    between atoms: C5_10  and  C6_11 
REMARK    7  A    between atoms: C9_14  and  C10_15 
REMARK    8  A    between atoms: C10_15  and  N3_16 
REMARK    9  A    between atoms: N3_16  and  N4_18 
REMARK       I    between atoms: N4_18  and  C11_20 
ROOT
HETATM    1  C6  UNL     1      48.631   4.886  58.614  1.00  0.00    -0.031 A 
HETATM    2  C7  UNL     1      49.524   4.888  59.645  1.00  0.00     0.010 A 
HETATM    3  C8  UNL     1      49.662   3.815  60.542  1.00  0.00     0.015 A 
HETATM    4  C9  UNL     1      48.827   2.708  60.358  1.00  0.00    -0.002 A 
HETATM    5  C12 UNL     1      47.874   2.702  59.282  1.00  0.00     0.023 A 
HETATM    6 BR1  UNL     1      46.753   1.241  59.043  1.00  0.00    -0.050 Br
HETATM    7  C13 UNL     1      47.846   3.769  58.486  1.00  0.00     0.028 A 
ENDROOT
BRANCH   1   8
HETATM    8  C5  UNL     1      48.686   6.009  57.617  1.00  0.00     0.275 C 
BRANCH   8   9
HETATM    9  N1  UNL     1      49.955   6.145  56.905  1.00  0.00    -0.069 N 
HETATM   10  C1  UNL     1      51.021   6.550  57.766  1.00  0.00     0.272 C 
HETATM   11  C2  UNL     1      50.311   4.776  56.441  1.00  0.00     0.272 C 
BRANCH   9  12
HETATM   12  C3  UNL     1      49.725   7.086  55.907  1.00  0.00     0.265 C 
BRANCH  12  13
HETATM   13  C4  UNL     1      48.257   7.280  55.415  1.00  0.00     0.228 C 
BRANCH  13  14
HETATM   14  O1  UNL     1      48.108   8.682  55.778  1.00  0.00    -0.286 OA
BRANCH  14  15
HETATM   15  N2  UNL     1      46.818   8.984  55.983  1.00  0.00    -0.311 N 
ATOM     16  H22 UNL     1      46.485   9.915  56.232  1.00  0.00     0.184 HD
ATOM     17  H21 UNL     1      46.229   8.159  55.856  1.00  0.00     0.184 HD
ENDBRANCH  14  15
ENDBRANCH  13  14
ENDBRANCH  12  13
ENDBRANCH   9  12
ENDBRANCH   8   9
ENDBRANCH   1   8
BRANCH   4  18
HETATM   18  C10 UNL     1      48.855   1.644  61.240  1.00  0.00     0.120 C 
BRANCH  18  19
HETATM   19  N3  UNL     1      49.822   0.818  61.655  1.00  0.00    -0.309 N 
ATOM     20  H3  UNL     1      50.205   0.120  61.017  1.00  0.00     0.186 HD
BRANCH  19  21
HETATM   21  N4  UNL     1      50.300   0.910  62.945  1.00  0.00    -0.274 N 
HETATM   22  C11 UNL     1      50.567   1.851  63.638  1.00  0.00     0.200 C 
HETATM   23  N5  UNL     1      51.012   0.850  65.063  1.00  0.00    -0.062 NA
HETATM   24  N6  UNL     1      50.795   2.983  64.201  1.00  0.00    -0.372 N 
ATOM     25  H62 UNL     1      50.543   3.551  63.392  1.00  0.00     0.158 HD
ATOM     26  H61 UNL     1      51.022   3.784  64.790  1.00  0.00     0.158 HD
ATOM     27  H4  UNL     1      50.457   0.007  63.395  1.00  0.00     0.189 HD
ENDBRANCH  19  21
ENDBRANCH  18  19
ENDBRANCH   4  18
TORSDOF 9
ENDMDL
