MODEL 1
REMARK VINA RESULT: -8.187953265      0.000      0.000
REMARK  6 active torsions:
REMARK  status: ('A' for Active; 'I' for Inactive)
REMARK    1  A    between atoms: C2_2  and  C3_3 
REMARK    2  A    between atoms: C3_3  and  O1_4 
REMARK    3  A    between atoms: C3_3  and  C14_18 
REMARK    4  A    between atoms: O1_4  and  O2_5 
REMARK    5  A    between atoms: O2_5  and  C4_6 
REMARK    6  A    between atoms: C4_6  and  C5_7 
ROOT
HETATM    1  C5  UNL     1      22.239  46.467  61.772  1.00  0.00     0.012 C 
HETATM    2  C6  UNL     1      22.835  45.392  60.922  1.00  0.00     0.009 C 
HETATM    3  C7  UNL     1      23.311  45.986  59.622  1.00  0.00     0.032 C 
HETATM    4  C8  UNL     1      24.008  47.318  59.830  1.00  0.00     0.056 C 
HETATM    5  C9  UNL     1      23.068  48.336  60.454  1.00  0.00     0.032 C 
HETATM    6  C10 UNL     1      21.797  47.671  60.972  1.00  0.00     0.009 C 
HETATM    7  S1  UNL     1      25.424  47.044  60.903  1.00  0.00    -0.148 SA
HETATM    8  C11 UNL     1      26.982  47.063  59.979  1.00  0.00     0.076 C 
HETATM    9  C12 UNL     1      26.833  46.448  58.624  1.00  0.00     0.020 C 
HETATM   10  C13 UNL     1      26.074  47.279  57.652  1.00  0.00     0.076 C 
HETATM   11  S2  UNL     1      24.551  47.961  58.249  1.00  0.00    -0.148 SA
ENDROOT
BRANCH   1  12
HETATM   12  C4  UNL     1      21.097  45.907  62.568  1.00  0.00     0.214 C 
BRANCH  12  13
HETATM   13  O2  UNL     1      19.962  46.668  62.372  1.00  0.00    -0.240 OA
BRANCH  13  14
HETATM   14  O1  UNL     1      19.694  47.250  63.541  1.00  0.00    -0.235 OA
BRANCH  14  15
HETATM   15  C3  UNL     1      18.975  48.422  63.377  1.00  0.00     0.164 C 
BRANCH  15  16
HETATM   16  C2  UNL     1      19.794  49.611  63.885  1.00  0.00     0.031 C 
HETATM   17  C1  UNL     1      21.209  49.222  64.160  1.00  0.00     0.007 C 
ENDBRANCH  15  16
BRANCH  15  18
HETATM   18  C14 UNL     1      18.575  48.658  61.948  1.00  0.00     0.018 A 
HETATM   19  C15 UNL     1      17.136  48.464  61.617  1.00  0.00     0.007 A 
HETATM   20  C16 UNL     1      17.779  49.820  61.536  1.00  0.00     0.007 A 
ENDBRANCH  15  18
ENDBRANCH  14  15
ENDBRANCH  13  14
ENDBRANCH  12  13
ENDBRANCH   1  12
TORSDOF 6
ENDMDL
MODEL 2
REMARK VINA RESULT: -8.128359309      1.031      1.268
REMARK  6 active torsions:
REMARK  status: ('A' for Active; 'I' for Inactive)
REMARK    1  A    between atoms: C2_2  and  C3_3 
REMARK    2  A    between atoms: C3_3  and  O1_4 
REMARK    3  A    between atoms: C3_3  and  C14_18 
REMARK    4  A    between atoms: O1_4  and  O2_5 
REMARK    5  A    between atoms: O2_5  and  C4_6 
REMARK    6  A    between atoms: C4_6  and  C5_7 
ROOT
HETATM    1  C5  UNL     1      22.317  46.291  62.227  1.00  0.00     0.012 C 
HETATM    2  C6  UNL     1      23.327  45.199  62.080  1.00  0.00     0.009 C 
HETATM    3  C7  UNL     1      24.237  45.508  60.922  1.00  0.00     0.032 C 
HETATM    4  C8  UNL     1      24.635  46.972  60.890  1.00  0.00     0.056 C 
HETATM    5  C9  UNL     1      23.417  47.867  60.736  1.00  0.00     0.032 C 
HETATM    6  C10 UNL     1      22.126  47.087  60.955  1.00  0.00     0.009 C 
HETATM    7  S1  UNL     1      25.490  47.351  62.425  1.00  0.00    -0.148 SA
HETATM    8  C11 UNL     1      27.280  47.488  62.183  1.00  0.00     0.076 C 
HETATM    9  C12 UNL     1      27.781  46.506  61.171  1.00  0.00     0.020 C 
HETATM   10  C13 UNL     1      27.416  46.832  59.767  1.00  0.00     0.076 C 
HETATM   11  S2  UNL     1      25.719  47.267  59.495  1.00  0.00    -0.148 SA
ENDROOT
BRANCH   1  12
HETATM   12  C4  UNL     1      21.014  45.715  62.697  1.00  0.00     0.214 C 
BRANCH  12  13
HETATM   13  O2  UNL     1      19.986  46.605  62.457  1.00  0.00    -0.240 OA
BRANCH  13  14
HETATM   14  O1  UNL     1      19.765  47.242  63.608  1.00  0.00    -0.235 OA
BRANCH  14  15
HETATM   15  C3  UNL     1      19.064  48.420  63.415  1.00  0.00     0.164 C 
BRANCH  15  16
HETATM   16  C2  UNL     1      19.885  49.605  63.929  1.00  0.00     0.031 C 
HETATM   17  C1  UNL     1      21.338  49.268  64.010  1.00  0.00     0.007 C 
ENDBRANCH  15  16
BRANCH  15  18
HETATM   18  C14 UNL     1      18.701  48.646  61.974  1.00  0.00     0.018 A 
HETATM   19  C15 UNL     1      17.284  48.382  61.594  1.00  0.00     0.007 A 
HETATM   20  C16 UNL     1      17.861  49.769  61.541  1.00  0.00     0.007 A 
ENDBRANCH  15  18
ENDBRANCH  14  15
ENDBRANCH  13  14
ENDBRANCH  12  13
ENDBRANCH   1  12
TORSDOF 6
ENDMDL
MODEL 3
REMARK VINA RESULT: -7.833214578      1.676      3.018
REMARK  6 active torsions:
REMARK  status: ('A' for Active; 'I' for Inactive)
REMARK    1  A    between atoms: C2_2  and  C3_3 
REMARK    2  A    between atoms: C3_3  and  O1_4 
REMARK    3  A    between atoms: C3_3  and  C14_18 
REMARK    4  A    between atoms: O1_4  and  O2_5 
REMARK    5  A    between atoms: O2_5  and  C4_6 
REMARK    6  A    between atoms: C4_6  and  C5_7 
ROOT
HETATM    1  C5  UNL     1      23.066  47.479  60.501  1.00  0.00     0.012 C 
HETATM    2  C6  UNL     1      23.134  46.220  61.303  1.00  0.00     0.009 C 
HETATM    3  C7  UNL     1      24.248  45.352  60.781  1.00  0.00     0.032 C 
HETATM    4  C8  UNL     1      25.491  46.161  60.457  1.00  0.00     0.056 C 
HETATM    5  C9  UNL     1      25.206  47.195  59.381  1.00  0.00     0.032 C 
HETATM    6  C10 UNL     1      23.708  47.343  59.139  1.00  0.00     0.009 C 
HETATM    7  S1  UNL     1      26.037  46.972  61.965  1.00  0.00    -0.148 SA
HETATM    8  C11 UNL     1      27.491  46.160  62.678  1.00  0.00     0.076 C 
HETATM    9  C12 UNL     1      27.441  44.676  62.502  1.00  0.00     0.020 C 
HETATM   10  C13 UNL     1      27.682  44.213  61.110  1.00  0.00     0.076 C 
HETATM   11  S2  UNL     1      26.774  45.068  59.850  1.00  0.00    -0.148 SA
ENDROOT
BRANCH   1  12
HETATM   12  C4  UNL     1      21.638  47.922  60.375  1.00  0.00     0.214 C 
BRANCH  12  13
HETATM   13  O2  UNL     1      20.834  47.182  61.220  1.00  0.00    -0.240 OA
BRANCH  13  14
HETATM   14  O1  UNL     1      19.630  47.754  61.188  1.00  0.00    -0.235 OA
BRANCH  14  15
HETATM   15  C3  UNL     1      19.609  48.944  61.896  1.00  0.00     0.164 C 
BRANCH  15  16
HETATM   16  C2  UNL     1      18.277  49.663  61.667  1.00  0.00     0.031 C 
HETATM   17  C1  UNL     1      17.149  48.693  61.529  1.00  0.00     0.007 C 
ENDBRANCH  15  16
BRANCH  15  18
HETATM   18  C14 UNL     1      19.826  48.742  63.369  1.00  0.00     0.018 A 
HETATM   19  C15 UNL     1      21.172  49.099  63.900  1.00  0.00     0.007 A 
HETATM   20  C16 UNL     1      19.945  49.865  64.307  1.00  0.00     0.007 A 
ENDBRANCH  15  18
ENDBRANCH  14  15
ENDBRANCH  13  14
ENDBRANCH  12  13
ENDBRANCH   1  12
TORSDOF 6
ENDMDL
MODEL 4
REMARK VINA RESULT: -7.817422683      1.557      2.513
REMARK  6 active torsions:
REMARK  status: ('A' for Active; 'I' for Inactive)
REMARK    1  A    between atoms: C2_2  and  C3_3 
REMARK    2  A    between atoms: C3_3  and  O1_4 
REMARK    3  A    between atoms: C3_3  and  C14_18 
REMARK    4  A    between atoms: O1_4  and  O2_5 
REMARK    5  A    between atoms: O2_5  and  C4_6 
REMARK    6  A    between atoms: C4_6  and  C5_7 
ROOT
HETATM    1  C5  UNL     1      23.132  46.301  62.483  1.00  0.00     0.012 C 
HETATM    2  C6  UNL     1      23.237  45.427  61.275  1.00  0.00     0.009 C 
HETATM    3  C7  UNL     1      24.292  45.973  60.350  1.00  0.00     0.032 C 
HETATM    4  C8  UNL     1      25.522  46.439  61.107  1.00  0.00     0.056 C 
HETATM    5  C9  UNL     1      25.177  47.555  62.079  1.00  0.00     0.032 C 
HETATM    6  C10 UNL     1      23.668  47.695  62.246  1.00  0.00     0.009 C 
HETATM    7  S1  UNL     1      26.194  45.030  61.999  1.00  0.00    -0.148 SA
HETATM    8  C11 UNL     1      27.683  44.375  61.200  1.00  0.00     0.076 C 
HETATM    9  C12 UNL     1      27.592  44.451  59.708  1.00  0.00     0.020 C 
HETATM   10  C13 UNL     1      27.719  45.825  59.154  1.00  0.00     0.076 C 
HETATM   11  S2  UNL     1      26.735  47.067  59.949  1.00  0.00    -0.148 SA
ENDROOT
BRANCH   1  12
HETATM   12  C4  UNL     1      21.707  46.350  62.949  1.00  0.00     0.214 C 
BRANCH  12  13
HETATM   13  O2  UNL     1      20.870  46.652  61.893  1.00  0.00    -0.240 OA
BRANCH  13  14
HETATM   14  O1  UNL     1      19.701  47.004  62.430  1.00  0.00    -0.235 OA
BRANCH  14  15
HETATM   15  C3  UNL     1      19.323  48.279  62.044  1.00  0.00     0.164 C 
BRANCH  15  16
HETATM   16  C2  UNL     1      17.916  48.245  61.443  1.00  0.00     0.031 C 
HETATM   17  C1  UNL     1      17.244  49.575  61.550  1.00  0.00     0.007 C 
ENDBRANCH  15  16
BRANCH  15  18
HETATM   18  C14 UNL     1      19.361  49.261  63.181  1.00  0.00     0.018 A 
HETATM   19  C15 UNL     1      19.419  48.688  64.555  1.00  0.00     0.007 A 
HETATM   20  C16 UNL     1      20.566  49.479  63.991  1.00  0.00     0.007 A 
ENDBRANCH  15  18
ENDBRANCH  14  15
ENDBRANCH  13  14
ENDBRANCH  12  13
ENDBRANCH   1  12
TORSDOF 6
ENDMDL
MODEL 5
REMARK VINA RESULT: -7.807850900      1.522      3.154
REMARK  6 active torsions:
REMARK  status: ('A' for Active; 'I' for Inactive)
REMARK    1  A    between atoms: C2_2  and  C3_3 
REMARK    2  A    between atoms: C3_3  and  O1_4 
REMARK    3  A    between atoms: C3_3  and  C14_18 
REMARK    4  A    between atoms: O1_4  and  O2_5 
REMARK    5  A    between atoms: O2_5  and  C4_6 
REMARK    6  A    between atoms: C4_6  and  C5_7 
ROOT
HETATM    1  C5  UNL     1      22.975  47.260  60.498  1.00  0.00     0.012 C 
HETATM    2  C6  UNL     1      23.828  48.052  61.435  1.00  0.00     0.009 C 
HETATM    3  C7  UNL     1      24.804  47.135  62.124  1.00  0.00     0.032 C 
HETATM    4  C8  UNL     1      25.401  46.122  61.165  1.00  0.00     0.056 C 
HETATM    5  C9  UNL     1      24.322  45.236  60.564  1.00  0.00     0.032 C 
HETATM    6  C10 UNL     1      22.930  45.789  60.848  1.00  0.00     0.009 C 
HETATM    7  S1  UNL     1      26.257  47.021  59.865  1.00  0.00    -0.148 SA
HETATM    8  C11 UNL     1      28.055  46.967  60.082  1.00  0.00     0.076 C 
HETATM    9  C12 UNL     1      28.443  47.019  61.526  1.00  0.00     0.020 C 
HETATM   10  C13 UNL     1      28.166  45.769  62.282  1.00  0.00     0.076 C 
HETATM   11  S2  UNL     1      26.553  45.072  62.047  1.00  0.00    -0.148 SA
ENDROOT
BRANCH   1  12
HETATM   12  C4  UNL     1      21.593  47.841  60.459  1.00  0.00     0.214 C 
BRANCH  12  13
HETATM   13  O2  UNL     1      20.754  47.133  61.297  1.00  0.00    -0.240 OA
BRANCH  13  14
HETATM   14  O1  UNL     1      19.567  47.737  61.237  1.00  0.00    -0.235 OA
BRANCH  14  15
HETATM   15  C3  UNL     1      19.572  48.945  61.914  1.00  0.00     0.164 C 
BRANCH  15  16
HETATM   16  C2  UNL     1      18.246  49.676  61.687  1.00  0.00     0.031 C 
HETATM   17  C1  UNL     1      17.109  48.715  61.554  1.00  0.00     0.007 C 
ENDBRANCH  15  16
BRANCH  15  18
HETATM   18  C14 UNL     1      19.809  48.778  63.389  1.00  0.00     0.018 A 
HETATM   19  C15 UNL     1      21.161  49.148  63.893  1.00  0.00     0.007 A 
HETATM   20  C16 UNL     1      19.939  49.922  64.299  1.00  0.00     0.007 A 
ENDBRANCH  15  18
ENDBRANCH  14  15
ENDBRANCH  13  14
ENDBRANCH  12  13
ENDBRANCH   1  12
TORSDOF 6
ENDMDL
