MODEL 1
REMARK VINA RESULT: -5.210778725      0.000      0.000
REMARK  1 active torsions:
REMARK  status: ('A' for Active; 'I' for Inactive)
REMARK    1  A    between atoms: C6_6  and  C7_7 
ROOT
HETATM    1  C1  UNL     1      -0.452 -11.690  14.678  1.00  0.00     0.015 C 
HETATM    2  C2  UNL     1       0.824 -12.233  14.084  1.00  0.00    -0.040 A 
HETATM    3  C3  UNL     1       1.368 -11.344  12.962  1.00  0.00     0.015 C 
HETATM    4  C4  UNL     1       1.854 -12.874  14.914  1.00  0.00    -0.001 A 
HETATM    5  C5  UNL     1       1.550 -13.541  16.221  1.00  0.00     0.019 C 
HETATM    6  C6  UNL     1       1.339 -14.982  15.746  1.00  0.00     0.076 C 
HETATM    7  C8  UNL     1       0.310 -14.725  14.655  1.00  0.00     0.019 C 
HETATM    8  C9  UNL     1       1.037 -13.663  13.860  1.00  0.00    -0.001 A 
ENDROOT
BRANCH   6   9
HETATM    9  C7  UNL     1       0.853 -15.861  16.804  1.00  0.00     0.235 C 
HETATM   10  N1  UNL     1       1.498 -16.045  18.041  1.00  0.00    -0.062 NA
HETATM   11  O1  UNL     1      -0.214 -16.497  16.599  1.00  0.00    -0.277 OA
ENDBRANCH   6   9
TORSDOF 1
ENDMDL
MODEL 2
REMARK VINA RESULT: -4.827441252      1.354      2.156
REMARK  1 active torsions:
REMARK  status: ('A' for Active; 'I' for Inactive)
REMARK    1  A    between atoms: C6_6  and  C7_7 
ROOT
HETATM    1  C1  UNL     1       1.495 -11.135  13.106  1.00  0.00     0.015 C 
HETATM    2  C2  UNL     1       0.145 -11.456  13.696  1.00  0.00    -0.040 A 
HETATM    3  C3  UNL     1      -0.957 -10.535  13.166  1.00  0.00     0.015 C 
HETATM    4  C4  UNL     1      -0.281 -12.841  13.949  1.00  0.00    -0.001 A 
HETATM    5  C5  UNL     1       0.685 -13.959  14.192  1.00  0.00     0.019 C 
HETATM    6  C6  UNL     1       0.758 -13.928  15.722  1.00  0.00     0.076 C 
HETATM    7  C8  UNL     1       1.088 -12.455  15.914  1.00  0.00     0.019 C 
HETATM    8  C9  UNL     1      -0.026 -11.834  15.100  1.00  0.00    -0.001 A 
ENDROOT
BRANCH   6   9
HETATM    9  C7  UNL     1       1.778 -14.822  16.258  1.00  0.00     0.235 C 
HETATM   10  N1  UNL     1       2.664 -14.482  17.297  1.00  0.00    -0.062 NA
HETATM   11  O1  UNL     1       1.873 -15.975  15.761  1.00  0.00    -0.277 OA
ENDBRANCH   6   9
TORSDOF 1
ENDMDL
MODEL 3
REMARK VINA RESULT: -4.774550168      3.311      4.609
REMARK  1 active torsions:
REMARK  status: ('A' for Active; 'I' for Inactive)
REMARK    1  A    between atoms: C6_6  and  C7_7 
ROOT
HETATM    1  C1  UNL     1       0.426 -15.169  15.709  1.00  0.00     0.015 C 
HETATM    2  C2  UNL     1       1.403 -14.071  16.048  1.00  0.00    -0.040 A 
HETATM    3  C3  UNL     1       2.356 -14.468  17.178  1.00  0.00     0.015 C 
HETATM    4  C4  UNL     1       2.002 -13.219  15.010  1.00  0.00    -0.001 A 
HETATM    5  C5  UNL     1       1.342 -12.956  13.690  1.00  0.00     0.019 C 
HETATM    6  C6  UNL     1       0.590 -11.663  14.017  1.00  0.00     0.076 C 
HETATM    7  C8  UNL     1      -0.147 -12.125  15.265  1.00  0.00     0.019 C 
HETATM    8  C9  UNL     1       1.018 -12.659  16.069  1.00  0.00    -0.001 A 
ENDROOT
BRANCH   6   9
HETATM    9  C7  UNL     1      -0.303 -11.241  12.943  1.00  0.00     0.235 C 
HETATM   10  N1  UNL     1       0.090 -11.090  11.599  1.00  0.00    -0.062 NA
HETATM   11  O1  UNL     1      -1.503 -10.996  13.234  1.00  0.00    -0.277 OA
ENDBRANCH   6   9
TORSDOF 1
ENDMDL
MODEL 4
REMARK VINA RESULT: -4.670667030      1.491      1.776
REMARK  1 active torsions:
REMARK  status: ('A' for Active; 'I' for Inactive)
REMARK    1  A    between atoms: C6_6  and  C7_7 
ROOT
HETATM    1  C1  UNL     1      -1.133 -11.373  13.872  1.00  0.00     0.015 C 
HETATM    2  C2  UNL     1       0.330 -11.012  13.813  1.00  0.00    -0.040 A 
HETATM    3  C3  UNL     1       0.583  -9.739  13.001  1.00  0.00     0.015 C 
HETATM    4  C4  UNL     1       1.221 -11.190  14.970  1.00  0.00    -0.001 A 
HETATM    5  C5  UNL     1       0.965 -12.198  16.047  1.00  0.00     0.019 C 
HETATM    6  C6  UNL     1       1.779 -13.380  15.510  1.00  0.00     0.076 C 
HETATM    7  C8  UNL     1       1.191 -13.457  14.109  1.00  0.00     0.019 C 
HETATM    8  C9  UNL     1       1.381 -12.021  13.671  1.00  0.00    -0.001 A 
ENDROOT
BRANCH   6   9
HETATM    9  C7  UNL     1       1.584 -14.600  16.285  1.00  0.00     0.235 C 
HETATM   10  N1  UNL     1       1.725 -15.901  15.766  1.00  0.00    -0.062 NA
HETATM   11  O1  UNL     1       1.269 -14.485  17.499  1.00  0.00    -0.277 OA
ENDBRANCH   6   9
TORSDOF 1
ENDMDL
MODEL 5
REMARK VINA RESULT: -4.670517338      1.780      2.534
REMARK  1 active torsions:
REMARK  status: ('A' for Active; 'I' for Inactive)
REMARK    1  A    between atoms: C6_6  and  C7_7 
ROOT
HETATM    1  C1  UNL     1       1.593 -10.103  13.939  1.00  0.00     0.015 C 
HETATM    2  C2  UNL     1       0.219 -10.710  14.070  1.00  0.00    -0.040 A 
HETATM    3  C3  UNL     1      -0.878  -9.791  13.525  1.00  0.00     0.015 C 
HETATM    4  C4  UNL     1      -0.019 -12.145  13.854  1.00  0.00    -0.001 A 
HETATM    5  C5  UNL     1       1.043 -13.185  14.047  1.00  0.00     0.019 C 
HETATM    6  C6  UNL     1       0.776 -13.577  15.503  1.00  0.00     0.076 C 
HETATM    7  C8  UNL     1       0.810 -12.193  16.133  1.00  0.00     0.019 C 
HETATM    8  C9  UNL     1      -0.188 -11.482  15.245  1.00  0.00    -0.001 A 
ENDROOT
BRANCH   6   9
HETATM    9  C7  UNL     1       1.788 -14.481  16.040  1.00  0.00     0.235 C 
HETATM   10  N1  UNL     1       1.812 -15.870  15.813  1.00  0.00    -0.062 NA
HETATM   11  O1  UNL     1       2.701 -13.988  16.753  1.00  0.00    -0.277 OA
ENDBRANCH   6   9
TORSDOF 1
ENDMDL
