MODEL 1
REMARK VINA RESULT: -7.661512525      0.000      0.000
REMARK  7 active torsions:
REMARK  status: ('A' for Active; 'I' for Inactive)
REMARK    1  A    between atoms: N1_1  and  C1_4 
REMARK    2  A    between atoms: C4_12  and  N4_13 
REMARK    3  A    between atoms: N4_13  and  N5_15 
REMARK    4  A    between atoms: C5_17  and  C6_18 
REMARK    5  A    between atoms: C6_18  and  O2_19 
REMARK    6  A    between atoms: C6_18  and  C7_21 
REMARK    7  A    between atoms: C7_21  and  C8_23 
ROOT
HETATM    1  C1  UNL     1     -50.027  78.213 -12.957  1.00  0.00     0.679 A 
HETATM    2  N2  UNL     1     -49.868  77.657 -14.171  1.00  0.00    -0.154 N 
ATOM      3  H2  UNL     1     -49.863  78.262 -14.993  1.00  0.00     0.187 HD
HETATM    4  C2  UNL     1     -49.717  76.330 -14.342  1.00  0.00     0.289 A 
HETATM    5  O1  UNL     1     -49.570  75.825 -15.498  1.00  0.00    -0.265 OA
HETATM    6  C3  UNL     1     -49.728  75.524 -13.223  1.00  0.00     0.150 A 
HETATM    7  N3  UNL     1     -49.582  74.191 -13.333  1.00  0.00    -0.182 N 
ATOM      8  H3  UNL     1     -49.464  73.782 -14.260  1.00  0.00     0.184 HD
HETATM    9  C4  UNL     1     -49.588  73.378 -12.255  1.00  0.00     0.700 A 
HETATM   10  N7  UNL     1     -49.747  73.957 -11.061  1.00  0.00    -0.153 N 
ATOM     11  H7  UNL     1     -49.752  73.352 -10.240  1.00  0.00     0.187 HD
HETATM   12  C9  UNL     1     -49.898  75.272 -10.865  1.00  0.00     0.289 A 
HETATM   13  O5  UNL     1     -50.046  75.798  -9.726  1.00  0.00    -0.265 OA
HETATM   14  C10 UNL     1     -49.891  76.093 -11.974  1.00  0.00     0.150 A 
HETATM   15  N8  UNL     1     -50.034  77.417 -11.880  1.00  0.00    -0.184 N 
ATOM     16  H8  UNL     1     -50.154  77.837 -10.958  1.00  0.00     0.184 HD
ENDROOT
BRANCH   9  17
HETATM   17  N4  UNL     1     -49.445  72.099 -12.401  1.00  0.00    -0.132 N 
ATOM     18  H4  UNL     1     -50.177  71.549 -12.849  1.00  0.00     0.205 HD
BRANCH  17  19
HETATM   19  N5  UNL     1     -48.289  71.482 -11.944  1.00  0.00    -0.299 N 
HETATM   20  C5  UNL     1     -47.974  70.323 -12.400  1.00  0.00     0.120 C 
ATOM     21  H5  UNL     1     -47.697  71.943 -11.254  1.00  0.00     0.186 HD
BRANCH  20  22
HETATM   22  C6  UNL     1     -48.837  69.653 -13.402  1.00  0.00     0.237 C 
BRANCH  22  23
HETATM   23  O2  UNL     1     -49.102  68.344 -13.092  1.00  0.00    -0.382 OA
ATOM     24  H2  UNL     1     -49.319  67.819 -13.853  1.00  0.00     0.211 HD
ENDBRANCH  22  23
BRANCH  22  25
HETATM   25  C7  UNL     1     -48.237  69.797 -14.741  1.00  0.00     0.247 C 
HETATM   26  O3  UNL     1     -47.241  69.103 -15.036  1.00  0.00    -0.284 OA
BRANCH  25  27
HETATM   27  C8  UNL     1     -48.807  70.730 -15.680  1.00  0.00     0.303 C 
HETATM   28  N6  UNL     1     -48.657  72.126 -15.454  1.00  0.00    -0.054 NA
HETATM   29  O4  UNL     1     -49.433  70.334 -16.692  1.00  0.00    -0.268 OA
ENDBRANCH  25  27
ENDBRANCH  22  25
ENDBRANCH  20  22
ENDBRANCH  17  19
ENDBRANCH   9  17
BRANCH   1  30
HETATM   30  N1  UNL     1     -50.171  79.483 -12.788  1.00  0.00    -0.234 N 
ATOM     31  H12 UNL     1     -49.524  80.116 -13.259  1.00  0.00     0.174 HD
ATOM     32  H11 UNL     1     -50.907  79.880 -12.203  1.00  0.00     0.174 HD
ENDBRANCH   1  30
TORSDOF 7
ENDMDL
MODEL 2
REMARK VINA RESULT: -7.445836052      0.570      2.277
REMARK  7 active torsions:
REMARK  status: ('A' for Active; 'I' for Inactive)
REMARK    1  A    between atoms: N1_1  and  C1_4 
REMARK    2  A    between atoms: C4_12  and  N4_13 
REMARK    3  A    between atoms: N4_13  and  N5_15 
REMARK    4  A    between atoms: C5_17  and  C6_18 
REMARK    5  A    between atoms: C6_18  and  O2_19 
REMARK    6  A    between atoms: C6_18  and  C7_21 
REMARK    7  A    between atoms: C7_21  and  C8_23 
ROOT
HETATM    1  C1  UNL     1     -50.188  78.182 -12.129  1.00  0.00     0.679 A 
HETATM    2  N2  UNL     1     -50.311  77.664 -10.893  1.00  0.00    -0.154 N 
ATOM      3  H2  UNL     1     -50.501  78.293 -10.113  1.00  0.00     0.187 HD
HETATM    4  C2  UNL     1     -50.193  76.346 -10.650  1.00  0.00     0.289 A 
HETATM    5  O1  UNL     1     -50.312  75.877  -9.475  1.00  0.00    -0.265 OA
HETATM    6  C3  UNL     1     -49.937  75.507 -11.715  1.00  0.00     0.150 A 
HETATM    7  N3  UNL     1     -49.808  74.181 -11.531  1.00  0.00    -0.182 N 
ATOM      8  H3  UNL     1     -49.903  73.801 -10.589  1.00  0.00     0.184 HD
HETATM    9  C4  UNL     1     -49.556  73.337 -12.554  1.00  0.00     0.700 A 
HETATM   10  N7  UNL     1     -49.439  73.877 -13.770  1.00  0.00    -0.153 N 
ATOM     11  H7  UNL     1     -49.250  73.249 -14.551  1.00  0.00     0.187 HD
HETATM   12  C9  UNL     1     -49.553  75.183 -14.038  1.00  0.00     0.289 A 
HETATM   13  O5  UNL     1     -49.438  75.673 -15.198  1.00  0.00    -0.265 OA
HETATM   14  C10 UNL     1     -49.809  76.036 -12.985  1.00  0.00     0.150 A 
HETATM   15  N8  UNL     1     -49.939  77.355 -13.152  1.00  0.00    -0.184 N 
ATOM     16  H8  UNL     1     -49.846  77.746 -14.090  1.00  0.00     0.184 HD
ENDROOT
BRANCH   9  17
HETATM   17  N4  UNL     1     -49.439  72.065 -12.338  1.00  0.00    -0.132 N 
ATOM     18  H4  UNL     1     -50.245  71.449 -12.451  1.00  0.00     0.205 HD
BRANCH  17  19
HETATM   19  N5  UNL     1     -48.212  71.545 -11.953  1.00  0.00    -0.299 N 
HETATM   20  C5  UNL     1     -47.828  70.418 -12.437  1.00  0.00     0.120 C 
ATOM     21  H5  UNL     1     -47.622  72.051 -11.293  1.00  0.00     0.186 HD
BRANCH  20  22
HETATM   22  C6  UNL     1     -48.688  69.683 -13.394  1.00  0.00     0.237 C 
BRANCH  22  23
HETATM   23  O2  UNL     1     -48.939  68.391 -13.008  1.00  0.00    -0.382 OA
ATOM     24  H2  UNL     1     -48.746  67.756 -13.687  1.00  0.00     0.211 HD
ENDBRANCH  22  23
BRANCH  22  25
HETATM   25  C7  UNL     1     -48.093  69.754 -14.741  1.00  0.00     0.247 C 
HETATM   26  O3  UNL     1     -47.126  69.012 -15.017  1.00  0.00    -0.284 OA
BRANCH  25  27
HETATM   27  C8  UNL     1     -48.635  70.671 -15.712  1.00  0.00     0.303 C 
HETATM   28  N6  UNL     1     -48.246  72.038 -15.671  1.00  0.00    -0.054 NA
HETATM   29  O4  UNL     1     -49.442  70.287 -16.591  1.00  0.00    -0.268 OA
ENDBRANCH  25  27
ENDBRANCH  22  25
ENDBRANCH  20  22
ENDBRANCH  17  19
ENDBRANCH   9  17
BRANCH   1  30
HETATM   30  N1  UNL     1     -50.301  79.445 -12.368  1.00  0.00    -0.234 N 
ATOM     31  H12 UNL     1     -50.660  80.052 -11.630  1.00  0.00     0.174 HD
ATOM     32  H11 UNL     1     -50.045  79.859 -13.264  1.00  0.00     0.174 HD
ENDBRANCH   1  30
TORSDOF 7
ENDMDL
MODEL 3
REMARK VINA RESULT: -7.340163925      2.010      6.573
REMARK  7 active torsions:
REMARK  status: ('A' for Active; 'I' for Inactive)
REMARK    1  A    between atoms: N1_1  and  C1_4 
REMARK    2  A    between atoms: C4_12  and  N4_13 
REMARK    3  A    between atoms: N4_13  and  N5_15 
REMARK    4  A    between atoms: C5_17  and  C6_18 
REMARK    5  A    between atoms: C6_18  and  O2_19 
REMARK    6  A    between atoms: C6_18  and  C7_21 
REMARK    7  A    between atoms: C7_21  and  C8_23 
ROOT
HETATM    1  C1  UNL     1     -46.533  71.498 -16.101  1.00  0.00     0.679 A 
HETATM    2  N2  UNL     1     -47.167  72.624 -16.479  1.00  0.00    -0.154 N 
ATOM      3  H2  UNL     1     -46.972  73.012 -17.402  1.00  0.00     0.187 HD
HETATM    4  C2  UNL     1     -48.048  73.256 -15.681  1.00  0.00     0.289 A 
HETATM    5  O1  UNL     1     -48.635  74.318 -16.056  1.00  0.00    -0.265 OA
HETATM    6  C3  UNL     1     -48.300  72.719 -14.436  1.00  0.00     0.150 A 
HETATM    7  N3  UNL     1     -49.171  73.309 -13.596  1.00  0.00    -0.182 N 
ATOM      8  H3  UNL     1     -49.644  74.162 -13.894  1.00  0.00     0.184 HD
HETATM    9  C4  UNL     1     -49.437  72.806 -12.371  1.00  0.00     0.700 A 
HETATM   10  N7  UNL     1     -48.795  71.688 -12.023  1.00  0.00    -0.153 N 
ATOM     11  H7  UNL     1     -48.989  71.299 -11.101  1.00  0.00     0.187 HD
HETATM   12  C9  UNL     1     -47.916  71.041 -12.797  1.00  0.00     0.289 A 
HETATM   13  O5  UNL     1     -47.319  69.983 -12.447  1.00  0.00    -0.265 OA
HETATM   14  C10 UNL     1     -47.651  71.563 -14.046  1.00  0.00     0.150 A 
HETATM   15  N8  UNL     1     -46.790  70.990 -14.890  1.00  0.00    -0.184 N 
ATOM     16  H8  UNL     1     -46.311  70.136 -14.602  1.00  0.00     0.184 HD
ENDROOT
BRANCH   9  17
HETATM   17  N4  UNL     1     -50.282  73.401 -11.591  1.00  0.00    -0.132 N 
ATOM     18  H4  UNL     1     -51.271  73.438 -11.838  1.00  0.00     0.205 HD
BRANCH  17  19
HETATM   19  N5  UNL     1     -49.834  73.989 -10.417  1.00  0.00    -0.299 N 
HETATM   20  C5  UNL     1     -49.716  75.268 -10.360  1.00  0.00     0.120 C 
ATOM     21  H5  UNL     1     -49.601  73.413  -9.608  1.00  0.00     0.186 HD
BRANCH  20  22
HETATM   22  C6  UNL     1     -50.054  76.104 -11.536  1.00  0.00     0.237 C 
BRANCH  22  23
HETATM   23  O2  UNL     1     -49.121  76.023 -12.537  1.00  0.00    -0.382 OA
ATOM     24  H2  UNL     1     -49.507  75.920 -13.398  1.00  0.00     0.211 HD
ENDBRANCH  22  23
BRANCH  22  25
HETATM   25  C7  UNL     1     -50.284  77.493 -11.100  1.00  0.00     0.247 C 
HETATM   26  O3  UNL     1     -50.718  77.703  -9.947  1.00  0.00    -0.284 OA
BRANCH  25  27
HETATM   27  C8  UNL     1     -50.004  78.580 -12.005  1.00  0.00     0.303 C 
HETATM   28  N6  UNL     1     -51.079  79.213 -12.685  1.00  0.00    -0.054 NA
HETATM   29  O4  UNL     1     -48.831  78.975 -12.203  1.00  0.00    -0.268 OA
ENDBRANCH  25  27
ENDBRANCH  22  25
ENDBRANCH  20  22
ENDBRANCH  17  19
ENDBRANCH   9  17
BRANCH   1  30
HETATM   30  N1  UNL     1     -45.689  70.888 -16.862  1.00  0.00    -0.234 N 
ATOM     31  H12 UNL     1     -45.976  70.635 -17.808  1.00  0.00     0.174 HD
ATOM     32  H11 UNL     1     -44.746  70.650 -16.556  1.00  0.00     0.174 HD
ENDBRANCH   1  30
TORSDOF 7
ENDMDL
MODEL 4
REMARK VINA RESULT: -7.261823314      1.029      1.373
REMARK  7 active torsions:
REMARK  status: ('A' for Active; 'I' for Inactive)
REMARK    1  A    between atoms: N1_1  and  C1_4 
REMARK    2  A    between atoms: C4_12  and  N4_13 
REMARK    3  A    between atoms: N4_13  and  N5_15 
REMARK    4  A    between atoms: C5_17  and  C6_18 
REMARK    5  A    between atoms: C6_18  and  O2_19 
REMARK    6  A    between atoms: C6_18  and  C7_21 
REMARK    7  A    between atoms: C7_21  and  C8_23 
ROOT
HETATM    1  C1  UNL     1     -49.964  78.130 -12.980  1.00  0.00     0.679 A 
HETATM    2  N2  UNL     1     -49.816  77.558 -14.189  1.00  0.00    -0.154 N 
ATOM      3  H2  UNL     1     -49.802  78.154 -15.017  1.00  0.00     0.187 HD
HETATM    4  C2  UNL     1     -49.687  76.227 -14.345  1.00  0.00     0.289 A 
HETATM    5  O1  UNL     1     -49.550  75.707 -15.496  1.00  0.00    -0.265 OA
HETATM    6  C3  UNL     1     -49.709  75.434 -13.218  1.00  0.00     0.150 A 
HETATM    7  N3  UNL     1     -49.585  74.098 -13.313  1.00  0.00    -0.182 N 
ATOM      8  H3  UNL     1     -49.475  73.676 -14.236  1.00  0.00     0.184 HD
HETATM    9  C4  UNL     1     -49.603  73.296 -12.226  1.00  0.00     0.700 A 
HETATM   10  N7  UNL     1     -49.750  73.891 -11.039  1.00  0.00    -0.153 N 
ATOM     11  H7  UNL     1     -49.764  73.296 -10.211  1.00  0.00     0.187 HD
HETATM   12  C9  UNL     1     -49.879  75.210 -10.857  1.00  0.00     0.289 A 
HETATM   13  O5  UNL     1     -50.017  75.751  -9.723  1.00  0.00    -0.265 OA
HETATM   14  C10 UNL     1     -49.860  76.018 -11.975  1.00  0.00     0.150 A 
HETATM   15  N8  UNL     1     -49.982  77.346 -11.895  1.00  0.00    -0.184 N 
ATOM     16  H8  UNL     1     -50.093  77.778 -10.977  1.00  0.00     0.184 HD
ENDROOT
BRANCH   9  17
HETATM   17  N4  UNL     1     -49.480  72.014 -12.358  1.00  0.00    -0.132 N 
ATOM     18  H4  UNL     1     -50.262  71.457 -12.704  1.00  0.00     0.205 HD
BRANCH  17  19
HETATM   19  N5  UNL     1     -48.280  71.402 -12.027  1.00  0.00    -0.299 N 
HETATM   20  C5  UNL     1     -47.751  70.571 -12.852  1.00  0.00     0.120 C 
ATOM     21  H5  UNL     1     -47.824  71.609 -11.139  1.00  0.00     0.186 HD
BRANCH  20  22
HETATM   22  C6  UNL     1     -48.416  70.270 -14.141  1.00  0.00     0.237 C 
BRANCH  22  23
HETATM   23  O2  UNL     1     -48.020  69.074 -14.684  1.00  0.00    -0.382 OA
ATOM     24  H2  UNL     1     -47.837  68.412 -14.028  1.00  0.00     0.211 HD
ENDBRANCH  22  23
BRANCH  22  25
HETATM   25  C7  UNL     1     -48.215  71.395 -15.072  1.00  0.00     0.247 C 
HETATM   26  O3  UNL     1     -49.213  72.023 -15.488  1.00  0.00    -0.284 OA
BRANCH  25  27
HETATM   27  C8  UNL     1     -46.880  71.752 -15.482  1.00  0.00     0.303 C 
HETATM   28  N6  UNL     1     -46.337  73.002 -15.075  1.00  0.00    -0.054 NA
HETATM   29  O4  UNL     1     -46.190  70.982 -16.190  1.00  0.00    -0.268 OA
ENDBRANCH  25  27
ENDBRANCH  22  25
ENDBRANCH  20  22
ENDBRANCH  17  19
ENDBRANCH   9  17
BRANCH   1  30
HETATM   30  N1  UNL     1     -50.087  79.404 -12.825  1.00  0.00    -0.234 N 
ATOM     31  H12 UNL     1     -49.607  79.851 -12.043  1.00  0.00     0.174 HD
ATOM     32  H11 UNL     1     -50.644  79.983 -13.454  1.00  0.00     0.174 HD
ENDBRANCH   1  30
TORSDOF 7
ENDMDL
MODEL 5
REMARK VINA RESULT: -7.257845290      1.077      1.168
REMARK  7 active torsions:
REMARK  status: ('A' for Active; 'I' for Inactive)
REMARK    1  A    between atoms: N1_1  and  C1_4 
REMARK    2  A    between atoms: C4_12  and  N4_13 
REMARK    3  A    between atoms: N4_13  and  N5_15 
REMARK    4  A    between atoms: C5_17  and  C6_18 
REMARK    5  A    between atoms: C6_18  and  O2_19 
REMARK    6  A    between atoms: C6_18  and  C7_21 
REMARK    7  A    between atoms: C7_21  and  C8_23 
ROOT
HETATM    1  C1  UNL     1     -49.935  78.126 -13.001  1.00  0.00     0.679 A 
HETATM    2  N2  UNL     1     -49.787  77.550 -14.208  1.00  0.00    -0.154 N 
ATOM      3  H2  UNL     1     -49.766  78.145 -15.037  1.00  0.00     0.187 HD
HETATM    4  C2  UNL     1     -49.665  76.219 -14.361  1.00  0.00     0.289 A 
HETATM    5  O1  UNL     1     -49.526  75.695 -15.510  1.00  0.00    -0.265 OA
HETATM    6  C3  UNL     1     -49.695  75.428 -13.232  1.00  0.00     0.150 A 
HETATM    7  N3  UNL     1     -49.579  74.091 -13.323  1.00  0.00    -0.182 N 
ATOM      8  H3  UNL     1     -49.468  73.667 -14.245  1.00  0.00     0.184 HD
HETATM    9  C4  UNL     1     -49.606  73.292 -12.235  1.00  0.00     0.700 A 
HETATM   10  N7  UNL     1     -49.753  73.890 -11.049  1.00  0.00    -0.153 N 
ATOM     11  H7  UNL     1     -49.774  73.297 -10.220  1.00  0.00     0.187 HD
HETATM   12  C9  UNL     1     -49.876  75.210 -10.871  1.00  0.00     0.289 A 
HETATM   13  O5  UNL     1     -50.015  75.754  -9.738  1.00  0.00    -0.265 OA
HETATM   14  C10 UNL     1     -49.848  76.016 -11.990  1.00  0.00     0.150 A 
HETATM   15  N8  UNL     1     -49.962  77.345 -11.914  1.00  0.00    -0.184 N 
ATOM     16  H8  UNL     1     -50.074  77.779 -10.997  1.00  0.00     0.184 HD
ENDROOT
BRANCH   9  17
HETATM   17  N4  UNL     1     -49.490  72.009 -12.364  1.00  0.00    -0.132 N 
ATOM     18  H4  UNL     1     -50.257  71.461 -12.756  1.00  0.00     0.205 HD
BRANCH  17  19
HETATM   19  N5  UNL     1     -48.318  71.382 -11.966  1.00  0.00    -0.299 N 
HETATM   20  C5  UNL     1     -47.731  70.576 -12.777  1.00  0.00     0.120 C 
ATOM     21  H5  UNL     1     -47.928  71.558 -11.041  1.00  0.00     0.186 HD
BRANCH  20  22
HETATM   22  C6  UNL     1     -48.300  70.320 -14.120  1.00  0.00     0.237 C 
BRANCH  22  23
HETATM   23  O2  UNL     1     -48.025  69.061 -14.589  1.00  0.00    -0.382 OA
ATOM     24  H2  UNL     1     -48.721  68.439 -14.415  1.00  0.00     0.211 HD
ENDBRANCH  22  23
BRANCH  22  25
HETATM   25  C7  UNL     1     -47.851  71.370 -15.052  1.00  0.00     0.247 C 
HETATM   26  O3  UNL     1     -47.209  72.344 -14.603  1.00  0.00    -0.284 OA
BRANCH  25  27
HETATM   27  C8  UNL     1     -48.156  71.256 -16.456  1.00  0.00     0.303 C 
HETATM   28  N6  UNL     1     -49.397  70.688 -16.855  1.00  0.00    -0.054 NA
HETATM   29  O4  UNL     1     -47.348  71.647 -17.331  1.00  0.00    -0.268 OA
ENDBRANCH  25  27
ENDBRANCH  22  25
ENDBRANCH  20  22
ENDBRANCH  17  19
ENDBRANCH   9  17
BRANCH   1  30
HETATM   30  N1  UNL     1     -50.051  79.401 -12.849  1.00  0.00    -0.234 N 
ATOM     31  H12 UNL     1     -50.501  79.943 -13.587  1.00  0.00     0.174 HD
ATOM     32  H11 UNL     1     -49.712  79.889 -12.019  1.00  0.00     0.174 HD
ENDBRANCH   1  30
TORSDOF 7
ENDMDL
