MODEL 1
REMARK VINA RESULT: -7.664437957      0.000      0.000
REMARK  6 active torsions:
REMARK  status: ('A' for Active; 'I' for Inactive)
REMARK    1  A    between atoms: N1_1  and  N2_4 
REMARK    2  A    between atoms: C3_11  and  N4_12 
REMARK    3  A    between atoms: C5_19  and  N7_20 
REMARK    4  A    between atoms: N7_20  and  N8_22 
REMARK    5  A    between atoms: N8_22  and  C6_24 
REMARK    6  A    between atoms: C6_24  and  C7_25 
ROOT
HETATM    1  N4  UNL     1     -50.572  73.727 -15.126  1.00  0.00    -0.204 N 
ATOM      2  H4  UNL     1     -50.377  73.052 -15.866  1.00  0.00     0.179 HD
HETATM    3  C4  UNL     1     -50.028  73.404 -14.053  1.00  0.00     0.708 A 
HETATM    4  N5  UNL     1     -50.029  73.995 -12.869  1.00  0.00    -0.117 N 
ATOM      5  H5  UNL     1     -50.512  74.865 -12.650  1.00  0.00     0.206 HD
HETATM    6  N6  UNL     1     -49.296  73.276 -11.996  1.00  0.00    -0.116 N 
ATOM      7  H6  UNL     1     -49.131  73.504 -11.015  1.00  0.00     0.206 HD
HETATM    8  C5  UNL     1     -48.824  72.206 -12.653  1.00  0.00     0.726 A 
HETATM    9  N13 UNL     1     -49.267  72.276 -13.912  1.00  0.00    -0.018 N 
ATOM     10  H13 UNL     1     -49.069  71.598 -14.648  1.00  0.00     0.203 HD
ENDROOT
BRANCH   8  11
HETATM   11  N7  UNL     1     -48.070  71.289 -12.110  1.00  0.00    -0.134 N 
ATOM     12  H7  UNL     1     -48.459  70.683 -11.388  1.00  0.00     0.205 HD
BRANCH  11  13
HETATM   13  N8  UNL     1     -46.749  71.124 -12.499  1.00  0.00    -0.315 N 
ATOM     14  H8  UNL     1     -46.018  71.678 -12.053  1.00  0.00     0.181 HD
BRANCH  13  15
HETATM   15  C6  UNL     1     -46.398  70.178 -13.528  1.00  0.00     0.216 C 
BRANCH  15  16
HETATM   16  C7  UNL     1     -45.929  70.896 -14.720  1.00  0.00     0.099 C 
HETATM   17  N9  UNL     1     -46.642  70.785 -15.817  1.00  0.00    -0.377 N 
HETATM   18  C8  UNL     1     -46.490  71.331 -17.133  1.00  0.00     0.140 C 
ATOM     19  H9  UNL     1     -47.466  70.195 -15.712  1.00  0.00     0.160 HD
HETATM   20  C9  UNL     1     -45.812  72.658 -17.203  1.00  0.00     0.142 C 
HETATM   21  N10 UNL     1     -44.443  72.641 -16.732  1.00  0.00    -0.363 N 
HETATM   22  C10 UNL     1     -43.955  72.218 -15.613  1.00  0.00     0.189 C 
ATOM     23  H10 UNL     1     -43.758  73.022 -17.385  1.00  0.00     0.162 HD
HETATM   24  N11 UNL     1     -42.555  72.311 -15.381  1.00  0.00    -0.064 NA
HETATM   25  N12 UNL     1     -44.733  71.642 -14.545  1.00  0.00    -0.319 N 
ATOM     26  H12 UNL     1     -44.401  71.782 -13.591  1.00  0.00     0.169 HD
ENDBRANCH  15  16
ENDBRANCH  13  15
ENDBRANCH  11  13
ENDBRANCH   8  11
BRANCH   1  27
HETATM   27  C3  UNL     1     -51.378  74.772 -15.579  1.00  0.00     0.261 C 
HETATM   28  C1  UNL     1     -52.518  74.520 -16.477  1.00  0.00     0.131 C 
HETATM   29  N2  UNL     1     -52.802  74.697 -17.703  1.00  0.00    -0.293 N 
HETATM   30  N3  UNL     1     -53.214  73.986 -15.374  1.00  0.00    -0.311 N 
ATOM     31  H2  UNL     1     -52.099  75.116 -18.313  1.00  0.00     0.187 HD
HETATM   32  C2  UNL     1     -52.518  74.947 -14.589  1.00  0.00     0.254 C 
ATOM     33  H3  UNL     1     -53.901  73.251 -15.213  1.00  0.00     0.170 HD
HETATM   34  O1  UNL     1     -52.720  75.625 -13.573  1.00  0.00    -0.270 OA
BRANCH  29  35
HETATM   35  N1  UNL     1     -54.033  74.342 -18.248  1.00  0.00    -0.344 N 
ATOM     36  H12 UNL     1     -54.587  73.644 -17.751  1.00  0.00     0.176 HD
ATOM     37  H11 UNL     1     -54.392  74.752 -19.110  1.00  0.00     0.176 HD
ENDBRANCH  29  35
ENDBRANCH   1  27
TORSDOF 6
ENDMDL
MODEL 2
REMARK VINA RESULT: -7.523438329      3.496      7.365
REMARK  6 active torsions:
REMARK  status: ('A' for Active; 'I' for Inactive)
REMARK    1  A    between atoms: N1_1  and  N2_4 
REMARK    2  A    between atoms: C3_11  and  N4_12 
REMARK    3  A    between atoms: C5_19  and  N7_20 
REMARK    4  A    between atoms: N7_20  and  N8_22 
REMARK    5  A    between atoms: N8_22  and  C6_24 
REMARK    6  A    between atoms: C6_24  and  C7_25 
ROOT
HETATM    1  N4  UNL     1     -45.791  71.880 -15.009  1.00  0.00    -0.204 N 
ATOM      2  H4  UNL     1     -46.260  72.435 -15.725  1.00  0.00     0.179 HD
HETATM    3  C4  UNL     1     -46.532  71.670 -14.030  1.00  0.00     0.708 A 
HETATM    4  N5  UNL     1     -46.315  71.005 -12.907  1.00  0.00    -0.117 N 
ATOM      5  H5  UNL     1     -45.444  70.535 -12.664  1.00  0.00     0.206 HD
HETATM    6  N6  UNL     1     -47.417  71.042 -12.131  1.00  0.00    -0.116 N 
ATOM      7  H6  UNL     1     -47.522  70.611 -11.212  1.00  0.00     0.206 HD
HETATM    8  C5  UNL     1     -48.348  71.750 -12.788  1.00  0.00     0.726 A 
HETATM    9  N13 UNL     1     -47.815  72.138 -13.951  1.00  0.00    -0.018 N 
ATOM     10  H13 UNL     1     -48.289  72.693 -14.664  1.00  0.00     0.203 HD
ENDROOT
BRANCH   8  11
HETATM   11  N7  UNL     1     -49.545  71.987 -12.328  1.00  0.00    -0.134 N 
ATOM     12  H7  UNL     1     -50.095  71.220 -11.942  1.00  0.00     0.205 HD
BRANCH  11  13
HETATM   13  N8  UNL     1     -50.083  73.266 -12.354  1.00  0.00    -0.315 N 
ATOM     14  H8  UNL     1     -50.724  73.530 -13.102  1.00  0.00     0.181 HD
BRANCH  13  15
HETATM   15  C6  UNL     1     -49.746  74.226 -11.333  1.00  0.00     0.216 C 
BRANCH  15  16
HETATM   16  C7  UNL     1     -49.724  75.575 -11.912  1.00  0.00     0.099 C 
HETATM   17  N9  UNL     1     -49.412  75.687 -13.183  1.00  0.00    -0.377 N 
HETATM   18  C8  UNL     1     -49.294  76.816 -14.059  1.00  0.00     0.140 C 
ATOM     19  H9  UNL     1     -49.216  74.795 -13.636  1.00  0.00     0.160 HD
HETATM   20  C9  UNL     1     -50.182  77.971 -13.738  1.00  0.00     0.142 C 
HETATM   21  N10 UNL     1     -49.917  78.572 -12.447  1.00  0.00    -0.363 N 
HETATM   22  C10 UNL     1     -49.853  78.029 -11.276  1.00  0.00     0.189 C 
ATOM     23  H10 UNL     1     -49.756  79.579 -12.465  1.00  0.00     0.162 HD
HETATM   24  N11 UNL     1     -49.575  78.842 -10.143  1.00  0.00    -0.064 NA
HETATM   25  N12 UNL     1     -50.047  76.626 -11.012  1.00  0.00    -0.319 N 
ATOM     26  H12 UNL     1     -50.447  76.366 -10.110  1.00  0.00     0.169 HD
ENDBRANCH  15  16
ENDBRANCH  13  15
ENDBRANCH  11  13
ENDBRANCH   8  11
BRANCH   1  27
HETATM   27  C3  UNL     1     -44.486  71.553 -15.380  1.00  0.00     0.261 C 
HETATM   28  C1  UNL     1     -44.032  71.702 -16.774  1.00  0.00     0.131 C 
HETATM   29  N2  UNL     1     -43.758  70.943 -17.756  1.00  0.00    -0.293 N 
HETATM   30  N3  UNL     1     -44.005  73.096 -16.572  1.00  0.00    -0.311 N 
ATOM     31  H2  UNL     1     -43.865  69.935 -17.641  1.00  0.00     0.187 HD
HETATM   32  C2  UNL     1     -43.631  72.800 -15.232  1.00  0.00     0.254 C 
ATOM     33  H3  UNL     1     -44.175  73.932 -17.130  1.00  0.00     0.170 HD
HETATM   34  O1  UNL     1     -42.935  73.304 -14.339  1.00  0.00    -0.270 OA
BRANCH  29  35
HETATM   35  N1  UNL     1     -43.320  71.432 -18.984  1.00  0.00    -0.344 N 
ATOM     36  H12 UNL     1     -43.321  72.444 -19.118  1.00  0.00     0.176 HD
ATOM     37  H11 UNL     1     -43.002  70.822 -19.737  1.00  0.00     0.176 HD
ENDBRANCH  29  35
ENDBRANCH   1  27
TORSDOF 6
ENDMDL
MODEL 3
REMARK VINA RESULT: -7.517963002      2.683      3.703
REMARK  6 active torsions:
REMARK  status: ('A' for Active; 'I' for Inactive)
REMARK    1  A    between atoms: N1_1  and  N2_4 
REMARK    2  A    between atoms: C3_11  and  N4_12 
REMARK    3  A    between atoms: C5_19  and  N7_20 
REMARK    4  A    between atoms: N7_20  and  N8_22 
REMARK    5  A    between atoms: N8_22  and  C6_24 
REMARK    6  A    between atoms: C6_24  and  C7_25 
ROOT
HETATM    1  N4  UNL     1     -49.575  73.988 -11.694  1.00  0.00    -0.204 N 
ATOM      2  H4  UNL     1     -49.231  73.939 -10.735  1.00  0.00     0.179 HD
HETATM    3  C4  UNL     1     -49.298  72.958 -12.336  1.00  0.00     0.708 A 
HETATM    4  N5  UNL     1     -49.556  72.622 -13.590  1.00  0.00    -0.117 N 
ATOM      5  H5  UNL     1     -50.058  73.204 -14.260  1.00  0.00     0.206 HD
HETATM    6  N6  UNL     1     -49.059  71.396 -13.850  1.00  0.00    -0.116 N 
ATOM      7  H6  UNL     1     -49.118  70.898 -14.738  1.00  0.00     0.206 HD
HETATM    8  C5  UNL     1     -48.473  70.954 -12.727  1.00  0.00     0.726 A 
HETATM    9  N13 UNL     1     -48.614  71.902 -11.796  1.00  0.00    -0.018 N 
ATOM     10  H13 UNL     1     -48.268  71.849 -10.838  1.00  0.00     0.203 HD
ENDROOT
BRANCH   8  11
HETATM   11  N7  UNL     1     -47.884  69.795 -12.618  1.00  0.00    -0.134 N 
ATOM     12  H7  UNL     1     -48.322  69.060 -12.062  1.00  0.00     0.205 HD
BRANCH  11  13
HETATM   13  N8  UNL     1     -46.673  69.544 -13.246  1.00  0.00    -0.315 N 
ATOM     14  H8  UNL     1     -45.804  69.617 -12.716  1.00  0.00     0.181 HD
BRANCH  13  15
HETATM   15  C6  UNL     1     -46.629  69.181 -14.640  1.00  0.00     0.216 C 
BRANCH  15  16
HETATM   16  C7  UNL     1     -46.152  70.321 -15.433  1.00  0.00     0.099 C 
HETATM   17  N9  UNL     1     -46.717  70.531 -16.599  1.00  0.00    -0.377 N 
HETATM   18  C8  UNL     1     -46.512  71.521 -17.614  1.00  0.00     0.140 C 
ATOM     19  H9  UNL     1     -47.446  69.856 -16.828  1.00  0.00     0.160 HD
HETATM   20  C9  UNL     1     -46.044  72.851 -17.126  1.00  0.00     0.142 C 
HETATM   21  N10 UNL     1     -44.748  72.816 -16.483  1.00  0.00    -0.363 N 
HETATM   22  C10 UNL     1     -44.323  72.079 -15.512  1.00  0.00     0.189 C 
ATOM     23  H10 UNL     1     -44.064  73.476 -16.856  1.00  0.00     0.162 HD
HETATM   24  N11 UNL     1     -42.987  72.234 -15.049  1.00  0.00    -0.064 NA
HETATM   25  N12 UNL     1     -45.112  71.081 -14.834  1.00  0.00    -0.319 N 
ATOM     26  H12 UNL     1     -44.909  70.908 -13.850  1.00  0.00     0.169 HD
ENDBRANCH  15  16
ENDBRANCH  13  15
ENDBRANCH  11  13
ENDBRANCH   8  11
BRANCH   1  27
HETATM   27  C3  UNL     1     -50.233  75.192 -11.946  1.00  0.00     0.261 C 
HETATM   28  C1  UNL     1     -49.862  76.426 -11.233  1.00  0.00     0.131 C 
HETATM   29  N2  UNL     1     -50.345  77.159 -10.313  1.00  0.00    -0.293 N 
HETATM   30  N3  UNL     1     -48.699  76.485 -12.027  1.00  0.00    -0.311 N 
ATOM     31  H2  UNL     1     -51.230  76.887  -9.885  1.00  0.00     0.187 HD
HETATM   32  C2  UNL     1     -49.489  75.909 -13.060  1.00  0.00     0.254 C 
ATOM     33  H3  UNL     1     -47.735  76.797 -11.914  1.00  0.00     0.170 HD
HETATM   34  O1  UNL     1     -49.561  75.953 -14.296  1.00  0.00    -0.270 OA
BRANCH  29  35
HETATM   35  N1  UNL     1     -49.715  78.319  -9.868  1.00  0.00    -0.344 N 
ATOM     36  H12 UNL     1     -48.741  78.245  -9.574  1.00  0.00     0.176 HD
ATOM     37  H11 UNL     1     -50.188  79.221  -9.829  1.00  0.00     0.176 HD
ENDBRANCH  29  35
ENDBRANCH   1  27
TORSDOF 6
ENDMDL
MODEL 4
REMARK VINA RESULT: -7.415665738      3.239      6.852
REMARK  6 active torsions:
REMARK  status: ('A' for Active; 'I' for Inactive)
REMARK    1  A    between atoms: N1_1  and  N2_4 
REMARK    2  A    between atoms: C3_11  and  N4_12 
REMARK    3  A    between atoms: C5_19  and  N7_20 
REMARK    4  A    between atoms: N7_20  and  N8_22 
REMARK    5  A    between atoms: N8_22  and  C6_24 
REMARK    6  A    between atoms: C6_24  and  C7_25 
ROOT
HETATM    1  N4  UNL     1     -45.538  72.257 -15.721  1.00  0.00    -0.204 N 
ATOM      2  H4  UNL     1     -46.048  73.122 -15.899  1.00  0.00     0.179 HD
HETATM    3  C4  UNL     1     -45.976  71.663 -14.718  1.00  0.00     0.708 A 
HETATM    4  N5  UNL     1     -45.603  70.526 -14.152  1.00  0.00    -0.117 N 
ATOM      5  H5  UNL     1     -44.844  69.930 -14.482  1.00  0.00     0.206 HD
HETATM    6  N6  UNL     1     -46.373  70.273 -13.075  1.00  0.00    -0.116 N 
ATOM      7  H6  UNL     1     -46.299  69.465 -12.458  1.00  0.00     0.206 HD
HETATM    8  C5  UNL     1     -47.252  71.280 -12.965  1.00  0.00     0.726 A 
HETATM    9  N13 UNL     1     -47.017  72.134 -13.965  1.00  0.00    -0.018 N 
ATOM     10  H13 UNL     1     -47.530  72.999 -14.139  1.00  0.00     0.203 HD
ENDROOT
BRANCH   8  11
HETATM   11  N7  UNL     1     -48.156  71.361 -12.028  1.00  0.00    -0.134 N 
ATOM     12  H7  UNL     1     -47.954  70.982 -11.102  1.00  0.00     0.205 HD
BRANCH  11  13
HETATM   13  N8  UNL     1     -49.388  71.954 -12.268  1.00  0.00    -0.315 N 
ATOM     14  H8  UNL     1     -50.032  71.528 -12.934  1.00  0.00     0.181 HD
BRANCH  13  15
HETATM   15  C6  UNL     1     -49.766  73.165 -11.585  1.00  0.00     0.216 C 
BRANCH  15  16
HETATM   16  C7  UNL     1     -49.781  74.283 -12.536  1.00  0.00     0.099 C 
HETATM   17  N9  UNL     1     -49.965  74.001 -13.805  1.00  0.00    -0.377 N 
HETATM   18  C8  UNL     1     -50.037  74.816 -14.982  1.00  0.00     0.140 C 
ATOM     19  H9  UNL     1     -50.080  73.005 -13.990  1.00  0.00     0.160 HD
HETATM   20  C9  UNL     1     -50.568  76.195 -14.775  1.00  0.00     0.142 C 
HETATM   21  N10 UNL     1     -49.753  77.011 -13.901  1.00  0.00    -0.363 N 
HETATM   22  C10 UNL     1     -49.323  76.775 -12.706  1.00  0.00     0.189 C 
ATOM     23  H10 UNL     1     -49.476  77.914 -14.289  1.00  0.00     0.162 HD
HETATM   24  N11 UNL     1     -48.527  77.749 -12.044  1.00  0.00    -0.064 NA
HETATM   25  N12 UNL     1     -49.591  75.569 -11.963  1.00  0.00    -0.319 N 
ATOM     26  H12 UNL     1     -49.649  75.645 -10.947  1.00  0.00     0.169 HD
ENDBRANCH  15  16
ENDBRANCH  13  15
ENDBRANCH  11  13
ENDBRANCH   8  11
BRANCH   1  27
HETATM   27  C3  UNL     1     -44.531  72.048 -16.663  1.00  0.00     0.261 C 
HETATM   28  C1  UNL     1     -44.169  73.092 -17.636  1.00  0.00     0.131 C 
HETATM   29  N2  UNL     1     -44.324  73.309 -18.879  1.00  0.00    -0.293 N 
HETATM   30  N3  UNL     1     -43.535  73.790 -16.588  1.00  0.00    -0.311 N 
ATOM     31  H2  UNL     1     -44.840  72.627 -19.434  1.00  0.00     0.187 HD
HETATM   32  C2  UNL     1     -43.217  72.510 -16.055  1.00  0.00     0.254 C 
ATOM     33  H3  UNL     1     -43.378  74.764 -16.331  1.00  0.00     0.170 HD
HETATM   34  O1  UNL     1     -42.304  71.989 -15.400  1.00  0.00    -0.270 OA
BRANCH  29  35
HETATM   35  N1  UNL     1     -43.818  74.442 -19.512  1.00  0.00    -0.344 N 
ATOM     36  H12 UNL     1     -42.862  74.721 -19.290  1.00  0.00     0.176 HD
ATOM     37  H11 UNL     1     -44.364  74.989 -20.179  1.00  0.00     0.176 HD
ENDBRANCH  29  35
ENDBRANCH   1  27
TORSDOF 6
ENDMDL
MODEL 5
REMARK VINA RESULT: -7.380303283      2.574      6.955
REMARK  6 active torsions:
REMARK  status: ('A' for Active; 'I' for Inactive)
REMARK    1  A    between atoms: N1_1  and  N2_4 
REMARK    2  A    between atoms: C3_11  and  N4_12 
REMARK    3  A    between atoms: C5_19  and  N7_20 
REMARK    4  A    between atoms: N7_20  and  N8_22 
REMARK    5  A    between atoms: N8_22  and  C6_24 
REMARK    6  A    between atoms: C6_24  and  C7_25 
ROOT
HETATM    1  N4  UNL     1     -48.240  71.197 -14.759  1.00  0.00    -0.204 N 
ATOM      2  H4  UNL     1     -48.799  71.144 -13.908  1.00  0.00     0.179 HD
HETATM    3  C4  UNL     1     -48.827  71.832 -15.656  1.00  0.00     0.708 A 
HETATM    4  N5  UNL     1     -48.458  72.127 -16.892  1.00  0.00    -0.117 N 
ATOM      5  H5  UNL     1     -47.573  71.855 -17.319  1.00  0.00     0.206 HD
HETATM    6  N6  UNL     1     -49.425  72.840 -17.503  1.00  0.00    -0.116 N 
ATOM      7  H6  UNL     1     -49.399  73.196 -18.459  1.00  0.00     0.206 HD
HETATM    8  C5  UNL     1     -50.426  72.995 -16.624  1.00  0.00     0.726 A 
HETATM    9  N13 UNL     1     -50.069  72.382 -15.492  1.00  0.00    -0.018 N 
ATOM     10  H13 UNL     1     -50.632  72.331 -14.642  1.00  0.00     0.203 HD
ENDROOT
BRANCH   8  11
HETATM   11  N7  UNL     1     -51.531  73.639 -16.881  1.00  0.00    -0.134 N 
ATOM     12  H7  UNL     1     -51.766  73.866 -17.847  1.00  0.00     0.205 HD
BRANCH  11  13
HETATM   13  N8  UNL     1     -52.392  74.022 -15.863  1.00  0.00    -0.315 N 
ATOM     14  H8  UNL     1     -53.032  73.339 -15.458  1.00  0.00     0.181 HD
BRANCH  13  15
HETATM   15  C6  UNL     1     -52.391  75.376 -15.370  1.00  0.00     0.216 C 
BRANCH  15  16
HETATM   16  C7  UNL     1     -51.266  75.563 -14.444  1.00  0.00     0.099 C 
HETATM   17  N9  UNL     1     -50.528  76.639 -14.592  1.00  0.00    -0.377 N 
HETATM   18  C8  UNL     1     -49.381  77.135 -13.890  1.00  0.00     0.140 C 
ATOM     19  H9  UNL     1     -50.830  77.241 -15.357  1.00  0.00     0.160 HD
HETATM   20  C9  UNL     1     -49.304  76.765 -12.447  1.00  0.00     0.142 C 
HETATM   21  N10 UNL     1     -49.200  75.341 -12.212  1.00  0.00    -0.363 N 
HETATM   22  C10 UNL     1     -49.944  74.373 -12.633  1.00  0.00     0.189 C 
ATOM     23  H10 UNL     1     -48.416  75.057 -11.622  1.00  0.00     0.162 HD
HETATM   24  N11 UNL     1     -49.632  73.037 -12.259  1.00  0.00    -0.064 NA
HETATM   25  N12 UNL     1     -51.102  74.537 -13.475  1.00  0.00    -0.319 N 
ATOM     26  H12 UNL     1     -51.863  73.866 -13.368  1.00  0.00     0.169 HD
ENDBRANCH  15  16
ENDBRANCH  13  15
ENDBRANCH  11  13
ENDBRANCH   8  11
BRANCH   1  27
HETATM   27  C3  UNL     1     -47.018  70.540 -14.618  1.00  0.00     0.261 C 
HETATM   28  C1  UNL     1     -45.765  71.293 -14.438  1.00  0.00     0.131 C 
HETATM   29  N2  UNL     1     -44.737  71.581 -15.128  1.00  0.00    -0.293 N 
HETATM   30  N3  UNL     1     -46.172  71.573 -13.118  1.00  0.00    -0.311 N 
ATOM     31  H2  UNL     1     -44.685  71.247 -16.091  1.00  0.00     0.187 HD
HETATM   32  C2  UNL     1     -46.788  70.291 -13.136  1.00  0.00     0.254 C 
ATOM     33  H3  UNL     1     -46.071  72.341 -12.455  1.00  0.00     0.170 HD
HETATM   34  O1  UNL     1     -47.035  69.378 -12.336  1.00  0.00    -0.270 OA
BRANCH  29  35
HETATM   35  N1  UNL     1     -43.680  72.333 -14.623  1.00  0.00    -0.344 N 
ATOM     36  H12 UNL     1     -43.902  73.078 -13.962  1.00  0.00     0.176 HD
ATOM     37  H11 UNL     1     -42.709  72.166 -14.889  1.00  0.00     0.176 HD
ENDBRANCH  29  35
ENDBRANCH   1  27
TORSDOF 6
ENDMDL
