MODEL 1
REMARK VINA RESULT: -6.841221635      0.000      0.000
REMARK  9 active torsions:
REMARK  status: ('A' for Active; 'I' for Inactive)
REMARK    1  A    between atoms: N1_1  and  N2_4 
REMARK       I    between atoms: C1_6  and  N3_7 
REMARK       I    between atoms: C1_6  and  N5_12 
REMARK    2  A    between atoms: N3_7  and  N4_9 
REMARK    3  A    between atoms: N5_12  and  N6_14 
REMARK    4  A    between atoms: N6_14  and  S1_16 
REMARK    5  A    between atoms: S1_16  and  C2_19 
REMARK    6  A    between atoms: C3_24  and  N9_25 
REMARK    7  A    between atoms: N9_25  and  C4_27 
REMARK    8  A    between atoms: C4_27  and  C5_28 
REMARK    9  A    between atoms: C5_28  and  O3_29 
ROOT
HETATM    1  S1  UNL     1     -47.879  69.907 -13.384  1.00  0.00     0.299 S 
HETATM    2  O1  UNL     1     -47.308  69.377 -12.099  1.00  0.00    -0.197 OA
HETATM    3  O2  UNL     1     -48.978  69.009 -13.904  1.00  0.00    -0.197 OA
ENDROOT
BRANCH   1   4
HETATM    4  N6  UNL     1     -46.671  70.052 -14.602  1.00  0.00    -0.207 N 
ATOM      5  H6  UNL     1     -46.629  69.524 -15.474  1.00  0.00     0.201 HD
BRANCH   4   6
HETATM    6  N5  UNL     1     -45.760  71.023 -14.182  1.00  0.00    -0.120 N 
HETATM    7  C1  UNL     1     -45.071  71.798 -15.141  1.00  0.00     0.725 C 
HETATM    8  N2  UNL     1     -43.986  72.385 -14.815  1.00  0.00    -0.136 N 
HETATM    9  N3  UNL     1     -45.591  71.914 -16.444  1.00  0.00    -0.136 N 
ATOM     10  H2  UNL     1     -43.618  72.295 -13.868  1.00  0.00     0.205 HD
ATOM     11  H3  UNL     1     -45.261  71.274 -17.166  1.00  0.00     0.205 HD
ATOM     12  H5  UNL     1     -45.592  71.172 -13.188  1.00  0.00     0.206 HD
BRANCH   8  13
HETATM   13  N1  UNL     1     -43.310  73.147 -15.761  1.00  0.00    -0.331 N 
ATOM     14  H12 UNL     1     -42.690  72.683 -16.426  1.00  0.00     0.177 HD
ATOM     15  H11 UNL     1     -43.442  74.158 -15.778  1.00  0.00     0.177 HD
ENDBRANCH   8  13
BRANCH   9  16
HETATM   16  N4  UNL     1     -46.554  72.889 -16.785  1.00  0.00    -0.331 N 
ATOM     17  H42 UNL     1     -47.538  72.643 -16.678  1.00  0.00     0.177 HD
ATOM     18  H41 UNL     1     -46.294  73.813 -17.129  1.00  0.00     0.177 HD
ENDBRANCH   9  16
ENDBRANCH   4   6
ENDBRANCH   1   4
BRANCH   1  19
HETATM   19  C2  UNL     1     -48.599  71.484 -13.139  1.00  0.00     0.234 A 
HETATM   20  N7  UNL     1     -48.839  72.008 -11.931  1.00  0.00    -0.270 N 
HETATM   21  N8  UNL     1     -49.382  73.200 -11.766  1.00  0.00    -0.131 N 
ATOM     22  H7  UNL     1     -48.591  71.465 -11.105  1.00  0.00     0.188 HD
HETATM   23  C3  UNL     1     -49.736  73.972 -12.818  1.00  0.00     0.695 A 
ATOM     24  H8  UNL     1     -49.538  73.548 -10.820  1.00  0.00     0.205 HD
HETATM   25  N10 UNL     1     -49.517  73.489 -14.053  1.00  0.00    -0.152 N 
HETATM   26  C6  UNL     1     -48.964  72.279 -14.215  1.00  0.00     0.301 A 
ATOM     27  H10 UNL     1     -49.771  74.045 -14.869  1.00  0.00     0.187 HD
HETATM   28  O4  UNL     1     -48.775  71.861 -15.384  1.00  0.00    -0.264 OA
BRANCH  23  29
HETATM   29  N9  UNL     1     -50.261  75.122 -12.688  1.00  0.00    -0.223 N 
ATOM     30  H9  UNL     1     -51.103  75.365 -13.210  1.00  0.00     0.177 HD
BRANCH  29  31
HETATM   31  C4  UNL     1     -49.660  76.084 -11.795  1.00  0.00     0.164 C 
BRANCH  31  32
HETATM   32  C5  UNL     1     -49.199  77.247 -12.658  1.00  0.00     0.184 C 
BRANCH  32  33
HETATM   33  O3  UNL     1     -48.327  78.048 -11.923  1.00  0.00    -0.399 OA
ATOM     34  H3  UNL     1     -48.767  78.857 -11.688  1.00  0.00     0.209 HD
ENDBRANCH  32  33
ENDBRANCH  31  32
ENDBRANCH  29  31
ENDBRANCH  23  29
ENDBRANCH   1  19
TORSDOF 9
ENDMDL
MODEL 2
REMARK VINA RESULT: -6.286776310      0.970      1.647
REMARK  9 active torsions:
REMARK  status: ('A' for Active; 'I' for Inactive)
REMARK    1  A    between atoms: N1_1  and  N2_4 
REMARK       I    between atoms: C1_6  and  N3_7 
REMARK       I    between atoms: C1_6  and  N5_12 
REMARK    2  A    between atoms: N3_7  and  N4_9 
REMARK    3  A    between atoms: N5_12  and  N6_14 
REMARK    4  A    between atoms: N6_14  and  S1_16 
REMARK    5  A    between atoms: S1_16  and  C2_19 
REMARK    6  A    between atoms: C3_24  and  N9_25 
REMARK    7  A    between atoms: N9_25  and  C4_27 
REMARK    8  A    between atoms: C4_27  and  C5_28 
REMARK    9  A    between atoms: C5_28  and  O3_29 
ROOT
HETATM    1  S1  UNL     1     -48.279  69.803 -14.450  1.00  0.00     0.299 S 
HETATM    2  O1  UNL     1     -49.090  68.738 -13.766  1.00  0.00    -0.197 OA
HETATM    3  O2  UNL     1     -48.468  69.755 -15.949  1.00  0.00    -0.197 OA
ENDROOT
BRANCH   1   4
HETATM    4  N6  UNL     1     -46.600  69.641 -14.105  1.00  0.00    -0.207 N 
ATOM      5  H6  UNL     1     -46.091  68.764 -13.997  1.00  0.00     0.201 HD
BRANCH   4   6
HETATM    6  N5  UNL     1     -46.062  70.925 -14.001  1.00  0.00    -0.120 N 
HETATM    7  C1  UNL     1     -45.305  71.456 -15.069  1.00  0.00     0.725 C 
HETATM    8  N2  UNL     1     -44.499  72.420 -14.851  1.00  0.00    -0.136 N 
HETATM    9  N3  UNL     1     -45.450  70.914 -16.360  1.00  0.00    -0.136 N 
ATOM     10  H2  UNL     1     -44.402  72.806 -13.912  1.00  0.00     0.205 HD
ATOM     11  H3  UNL     1     -44.807  70.183 -16.663  1.00  0.00     0.205 HD
ATOM     12  H5  UNL     1     -46.215  71.478 -13.158  1.00  0.00     0.206 HD
BRANCH   8  13
HETATM   13  N1  UNL     1     -43.755  72.941 -15.904  1.00  0.00    -0.331 N 
ATOM     14  H12 UNL     1     -43.751  72.455 -16.801  1.00  0.00     0.177 HD
ATOM     15  H11 UNL     1     -43.224  73.801 -15.766  1.00  0.00     0.177 HD
ENDBRANCH   8  13
BRANCH   9  16
HETATM   16  N4  UNL     1     -46.456  71.349 -17.250  1.00  0.00    -0.331 N 
ATOM     17  H42 UNL     1     -46.634  70.786 -18.081  1.00  0.00     0.177 HD
ATOM     18  H41 UNL     1     -46.998  72.197 -17.084  1.00  0.00     0.177 HD
ENDBRANCH   9  16
ENDBRANCH   4   6
ENDBRANCH   1   4
BRANCH   1  19
HETATM   19  C2  UNL     1     -48.790  71.397 -13.935  1.00  0.00     0.234 A 
HETATM   20  N7  UNL     1     -49.323  72.306 -14.762  1.00  0.00    -0.270 N 
HETATM   21  N8  UNL     1     -49.703  73.502 -14.355  1.00  0.00    -0.131 N 
ATOM     22  H7  UNL     1     -49.440  72.063 -15.745  1.00  0.00     0.188 HD
HETATM   23  C3  UNL     1     -49.575  73.890 -13.066  1.00  0.00     0.695 A 
ATOM     24  H8  UNL     1     -50.105  74.152 -15.031  1.00  0.00     0.205 HD
HETATM   25  N10 UNL     1     -49.044  73.013 -12.197  1.00  0.00    -0.152 N 
HETATM   26  C6  UNL     1     -48.660  71.799 -12.614  1.00  0.00     0.301 A 
ATOM     27  H10 UNL     1     -48.934  73.272 -11.217  1.00  0.00     0.187 HD
HETATM   28  O4  UNL     1     -48.168  71.006 -11.773  1.00  0.00    -0.264 OA
BRANCH  23  29
HETATM   29  N9  UNL     1     -49.932  75.036 -12.648  1.00  0.00    -0.223 N 
ATOM     30  H9  UNL     1     -50.672  75.121 -11.951  1.00  0.00     0.177 HD
BRANCH  29  31
HETATM   31  C4  UNL     1     -49.285  76.218 -13.166  1.00  0.00     0.164 C 
BRANCH  31  32
HETATM   32  C5  UNL     1     -49.528  77.325 -12.152  1.00  0.00     0.184 C 
BRANCH  32  33
HETATM   33  O3  UNL     1     -48.357  78.061 -11.987  1.00  0.00    -0.399 OA
ATOM     34  H3  UNL     1     -48.444  78.622 -11.224  1.00  0.00     0.209 HD
ENDBRANCH  32  33
ENDBRANCH  31  32
ENDBRANCH  29  31
ENDBRANCH  23  29
ENDBRANCH   1  19
TORSDOF 9
ENDMDL
MODEL 3
REMARK VINA RESULT: -6.279138113      2.688      3.972
REMARK  9 active torsions:
REMARK  status: ('A' for Active; 'I' for Inactive)
REMARK    1  A    between atoms: N1_1  and  N2_4 
REMARK       I    between atoms: C1_6  and  N3_7 
REMARK       I    between atoms: C1_6  and  N5_12 
REMARK    2  A    between atoms: N3_7  and  N4_9 
REMARK    3  A    between atoms: N5_12  and  N6_14 
REMARK    4  A    between atoms: N6_14  and  S1_16 
REMARK    5  A    between atoms: S1_16  and  C2_19 
REMARK    6  A    between atoms: C3_24  and  N9_25 
REMARK    7  A    between atoms: N9_25  and  C4_27 
REMARK    8  A    between atoms: C4_27  and  C5_28 
REMARK    9  A    between atoms: C5_28  and  O3_29 
ROOT
HETATM    1  S1  UNL     1     -48.655  71.706 -16.738  1.00  0.00     0.299 S 
HETATM    2  O1  UNL     1     -49.779  71.266 -17.633  1.00  0.00    -0.197 OA
HETATM    3  O2  UNL     1     -47.596  72.450 -17.519  1.00  0.00    -0.197 OA
ENDROOT
BRANCH   1   4
HETATM    4  N6  UNL     1     -47.912  70.368 -15.949  1.00  0.00    -0.207 N 
ATOM      5  H6  UNL     1     -46.933  70.093 -16.024  1.00  0.00     0.201 HD
BRANCH   4   6
HETATM    6  N5  UNL     1     -48.892  69.727 -15.188  1.00  0.00    -0.120 N 
HETATM    7  C1  UNL     1     -48.521  69.015 -14.026  1.00  0.00     0.725 C 
HETATM    8  N2  UNL     1     -49.303  68.124 -13.557  1.00  0.00    -0.136 N 
HETATM    9  N3  UNL     1     -47.292  69.298 -13.400  1.00  0.00    -0.136 N 
ATOM     10  H2  UNL     1     -50.192  67.926 -14.017  1.00  0.00     0.205 HD
ATOM     11  H3  UNL     1     -46.475  68.738 -13.640  1.00  0.00     0.205 HD
ATOM     12  H5  UNL     1     -49.871  69.773 -15.469  1.00  0.00     0.206 HD
BRANCH   8  13
HETATM   13  N1  UNL     1     -48.936  67.424 -12.412  1.00  0.00    -0.331 N 
ATOM     14  H12 UNL     1     -49.014  66.407 -12.403  1.00  0.00     0.177 HD
ATOM     15  H11 UNL     1     -48.593  67.936 -11.600  1.00  0.00     0.177 HD
ENDBRANCH   8  13
BRANCH   9  16
HETATM   16  N4  UNL     1     -47.154  70.334 -12.449  1.00  0.00    -0.331 N 
ATOM     17  H42 UNL     1     -47.808  70.353 -11.668  1.00  0.00     0.177 HD
ATOM     18  H41 UNL     1     -46.429  71.047 -12.525  1.00  0.00     0.177 HD
ENDBRANCH   9  16
ENDBRANCH   4   6
ENDBRANCH   1   4
BRANCH   1  19
HETATM   19  C2  UNL     1     -49.236  72.810 -15.510  1.00  0.00     0.234 A 
HETATM   20  N7  UNL     1     -50.405  73.456 -15.589  1.00  0.00    -0.270 N 
HETATM   21  N8  UNL     1     -50.827  74.285 -14.652  1.00  0.00    -0.131 N 
ATOM     22  H7  UNL     1     -50.995  73.302 -16.407  1.00  0.00     0.188 HD
HETATM   23  C3  UNL     1     -50.095  74.536 -13.543  1.00  0.00     0.695 A 
ATOM     24  H8  UNL     1     -51.729  74.747 -14.767  1.00  0.00     0.205 HD
HETATM   25  N10 UNL     1     -48.912  73.911 -13.417  1.00  0.00    -0.152 N 
HETATM   26  C6  UNL     1     -48.489  73.071 -14.371  1.00  0.00     0.301 A 
ATOM     27  H10 UNL     1     -48.335  74.077 -12.593  1.00  0.00     0.187 HD
HETATM   28  O4  UNL     1     -47.378  72.505 -14.218  1.00  0.00    -0.264 OA
BRANCH  23  29
HETATM   29  N9  UNL     1     -50.478  75.329 -12.626  1.00  0.00    -0.223 N 
ATOM     30  H9  UNL     1     -51.471  75.435 -12.420  1.00  0.00     0.177 HD
BRANCH  29  31
HETATM   31  C4  UNL     1     -49.498  76.080 -11.878  1.00  0.00     0.164 C 
BRANCH  31  32
HETATM   32  C5  UNL     1     -49.291  77.388 -12.625  1.00  0.00     0.184 C 
BRANCH  32  33
HETATM   33  O3  UNL     1     -48.310  78.137 -11.978  1.00  0.00    -0.399 OA
ATOM     34  H3  UNL     1     -48.142  78.929 -12.474  1.00  0.00     0.209 HD
ENDBRANCH  32  33
ENDBRANCH  31  32
ENDBRANCH  29  31
ENDBRANCH  23  29
ENDBRANCH   1  19
TORSDOF 9
ENDMDL
MODEL 4
REMARK VINA RESULT: -6.265063204      3.879      5.679
REMARK  9 active torsions:
REMARK  status: ('A' for Active; 'I' for Inactive)
REMARK    1  A    between atoms: N1_1  and  N2_4 
REMARK       I    between atoms: C1_6  and  N3_7 
REMARK       I    between atoms: C1_6  and  N5_12 
REMARK    2  A    between atoms: N3_7  and  N4_9 
REMARK    3  A    between atoms: N5_12  and  N6_14 
REMARK    4  A    between atoms: N6_14  and  S1_16 
REMARK    5  A    between atoms: S1_16  and  C2_19 
REMARK    6  A    between atoms: C3_24  and  N9_25 
REMARK    7  A    between atoms: N9_25  and  C4_27 
REMARK    8  A    between atoms: C4_27  and  C5_28 
REMARK    9  A    between atoms: C5_28  and  O3_29 
ROOT
HETATM    1  S1  UNL     1     -44.361  72.637 -16.423  1.00  0.00     0.299 S 
HETATM    2  O1  UNL     1     -45.213  73.306 -17.465  1.00  0.00    -0.197 OA
HETATM    3  O2  UNL     1     -43.538  73.650 -15.659  1.00  0.00    -0.197 OA
ENDROOT
BRANCH   1   4
HETATM    4  N6  UNL     1     -43.293  71.482 -17.122  1.00  0.00    -0.207 N 
ATOM      5  H6  UNL     1     -42.965  70.623 -16.682  1.00  0.00     0.201 HD
BRANCH   4   6
HETATM    6  N5  UNL     1     -42.958  71.934 -18.400  1.00  0.00    -0.120 N 
HETATM    7  C1  UNL     1     -43.530  71.316 -19.534  1.00  0.00     0.725 C 
HETATM    8  N2  UNL     1     -42.961  71.433 -20.669  1.00  0.00    -0.136 N 
HETATM    9  N3  UNL     1     -44.722  70.579 -19.396  1.00  0.00    -0.136 N 
ATOM     10  H2  UNL     1     -42.098  71.969 -20.759  1.00  0.00     0.205 HD
ATOM     11  H3  UNL     1     -44.665  69.572 -19.249  1.00  0.00     0.205 HD
ATOM     12  H5  UNL     1     -42.302  72.706 -18.515  1.00  0.00     0.206 HD
BRANCH   8  13
HETATM   13  N1  UNL     1     -43.527  70.823 -21.784  1.00  0.00    -0.331 N 
ATOM     14  H12 UNL     1     -43.893  69.874 -21.702  1.00  0.00     0.177 HD
ATOM     15  H11 UNL     1     -43.569  71.332 -22.667  1.00  0.00     0.177 HD
ENDBRANCH   8  13
BRANCH   9  16
HETATM   16  N4  UNL     1     -45.994  71.189 -19.456  1.00  0.00    -0.331 N 
ATOM     17  H42 UNL     1     -46.034  72.208 -19.461  1.00  0.00     0.177 HD
ATOM     18  H41 UNL     1     -46.856  70.646 -19.492  1.00  0.00     0.177 HD
ENDBRANCH   9  16
ENDBRANCH   4   6
ENDBRANCH   1   4
BRANCH   1  19
HETATM   19  C2  UNL     1     -45.358  71.813 -15.242  1.00  0.00     0.234 A 
HETATM   20  N7  UNL     1     -45.529  72.247 -13.987  1.00  0.00    -0.270 N 
HETATM   21  N8  UNL     1     -46.285  71.613 -13.111  1.00  0.00    -0.131 N 
ATOM     22  H7  UNL     1     -45.056  73.102 -13.696  1.00  0.00     0.188 HD
HETATM   23  C3  UNL     1     -46.939  70.473 -13.429  1.00  0.00     0.695 A 
ATOM     24  H8  UNL     1     -46.380  71.992 -12.169  1.00  0.00     0.205 HD
HETATM   25  N10 UNL     1     -46.799  69.997 -14.678  1.00  0.00    -0.152 N 
HETATM   26  C6  UNL     1     -46.030  70.644 -15.564  1.00  0.00     0.301 A 
ATOM     27  H10 UNL     1     -47.279  69.140 -14.952  1.00  0.00     0.187 HD
HETATM   28  O4  UNL     1     -45.923  70.169 -16.721  1.00  0.00    -0.264 OA
BRANCH  23  29
HETATM   29  N9  UNL     1     -47.674  69.842 -12.605  1.00  0.00    -0.223 N 
ATOM     30  H9  UNL     1     -47.257  69.377 -11.799  1.00  0.00     0.177 HD
BRANCH  29  31
HETATM   31  C4  UNL     1     -49.101  69.789 -12.816  1.00  0.00     0.164 C 
BRANCH  31  32
HETATM   32  C5  UNL     1     -49.487  68.319 -12.794  1.00  0.00     0.184 C 
BRANCH  32  33
HETATM   33  O3  UNL     1     -48.374  67.546 -13.119  1.00  0.00    -0.399 OA
ATOM     34  H3  UNL     1     -47.588  68.071 -13.022  1.00  0.00     0.209 HD
ENDBRANCH  32  33
ENDBRANCH  31  32
ENDBRANCH  29  31
ENDBRANCH  23  29
ENDBRANCH   1  19
TORSDOF 9
ENDMDL
MODEL 5
REMARK VINA RESULT: -6.252633943      3.243      6.835
REMARK  9 active torsions:
REMARK  status: ('A' for Active; 'I' for Inactive)
REMARK    1  A    between atoms: N1_1  and  N2_4 
REMARK       I    between atoms: C1_6  and  N3_7 
REMARK       I    between atoms: C1_6  and  N5_12 
REMARK    2  A    between atoms: N3_7  and  N4_9 
REMARK    3  A    between atoms: N5_12  and  N6_14 
REMARK    4  A    between atoms: N6_14  and  S1_16 
REMARK    5  A    between atoms: S1_16  and  C2_19 
REMARK    6  A    between atoms: C3_24  and  N9_25 
REMARK    7  A    between atoms: N9_25  and  C4_27 
REMARK    8  A    between atoms: C4_27  and  C5_28 
REMARK    9  A    between atoms: C5_28  and  O3_29 
ROOT
HETATM    1  S1  UNL     1     -49.361  76.672 -13.260  1.00  0.00     0.299 S 
HETATM    2  O1  UNL     1     -48.570  77.434 -12.234  1.00  0.00    -0.197 OA
HETATM    3  O2  UNL     1     -48.870  76.972 -14.658  1.00  0.00    -0.197 OA
ENDROOT
BRANCH   1   4
HETATM    4  N6  UNL     1     -51.038  77.051 -13.178  1.00  0.00    -0.207 N 
ATOM      5  H6  UNL     1     -51.442  77.987 -13.133  1.00  0.00     0.201 HD
BRANCH   4   6
HETATM    6  N5  UNL     1     -51.746  75.848 -13.185  1.00  0.00    -0.120 N 
HETATM    7  C1  UNL     1     -52.380  75.415 -14.370  1.00  0.00     0.725 C 
HETATM    8  N2  UNL     1     -53.327  74.563 -14.302  1.00  0.00    -0.136 N 
HETATM    9  N3  UNL     1     -51.958  75.928 -15.611  1.00  0.00    -0.136 N 
ATOM     10  H2  UNL     1     -53.626  74.197 -13.398  1.00  0.00     0.205 HD
ATOM     11  H3  UNL     1     -52.443  76.734 -16.002  1.00  0.00     0.205 HD
ATOM     12  H5  UNL     1     -51.805  75.284 -12.337  1.00  0.00     0.206 HD
BRANCH   8  13
HETATM   13  N1  UNL     1     -53.950  74.138 -15.471  1.00  0.00    -0.331 N 
ATOM     14  H12 UNL     1     -54.944  73.909 -15.452  1.00  0.00     0.177 HD
ATOM     15  H11 UNL     1     -53.406  74.062 -16.330  1.00  0.00     0.177 HD
ENDBRANCH   8  13
BRANCH   9  16
HETATM   16  N4  UNL     1     -50.883  75.362 -16.332  1.00  0.00    -0.331 N 
ATOM     17  H42 UNL     1     -51.075  74.997 -17.265  1.00  0.00     0.177 HD
ATOM     18  H41 UNL     1     -49.939  75.311 -15.949  1.00  0.00     0.177 HD
ENDBRANCH   9  16
ENDBRANCH   4   6
ENDBRANCH   1   4
BRANCH   1  19
HETATM   19  C2  UNL     1     -49.179  74.946 -13.028  1.00  0.00     0.234 A 
HETATM   20  N7  UNL     1     -48.675  74.124 -13.956  1.00  0.00    -0.270 N 
HETATM   21  N8  UNL     1     -48.545  72.825 -13.762  1.00  0.00    -0.131 N 
ATOM     22  H7  UNL     1     -48.379  74.518 -14.849  1.00  0.00     0.188 HD
HETATM   23  C3  UNL     1     -48.919  72.238 -12.603  1.00  0.00     0.695 A 
ATOM     24  H8  UNL     1     -48.151  72.249 -14.506  1.00  0.00     0.205 HD
HETATM   25  N10 UNL     1     -49.431  73.022 -11.639  1.00  0.00    -0.152 N 
HETATM   26  C6  UNL     1     -49.561  74.340 -11.841  1.00  0.00     0.301 A 
ATOM     27  H10 UNL     1     -49.723  72.612 -10.752  1.00  0.00     0.187 HD
HETATM   28  O4  UNL     1     -50.045  75.040 -10.917  1.00  0.00    -0.264 OA
BRANCH  23  29
HETATM   29  N9  UNL     1     -48.804  70.989 -12.391  1.00  0.00    -0.223 N 
ATOM     30  H9  UNL     1     -48.706  70.638 -11.438  1.00  0.00     0.177 HD
BRANCH  29  31
HETATM   31  C4  UNL     1     -48.815  70.072 -13.505  1.00  0.00     0.164 C 
BRANCH  31  32
HETATM   32  C5  UNL     1     -49.318  68.742 -12.967  1.00  0.00     0.184 C 
BRANCH  32  33
HETATM   33  O3  UNL     1     -48.348  67.765 -13.178  1.00  0.00    -0.399 OA
ATOM     34  H3  UNL     1     -48.767  66.963 -13.469  1.00  0.00     0.209 HD
ENDBRANCH  32  33
ENDBRANCH  31  32
ENDBRANCH  29  31
ENDBRANCH  23  29
ENDBRANCH   1  19
TORSDOF 9
ENDMDL
