MODEL 1
REMARK VINA RESULT: -5.579518293      0.000      0.000
REMARK  2 active torsions:
REMARK  status: ('A' for Active; 'I' for Inactive)
REMARK       I    between atoms: C1_2  and  N3_16 
REMARK       I    between atoms: N2_3  and  C2_5 
REMARK    1  A    between atoms: C2_5  and  C3_7 
REMARK    2  A    between atoms: C3_7  and  C4_8 
ROOT
HETATM    1  N1  UNL     1      92.277  98.346 -43.708  1.00  0.00    -0.063 NA
HETATM    2  C1  UNL     1      91.548  98.087 -42.507  1.00  0.00     0.196 C 
HETATM    3  N2  UNL     1      90.428  98.656 -42.252  1.00  0.00    -0.301 N 
ATOM      4  H2  UNL     1      89.926  98.457 -41.387  1.00  0.00     0.171 HD
HETATM    5  C2  UNL     1      89.907  99.565 -43.198  1.00  0.00     0.226 C 
HETATM    6  O1  UNL     1      88.974  99.215 -43.943  1.00  0.00    -0.273 OA
HETATM    7  N3  UNL     1      92.070  97.173 -41.552  1.00  0.00    -0.320 N 
ATOM      8  H3  UNL     1      92.482  97.501 -40.679  1.00  0.00     0.169 HD
HETATM    9  C9  UNL     1      92.005  95.917 -41.824  1.00  0.00     0.079 C 
HETATM   10  C10 UNL     1      91.450  95.279 -43.022  1.00  0.00     0.078 C 
HETATM   11  C11 UNL     1      92.114  93.920 -43.053  1.00  0.00     0.027 C 
HETATM   12  C12 UNL     1      92.691  93.667 -41.699  1.00  0.00     0.121 C 
HETATM   13  N4  UNL     1      92.490  94.895 -40.954  1.00  0.00    -0.380 N 
ATOM     14  H4  UNL     1      92.668  95.012 -39.957  1.00  0.00     0.160 HD
ENDROOT
BRANCH   5  15
HETATM   15  C3  UNL     1      90.470 100.920 -43.299  1.00  0.00     0.135 C 
BRANCH  15  16
HETATM   16  C4  UNL     1      90.168 101.664 -42.014  1.00  0.00     0.133 C 
HETATM   17  C5  UNL     1      90.269 103.131 -42.210  1.00  0.00     0.048 C 
HETATM   18  C6  UNL     1      90.493 103.947 -40.989  1.00  0.00     0.063 C 
HETATM   19 BR1  UNL     1      88.908 105.014 -40.577  1.00  0.00    -0.091 Br
HETATM   20  C7  UNL     1      90.820 103.166 -39.762  1.00  0.00     0.059 C 
HETATM   21  C8  UNL     1      91.572 101.923 -40.177  1.00  0.00     0.194 C 
HETATM   22 BR2  UNL     1      93.313 102.428 -40.883  1.00  0.00    -0.061 Br
HETATM   23  O2  UNL     1      90.875 101.113 -41.002  1.00  0.00    -0.369 OA
ENDBRANCH  15  16
ENDBRANCH   5  15
TORSDOF 2
ENDMDL
MODEL 2
REMARK VINA RESULT: -5.348920800      4.227      7.621
REMARK  2 active torsions:
REMARK  status: ('A' for Active; 'I' for Inactive)
REMARK       I    between atoms: C1_2  and  N3_16 
REMARK       I    between atoms: N2_3  and  C2_5 
REMARK    1  A    between atoms: C2_5  and  C3_7 
REMARK    2  A    between atoms: C3_7  and  C4_8 
ROOT
HETATM    1  N1  UNL     1      89.983  98.650 -43.219  1.00  0.00    -0.063 NA
HETATM    2  C1  UNL     1      91.379  98.381 -43.092  1.00  0.00     0.196 C 
HETATM    3  N2  UNL     1      92.073  97.898 -44.057  1.00  0.00    -0.301 N 
ATOM      4  H2  UNL     1      93.069  97.713 -43.943  1.00  0.00     0.171 HD
HETATM    5  C2  UNL     1      91.421  97.630 -45.281  1.00  0.00     0.226 C 
HETATM    6  O1  UNL     1      91.568  98.406 -46.243  1.00  0.00    -0.273 OA
HETATM    7  N3  UNL     1      92.039  98.650 -41.861  1.00  0.00    -0.320 N 
ATOM      8  H3  UNL     1      92.311  97.894 -41.234  1.00  0.00     0.169 HD
HETATM    9  C9  UNL     1      92.280  99.878 -41.565  1.00  0.00     0.079 C 
HETATM   10  C10 UNL     1      91.960 101.077 -42.346  1.00  0.00     0.078 C 
HETATM   11  C11 UNL     1      91.960 102.191 -41.322  1.00  0.00     0.027 C 
HETATM   12  C12 UNL     1      92.663 101.686 -40.105  1.00  0.00     0.121 C 
HETATM   13  N4  UNL     1      92.934 100.285 -40.364  1.00  0.00    -0.380 N 
ATOM     14  H4  UNL     1      93.508  99.681 -39.776  1.00  0.00     0.160 HD
ENDROOT
BRANCH   5  15
HETATM   15  C3  UNL     1      90.572  96.437 -45.412  1.00  0.00     0.135 C 
BRANCH  15  16
HETATM   16  C4  UNL     1      91.464  95.235 -45.648  1.00  0.00     0.133 C 
HETATM   17  C5  UNL     1      90.659  94.014 -45.898  1.00  0.00     0.048 C 
HETATM   18  C6  UNL     1      91.337  92.714 -45.653  1.00  0.00     0.063 C 
HETATM   19 BR1  UNL     1      91.642  91.772 -47.339  1.00  0.00    -0.091 Br
HETATM   20  C7  UNL     1      92.656  92.812 -44.967  1.00  0.00     0.059 C 
HETATM   21  C8  UNL     1      92.625  94.010 -44.047  1.00  0.00     0.194 C 
HETATM   22 BR2  UNL     1      91.372  93.675 -42.596  1.00  0.00    -0.061 Br
HETATM   23  O2  UNL     1      92.407  95.181 -44.681  1.00  0.00    -0.369 OA
ENDBRANCH  15  16
ENDBRANCH   5  15
TORSDOF 2
ENDMDL
MODEL 3
REMARK VINA RESULT: -5.091463017      2.306      2.680
REMARK  2 active torsions:
REMARK  status: ('A' for Active; 'I' for Inactive)
REMARK       I    between atoms: C1_2  and  N3_16 
REMARK       I    between atoms: N2_3  and  C2_5 
REMARK    1  A    between atoms: C2_5  and  C3_7 
REMARK    2  A    between atoms: C3_7  and  C4_8 
ROOT
HETATM    1  N1  UNL     1      90.593  99.955 -44.778  1.00  0.00    -0.063 NA
HETATM    2  C1  UNL     1      90.750  99.040 -43.693  1.00  0.00     0.196 C 
HETATM    3  N2  UNL     1      90.225  99.248 -42.542  1.00  0.00    -0.301 N 
ATOM      4  H2  UNL     1      90.352  98.581 -41.781  1.00  0.00     0.171 HD
HETATM    5  C2  UNL     1      89.467 100.424 -42.355  1.00  0.00     0.226 C 
HETATM    6  O1  UNL     1      88.224 100.363 -42.341  1.00  0.00    -0.273 OA
HETATM    7  N3  UNL     1      91.514  97.855 -43.878  1.00  0.00    -0.320 N 
ATOM      8  H3  UNL     1      92.448  97.763 -43.480  1.00  0.00     0.169 HD
HETATM    9  C9  UNL     1      90.987  96.902 -44.564  1.00  0.00     0.079 C 
HETATM   10  C10 UNL     1      89.667  96.869 -45.201  1.00  0.00     0.078 C 
HETATM   11  C11 UNL     1      89.805  95.808 -46.271  1.00  0.00     0.027 C 
HETATM   12  C12 UNL     1      91.022  95.003 -45.956  1.00  0.00     0.121 C 
HETATM   13  N4  UNL     1      91.644  95.662 -44.824  1.00  0.00    -0.380 N 
ATOM     14  H4  UNL     1      92.433  95.294 -44.292  1.00  0.00     0.160 HD
ENDROOT
BRANCH   5  15
HETATM   15  C3  UNL     1      90.148 101.715 -42.178  1.00  0.00     0.135 C 
BRANCH  15  16
HETATM   16  C4  UNL     1      90.879 101.696 -40.850  1.00  0.00     0.133 C 
HETATM   17  C5  UNL     1      91.014 103.065 -40.296  1.00  0.00     0.048 C 
HETATM   18  C6  UNL     1      92.099 103.271 -39.301  1.00  0.00     0.063 C 
HETATM   19 BR1  UNL     1      91.347 103.595 -37.525  1.00  0.00    -0.091 Br
HETATM   20  C7  UNL     1      93.053 102.134 -39.167  1.00  0.00     0.059 C 
HETATM   21  C8  UNL     1      93.166 101.449 -40.509  1.00  0.00     0.194 C 
HETATM   22 BR2  UNL     1      94.043 102.643 -41.770  1.00  0.00    -0.061 Br
HETATM   23  O2  UNL     1      91.999 100.950 -40.968  1.00  0.00    -0.369 OA
ENDBRANCH  15  16
ENDBRANCH   5  15
TORSDOF 2
ENDMDL
MODEL 4
REMARK VINA RESULT: -5.054118700      2.354      3.125
REMARK  2 active torsions:
REMARK  status: ('A' for Active; 'I' for Inactive)
REMARK       I    between atoms: C1_2  and  N3_16 
REMARK       I    between atoms: N2_3  and  C2_5 
REMARK    1  A    between atoms: C2_5  and  C3_7 
REMARK    2  A    between atoms: C3_7  and  C4_8 
ROOT
HETATM    1  N1  UNL     1      92.270 100.699 -43.317  1.00  0.00    -0.063 NA
HETATM    2  C1  UNL     1      91.672  99.959 -42.253  1.00  0.00     0.196 C 
HETATM    3  N2  UNL     1      90.850 100.493 -41.426  1.00  0.00    -0.301 N 
ATOM      4  H2  UNL     1      90.435  99.945 -40.672  1.00  0.00     0.171 HD
HETATM    5  C2  UNL     1      90.534 101.860 -41.585  1.00  0.00     0.226 C 
HETATM    6  O1  UNL     1      89.444 102.189 -42.087  1.00  0.00    -0.273 OA
HETATM    7  N3  UNL     1      91.987  98.582 -42.089  1.00  0.00    -0.320 N 
ATOM      8  H3  UNL     1      92.602  98.268 -41.338  1.00  0.00     0.169 HD
HETATM    9  C9  UNL     1      91.472  97.744 -42.919  1.00  0.00     0.079 C 
HETATM   10  C10 UNL     1      90.577  98.023 -44.046  1.00  0.00     0.078 C 
HETATM   11  C11 UNL     1      90.742  96.820 -44.949  1.00  0.00     0.027 C 
HETATM   12  C12 UNL     1      91.384  95.737 -44.147  1.00  0.00     0.121 C 
HETATM   13  N4  UNL     1      91.707  96.338 -42.867  1.00  0.00    -0.380 N 
ATOM     14  H4  UNL     1      92.051  95.831 -42.051  1.00  0.00     0.160 HD
ENDROOT
BRANCH   5  15
HETATM   15  C3  UNL     1      91.494 102.888 -41.158  1.00  0.00     0.135 C 
BRANCH  15  16
HETATM   16  C4  UNL     1      91.917 102.591 -39.733  1.00  0.00     0.133 C 
HETATM   17  C5  UNL     1      91.689 103.764 -38.854  1.00  0.00     0.048 C 
HETATM   18  C6  UNL     1      92.483 103.812 -37.598  1.00  0.00     0.063 C 
HETATM   19 BR1  UNL     1      91.325 103.551 -36.044  1.00  0.00    -0.091 Br
HETATM   20  C7  UNL     1      93.570 102.797 -37.503  1.00  0.00     0.059 C 
HETATM   21  C8  UNL     1      94.086 102.521 -38.896  1.00  0.00     0.194 C 
HETATM   22 BR2  UNL     1      94.988 104.106 -39.574  1.00  0.00    -0.061 Br
HETATM   23  O2  UNL     1      93.149 102.037 -39.739  1.00  0.00    -0.369 OA
ENDBRANCH  15  16
ENDBRANCH   5  15
TORSDOF 2
ENDMDL
MODEL 5
REMARK VINA RESULT: -5.043086561      3.888      6.411
REMARK  2 active torsions:
REMARK  status: ('A' for Active; 'I' for Inactive)
REMARK       I    between atoms: C1_2  and  N3_16 
REMARK       I    between atoms: N2_3  and  C2_5 
REMARK    1  A    between atoms: C2_5  and  C3_7 
REMARK    2  A    between atoms: C3_7  and  C4_8 
ROOT
HETATM    1  N1  UNL     1      91.579 100.963 -43.321  1.00  0.00    -0.063 NA
HETATM    2  C1  UNL     1      90.750 100.557 -42.232  1.00  0.00     0.196 C 
HETATM    3  N2  UNL     1      90.187  99.405 -42.194  1.00  0.00    -0.301 N 
ATOM      4  H2  UNL     1      89.598  99.137 -41.406  1.00  0.00     0.171 HD
HETATM    5  C2  UNL     1      90.403  98.519 -43.271  1.00  0.00     0.226 C 
HETATM    6  O1  UNL     1      91.194  97.567 -43.139  1.00  0.00    -0.273 OA
HETATM    7  N3  UNL     1      90.529 101.448 -41.145  1.00  0.00    -0.320 N 
ATOM      8  H3  UNL     1      89.639 101.932 -41.034  1.00  0.00     0.169 HD
HETATM    9  C9  UNL     1      91.490 101.623 -40.308  1.00  0.00     0.079 C 
HETATM   10  C10 UNL     1      92.823 101.012 -40.319  1.00  0.00     0.078 C 
HETATM   11  C11 UNL     1      93.663 101.953 -39.484  1.00  0.00     0.027 C 
HETATM   12  C12 UNL     1      92.731 102.820 -38.703  1.00  0.00     0.121 C 
HETATM   13  N4  UNL     1      91.401 102.487 -39.176  1.00  0.00    -0.380 N 
ATOM     14  H4  UNL     1      90.531 102.821 -38.761  1.00  0.00     0.160 HD
ENDROOT
BRANCH   5  15
HETATM   15  C3  UNL     1      89.695  98.724 -44.543  1.00  0.00     0.135 C 
BRANCH  15  16
HETATM   16  C4  UNL     1      88.256  98.281 -44.369  1.00  0.00     0.133 C 
HETATM   17  C5  UNL     1      87.601  98.071 -45.684  1.00  0.00     0.048 C 
HETATM   18  C6  UNL     1      86.115  98.128 -45.698  1.00  0.00     0.063 C 
HETATM   19 BR1  UNL     1      85.366  96.357 -46.049  1.00  0.00    -0.091 Br
HETATM   20  C7  UNL     1      85.493  98.619 -44.436  1.00  0.00     0.059 C 
HETATM   21  C8  UNL     1      86.435  99.611 -43.797  1.00  0.00     0.194 C 
HETATM   22 BR2  UNL     1      86.546 101.204 -44.909  1.00  0.00    -0.061 Br
HETATM   23  O2  UNL     1      87.642  99.094 -43.482  1.00  0.00    -0.369 OA
ENDBRANCH  15  16
ENDBRANCH   5  15
TORSDOF 2
ENDMDL
