MODEL 1
REMARK VINA RESULT: -7.245516873      0.000      0.000
REMARK  7 active torsions:
REMARK  status: ('A' for Active; 'I' for Inactive)
REMARK    1  A    between atoms: N1_2  and  C2_3 
REMARK       I    between atoms: N1_2  and  C13_23 
REMARK    2  A    between atoms: C2_3  and  C3_4 
REMARK    3  A    between atoms: C6_7  and  C7_8 
REMARK    4  A    between atoms: C10_11  and  N2_12 
REMARK    5  A    between atoms: N2_12  and  S1_14 
REMARK    6  A    between atoms: C13_23  and  C14_25 
REMARK    7  A    between atoms: C18_29  and  C19_30 
REMARK       I    between atoms: C19_30  and  N5_32 
ROOT
HETATM    1  C3  UNL     1      89.484 100.419 -44.941  1.00  0.00     0.027 A 
HETATM    2  C4  UNL     1      88.527 101.352 -44.657  1.00  0.00     0.029 A 
HETATM    3  C5  UNL     1      88.970 101.961 -43.474  1.00  0.00     0.032 A 
HETATM    4  C6  UNL     1      90.150 101.396 -43.086  1.00  0.00     0.044 A 
HETATM    5  N4  UNL     1      90.446 100.452 -44.002  1.00  0.00    -0.357 N 
ATOM      6  H4  UNL     1      91.272  99.854 -43.985  1.00  0.00     0.166 HD
ENDROOT
BRANCH   1   7
HETATM    7  C2  UNL     1      89.533  99.486 -46.095  1.00  0.00     0.182 C 
BRANCH   7   8
HETATM    8  N1  UNL     1      89.719  98.142 -45.605  1.00  0.00    -0.347 N 
HETATM    9  C1  UNL     1      88.510  97.415 -45.207  1.00  0.00     0.153 C 
HETATM   10  C13 UNL     1      91.009  97.563 -45.499  1.00  0.00     0.255 C 
HETATM   11  O3  UNL     1      91.995  98.224 -45.864  1.00  0.00    -0.267 OA
BRANCH  10  12
HETATM   12  C14 UNL     1      91.123  96.211 -44.959  1.00  0.00     0.050 A 
HETATM   13  C15 UNL     1      91.009  95.150 -45.865  1.00  0.00     0.018 A 
HETATM   14  C16 UNL     1      91.131  93.884 -45.338  1.00  0.00     0.002 A 
HETATM   15  C17 UNL     1      91.354  93.672 -43.997  1.00  0.00     0.018 A 
HETATM   16  C18 UNL     1      91.468  94.720 -43.107  1.00  0.00     0.050 A 
HETATM   17  C21 UNL     1      91.348  95.994 -43.611  1.00  0.00     0.042 A 
HETATM   18 BR1  UNL     1      91.495  97.463 -42.385  1.00  0.00    -0.049 Br
BRANCH  16  19
HETATM   19  C19 UNL     1      91.717  94.458 -41.677  1.00  0.00     0.259 C 
HETATM   20  O4  UNL     1      90.753  94.550 -40.875  1.00  0.00    -0.267 OA
HETATM   21  N5  UNL     1      92.986  94.115 -41.194  1.00  0.00    -0.299 N 
HETATM   22  C20 UNL     1      93.501  92.923 -41.223  1.00  0.00     0.203 C 
ATOM     23  H5  UNL     1      93.551  94.860 -40.787  1.00  0.00     0.171 HD
HETATM   24  N6  UNL     1      92.709  91.900 -41.789  1.00  0.00    -0.066 NA
HETATM   25  N7  UNL     1      94.808  92.683 -40.705  1.00  0.00    -0.066 NA
ENDBRANCH  16  19
ENDBRANCH  10  12
ENDBRANCH   7   8
ENDBRANCH   1   7
BRANCH   4  26
HETATM   26  C7  UNL     1      90.949 101.747 -41.927  1.00  0.00     0.006 A 
HETATM   27  C8  UNL     1      90.386 101.965 -40.687  1.00  0.00     0.019 A 
HETATM   28  C9  UNL     1      91.133 102.298 -39.582  1.00  0.00     0.050 A 
HETATM   29  C10 UNL     1      92.484 102.429 -39.679  1.00  0.00     0.114 A 
HETATM   30  N3  UNL     1      93.042 102.213 -40.910  1.00  0.00    -0.351 N 
HETATM   31  C12 UNL     1      92.321 101.890 -41.980  1.00  0.00     0.103 A 
ATOM     32  H3  UNL     1      94.053 102.304 -41.011  1.00  0.00     0.166 HD
BRANCH  29  33
HETATM   33  N2  UNL     1      93.267 102.738 -38.694  1.00  0.00    -0.270 N 
ATOM     34  H2  UNL     1      93.194 102.230 -37.813  1.00  0.00     0.180 HD
BRANCH  33  35
HETATM   35  S1  UNL     1      94.415 103.986 -38.853  1.00  0.00     0.228 S 
HETATM   36  C11 UNL     1      94.887 104.604 -37.267  1.00  0.00     0.186 C 
HETATM   37  O1  UNL     1      95.628 103.423 -39.580  1.00  0.00    -0.206 OA
HETATM   38  O2  UNL     1      93.806 105.096 -39.680  1.00  0.00    -0.206 OA
ENDBRANCH  33  35
ENDBRANCH  29  33
ENDBRANCH   4  26
TORSDOF 7
ENDMDL
MODEL 2
REMARK VINA RESULT: -7.104325820      1.070      1.505
REMARK  7 active torsions:
REMARK  status: ('A' for Active; 'I' for Inactive)
REMARK    1  A    between atoms: N1_2  and  C2_3 
REMARK       I    between atoms: N1_2  and  C13_23 
REMARK    2  A    between atoms: C2_3  and  C3_4 
REMARK    3  A    between atoms: C6_7  and  C7_8 
REMARK    4  A    between atoms: C10_11  and  N2_12 
REMARK    5  A    between atoms: N2_12  and  S1_14 
REMARK    6  A    between atoms: C13_23  and  C14_25 
REMARK    7  A    between atoms: C18_29  and  C19_30 
REMARK       I    between atoms: C19_30  and  N5_32 
ROOT
HETATM    1  C3  UNL     1      89.893 100.536 -44.705  1.00  0.00     0.027 A 
HETATM    2  C4  UNL     1      89.026 101.323 -44.001  1.00  0.00     0.029 A 
HETATM    3  C5  UNL     1      89.836 101.999 -43.077  1.00  0.00     0.032 A 
HETATM    4  C6  UNL     1      91.134 101.612 -43.242  1.00  0.00     0.044 A 
HETATM    5  N4  UNL     1      91.144 100.713 -44.247  1.00  0.00    -0.357 N 
ATOM      6  H4  UNL     1      91.975 100.240 -44.604  1.00  0.00     0.166 HD
ENDROOT
BRANCH   1   7
HETATM    7  C2  UNL     1      89.581  99.610 -45.824  1.00  0.00     0.182 C 
BRANCH   7   8
HETATM    8  N1  UNL     1      89.756  98.252 -45.371  1.00  0.00    -0.347 N 
HETATM    9  C1  UNL     1      88.564  97.572 -44.856  1.00  0.00     0.153 C 
HETATM   10  C13 UNL     1      91.022  97.615 -45.410  1.00  0.00     0.255 C 
HETATM   11  O3  UNL     1      91.993  98.237 -45.870  1.00  0.00    -0.267 OA
BRANCH  10  12
HETATM   12  C14 UNL     1      91.131  96.249 -44.902  1.00  0.00     0.050 A 
HETATM   13  C15 UNL     1      91.013  95.210 -45.832  1.00  0.00     0.018 A 
HETATM   14  C16 UNL     1      91.129  93.932 -45.335  1.00  0.00     0.002 A 
HETATM   15  C17 UNL     1      91.351  93.688 -43.999  1.00  0.00     0.018 A 
HETATM   16  C18 UNL     1      91.467  94.715 -43.084  1.00  0.00     0.050 A 
HETATM   17  C21 UNL     1      91.353  96.001 -43.559  1.00  0.00     0.042 A 
HETATM   18 BR1  UNL     1      91.505  97.441 -42.299  1.00  0.00    -0.049 Br
BRANCH  16  19
HETATM   19  C19 UNL     1      91.714  94.419 -41.661  1.00  0.00     0.259 C 
HETATM   20  O4  UNL     1      90.753  94.507 -40.856  1.00  0.00    -0.267 OA
HETATM   21  N5  UNL     1      92.979  94.048 -41.187  1.00  0.00    -0.299 N 
HETATM   22  C20 UNL     1      93.477  92.850 -41.242  1.00  0.00     0.203 C 
ATOM     23  H5  UNL     1      93.555  94.776 -40.764  1.00  0.00     0.171 HD
HETATM   24  N6  UNL     1      92.671  91.850 -41.829  1.00  0.00    -0.066 NA
HETATM   25  N7  UNL     1      94.782  92.580 -40.731  1.00  0.00    -0.066 NA
ENDBRANCH  16  19
ENDBRANCH  10  12
ENDBRANCH   7   8
ENDBRANCH   1   7
BRANCH   4  26
HETATM   26  C7  UNL     1      92.289 102.083 -42.500  1.00  0.00     0.006 A 
HETATM   27  C8  UNL     1      93.392 102.624 -43.126  1.00  0.00     0.019 A 
HETATM   28  C9  UNL     1      94.491 103.073 -42.435  1.00  0.00     0.050 A 
HETATM   29  C10 UNL     1      94.528 102.994 -41.077  1.00  0.00     0.114 A 
HETATM   30  N3  UNL     1      93.433 102.456 -40.456  1.00  0.00    -0.351 N 
HETATM   31  C12 UNL     1      92.369 102.022 -41.123  1.00  0.00     0.103 A 
ATOM     32  H3  UNL     1      93.435 102.386 -39.438  1.00  0.00     0.166 HD
BRANCH  29  33
HETATM   33  N2  UNL     1      95.519 103.391 -40.342  1.00  0.00    -0.270 N 
ATOM     34  H2  UNL     1      96.469 103.109 -40.582  1.00  0.00     0.180 HD
BRANCH  33  35
HETATM   35  S1  UNL     1      95.253 104.379 -38.980  1.00  0.00     0.228 S 
HETATM   36  C11 UNL     1      96.708 105.303 -38.588  1.00  0.00     0.186 C 
HETATM   37  O1  UNL     1      94.102 105.322 -39.297  1.00  0.00    -0.206 OA
HETATM   38  O2  UNL     1      94.873 103.495 -37.814  1.00  0.00    -0.206 OA
ENDBRANCH  33  35
ENDBRANCH  29  33
ENDBRANCH   4  26
TORSDOF 7
ENDMDL
MODEL 3
REMARK VINA RESULT: -6.853043686      1.384      1.654
REMARK  7 active torsions:
REMARK  status: ('A' for Active; 'I' for Inactive)
REMARK    1  A    between atoms: N1_2  and  C2_3 
REMARK       I    between atoms: N1_2  and  C13_23 
REMARK    2  A    between atoms: C2_3  and  C3_4 
REMARK    3  A    between atoms: C6_7  and  C7_8 
REMARK    4  A    between atoms: C10_11  and  N2_12 
REMARK    5  A    between atoms: N2_12  and  S1_14 
REMARK    6  A    between atoms: C13_23  and  C14_25 
REMARK    7  A    between atoms: C18_29  and  C19_30 
REMARK       I    between atoms: C19_30  and  N5_32 
ROOT
HETATM    1  C3  UNL     1      89.613 101.112 -43.879  1.00  0.00     0.027 A 
HETATM    2  C4  UNL     1      88.598 101.759 -43.233  1.00  0.00     0.029 A 
HETATM    3  C5  UNL     1      89.203 102.319 -42.099  1.00  0.00     0.032 A 
HETATM    4  C6  UNL     1      90.530 102.005 -42.090  1.00  0.00     0.044 A 
HETATM    5  N4  UNL     1      90.759 101.262 -43.192  1.00  0.00    -0.357 N 
ATOM      6  H4  UNL     1      91.663 100.875 -43.463  1.00  0.00     0.166 HD
ENDROOT
BRANCH   1   7
HETATM    7  C2  UNL     1      89.544 100.350 -45.152  1.00  0.00     0.182 C 
BRANCH   7   8
HETATM    8  N1  UNL     1      89.687  98.943 -44.865  1.00  0.00    -0.347 N 
HETATM    9  C1  UNL     1      88.471  98.225 -44.474  1.00  0.00     0.153 C 
HETATM   10  C13 UNL     1      90.946  98.295 -44.941  1.00  0.00     0.255 C 
HETATM   11  O3  UNL     1      91.940  98.953 -45.291  1.00  0.00    -0.267 OA
BRANCH  10  12
HETATM   12  C14 UNL     1      91.021  96.876 -44.602  1.00  0.00     0.050 A 
HETATM   13  C15 UNL     1      90.833  95.959 -45.642  1.00  0.00     0.018 A 
HETATM   14  C16 UNL     1      90.918  94.628 -45.303  1.00  0.00     0.002 A 
HETATM   15  C17 UNL     1      91.176  94.220 -44.014  1.00  0.00     0.018 A 
HETATM   16  C18 UNL     1      91.362  95.127 -42.991  1.00  0.00     0.050 A 
HETATM   17  C21 UNL     1      91.279  96.463 -43.307  1.00  0.00     0.042 A 
HETATM   18 BR1  UNL     1      91.528  97.737 -41.893  1.00  0.00    -0.049 Br
BRANCH  16  19
HETATM   19  C19 UNL     1      91.646  94.656 -41.622  1.00  0.00     0.259 C 
HETATM   20  O4  UNL     1      90.727  94.715 -40.767  1.00  0.00    -0.267 OA
HETATM   21  N5  UNL     1      92.900  94.152 -41.254  1.00  0.00    -0.299 N 
HETATM   22  C20 UNL     1      93.309  92.937 -41.465  1.00  0.00     0.203 C 
ATOM     23  H5  UNL     1      93.542  94.788 -40.783  1.00  0.00     0.171 HD
HETATM   24  N6  UNL     1      92.411  92.066 -42.119  1.00  0.00    -0.066 NA
HETATM   25  N7  UNL     1      94.612  92.527 -41.051  1.00  0.00    -0.066 NA
ENDBRANCH  16  19
ENDBRANCH  10  12
ENDBRANCH   7   8
ENDBRANCH   1   7
BRANCH   4  26
HETATM   26  C7  UNL     1      91.517 102.401 -41.102  1.00  0.00     0.006 A 
HETATM   27  C8  UNL     1      92.474 101.527 -40.630  1.00  0.00     0.019 A 
HETATM   28  C9  UNL     1      93.413 101.890 -39.695  1.00  0.00     0.050 A 
HETATM   29  C10 UNL     1      93.428 103.154 -39.192  1.00  0.00     0.114 A 
HETATM   30  N3  UNL     1      92.478 104.021 -39.660  1.00  0.00    -0.351 N 
HETATM   31  C12 UNL     1      91.569 103.671 -40.565  1.00  0.00     0.103 A 
ATOM     32  H3  UNL     1      92.467 104.975 -39.300  1.00  0.00     0.166 HD
BRANCH  29  33
HETATM   33  N2  UNL     1      94.274 103.585 -38.310  1.00  0.00    -0.270 N 
ATOM     34  H2  UNL     1      95.186 103.929 -38.611  1.00  0.00     0.180 HD
BRANCH  33  35
HETATM   35  S1  UNL     1      93.881 103.585 -36.653  1.00  0.00     0.228 S 
HETATM   36  C11 UNL     1      94.583 104.991 -35.846  1.00  0.00     0.186 C 
HETATM   37  O1  UNL     1      92.365 103.608 -36.525  1.00  0.00    -0.206 OA
HETATM   38  O2  UNL     1      94.417 102.313 -36.034  1.00  0.00    -0.206 OA
ENDBRANCH  33  35
ENDBRANCH  29  33
ENDBRANCH   4  26
TORSDOF 7
ENDMDL
MODEL 4
REMARK VINA RESULT: -6.625221366      1.856      2.252
REMARK  7 active torsions:
REMARK  status: ('A' for Active; 'I' for Inactive)
REMARK    1  A    between atoms: N1_2  and  C2_3 
REMARK       I    between atoms: N1_2  and  C13_23 
REMARK    2  A    between atoms: C2_3  and  C3_4 
REMARK    3  A    between atoms: C6_7  and  C7_8 
REMARK    4  A    between atoms: C10_11  and  N2_12 
REMARK    5  A    between atoms: N2_12  and  S1_14 
REMARK    6  A    between atoms: C13_23  and  C14_25 
REMARK    7  A    between atoms: C18_29  and  C19_30 
REMARK       I    between atoms: C19_30  and  N5_32 
ROOT
HETATM    1  C3  UNL     1      90.316 101.317 -43.202  1.00  0.00     0.027 A 
HETATM    2  C4  UNL     1      89.591 101.682 -42.103  1.00  0.00     0.029 A 
HETATM    3  C5  UNL     1      90.532 102.251 -41.233  1.00  0.00     0.032 A 
HETATM    4  C6  UNL     1      91.767 102.216 -41.813  1.00  0.00     0.044 A 
HETATM    5  N4  UNL     1      91.610 101.637 -43.021  1.00  0.00    -0.357 N 
ATOM      6  H4  UNL     1      92.357 101.469 -43.694  1.00  0.00     0.166 HD
ENDROOT
BRANCH   1   7
HETATM    7  C2  UNL     1      89.825 100.673 -44.446  1.00  0.00     0.182 C 
BRANCH   7   8
HETATM    8  N1  UNL     1      89.886  99.241 -44.289  1.00  0.00    -0.347 N 
HETATM    9  C1  UNL     1      88.656  98.575 -43.849  1.00  0.00     0.153 C 
HETATM   10  C13 UNL     1      91.081  98.518 -44.534  1.00  0.00     0.255 C 
HETATM   11  O3  UNL     1      92.087  99.135 -44.918  1.00  0.00    -0.267 OA
BRANCH  10  12
HETATM   12  C14 UNL     1      91.078  97.073 -44.320  1.00  0.00     0.050 A 
HETATM   13  C15 UNL     1      90.810  96.263 -45.430  1.00  0.00     0.018 A 
HETATM   14  C16 UNL     1      90.823  94.905 -45.208  1.00  0.00     0.002 A 
HETATM   15  C17 UNL     1      91.085  94.371 -43.967  1.00  0.00     0.018 A 
HETATM   16  C18 UNL     1      91.350  95.173 -42.876  1.00  0.00     0.050 A 
HETATM   17  C21 UNL     1      91.341  96.533 -43.073  1.00  0.00     0.042 A 
HETATM   18 BR1  UNL     1      91.699  97.663 -41.563  1.00  0.00    -0.049 Br
BRANCH  16  19
HETATM   19  C19 UNL     1      91.636  94.568 -41.561  1.00  0.00     0.259 C 
HETATM   20  O4  UNL     1      90.711  94.515 -40.713  1.00  0.00    -0.267 OA
HETATM   21  N5  UNL     1      92.900  94.059 -41.236  1.00  0.00    -0.299 N 
HETATM   22  C20 UNL     1      93.342  92.884 -41.569  1.00  0.00     0.203 C 
ATOM     23  H5  UNL     1      93.523  94.658 -40.695  1.00  0.00     0.171 HD
HETATM   24  N6  UNL     1      92.470  92.064 -42.319  1.00  0.00    -0.066 NA
HETATM   25  N7  UNL     1      94.651  92.464 -41.189  1.00  0.00    -0.066 NA
ENDBRANCH  16  19
ENDBRANCH  10  12
ENDBRANCH   7   8
ENDBRANCH   1   7
BRANCH   4  26
HETATM   26  C7  UNL     1      93.010 102.716 -41.256  1.00  0.00     0.006 A 
HETATM   27  C8  UNL     1      93.137 103.043 -39.922  1.00  0.00     0.019 A 
HETATM   28  C9  UNL     1      94.309 103.518 -39.384  1.00  0.00     0.050 A 
HETATM   29  C10 UNL     1      95.407 103.686 -40.169  1.00  0.00     0.114 A 
HETATM   30  N3  UNL     1      95.280 103.361 -41.492  1.00  0.00    -0.351 N 
HETATM   31  C12 UNL     1      94.148 102.901 -42.015  1.00  0.00     0.103 A 
ATOM     32  H3  UNL     1      96.089 103.477 -42.103  1.00  0.00     0.166 HD
BRANCH  29  33
HETATM   33  N2  UNL     1      96.551 104.126 -39.750  1.00  0.00    -0.270 N 
ATOM     34  H2  UNL     1      97.018 103.659 -38.972  1.00  0.00     0.180 HD
BRANCH  33  35
HETATM   35  S1  UNL     1      97.286 105.477 -40.482  1.00  0.00     0.228 S 
HETATM   36  C11 UNL     1      96.352 106.943 -40.164  1.00  0.00     0.186 C 
HETATM   37  O1  UNL     1      98.692 105.617 -39.916  1.00  0.00    -0.206 OA
HETATM   38  O2  UNL     1      97.367 105.230 -41.971  1.00  0.00    -0.206 OA
ENDBRANCH  33  35
ENDBRANCH  29  33
ENDBRANCH   4  26
TORSDOF 7
ENDMDL
MODEL 5
REMARK VINA RESULT: -6.315797481      2.776      8.125
REMARK  7 active torsions:
REMARK  status: ('A' for Active; 'I' for Inactive)
REMARK    1  A    between atoms: N1_2  and  C2_3 
REMARK       I    between atoms: N1_2  and  C13_23 
REMARK    2  A    between atoms: C2_3  and  C3_4 
REMARK    3  A    between atoms: C6_7  and  C7_8 
REMARK    4  A    between atoms: C10_11  and  N2_12 
REMARK    5  A    between atoms: N2_12  and  S1_14 
REMARK    6  A    between atoms: C13_23  and  C14_25 
REMARK    7  A    between atoms: C18_29  and  C19_30 
REMARK       I    between atoms: C19_30  and  N5_32 
ROOT
HETATM    1  C3  UNL     1      89.492 100.596 -45.903  1.00  0.00     0.027 A 
HETATM    2  C4  UNL     1      88.225 100.086 -45.944  1.00  0.00     0.029 A 
HETATM    3  C5  UNL     1      88.368  98.755 -45.526  1.00  0.00     0.032 A 
HETATM    4  C6  UNL     1      89.680  98.503 -45.251  1.00  0.00     0.044 A 
HETATM    5  N4  UNL     1      90.351  99.648 -45.491  1.00  0.00    -0.357 N 
ATOM      6  H4  UNL     1      91.357  99.775 -45.376  1.00  0.00     0.166 HD
ENDROOT
BRANCH   1   7
HETATM    7  C2  UNL     1      89.930 101.975 -46.235  1.00  0.00     0.182 C 
BRANCH   7   8
HETATM    8  N1  UNL     1      90.636 102.528 -45.105  1.00  0.00    -0.347 N 
HETATM    9  C1  UNL     1      89.858 103.372 -44.193  1.00  0.00     0.153 C 
HETATM   10  C13 UNL     1      92.016 102.279 -44.898  1.00  0.00     0.255 C 
HETATM   11  O3  UNL     1      92.620 101.545 -45.698  1.00  0.00    -0.267 OA
BRANCH  10  12
HETATM   12  C14 UNL     1      92.673 102.902 -43.751  1.00  0.00     0.050 A 
HETATM   13  C15 UNL     1      93.349 104.106 -43.978  1.00  0.00     0.018 A 
HETATM   14  C16 UNL     1      93.951 104.681 -42.883  1.00  0.00     0.002 A 
HETATM   15  C17 UNL     1      93.891 104.107 -41.633  1.00  0.00     0.018 A 
HETATM   16  C18 UNL     1      93.223 102.920 -41.413  1.00  0.00     0.050 A 
HETATM   17  C21 UNL     1      92.614 102.327 -42.494  1.00  0.00     0.042 A 
HETATM   18 BR1  UNL     1      91.687 100.671 -42.206  1.00  0.00    -0.049 Br
BRANCH  16  19
HETATM   19  C19 UNL     1      93.170 102.337 -40.059  1.00  0.00     0.259 C 
HETATM   20  O4  UNL     1      94.177 101.716 -39.636  1.00  0.00    -0.267 OA
HETATM   21  N5  UNL     1      92.037 102.453 -39.243  1.00  0.00    -0.299 N 
HETATM   22  C20 UNL     1      91.744 103.487 -38.514  1.00  0.00     0.203 C 
ATOM     23  H5  UNL     1      91.392 101.664 -39.219  1.00  0.00     0.171 HD
HETATM   24  N6  UNL     1      92.644 104.574 -38.556  1.00  0.00    -0.066 NA
HETATM   25  N7  UNL     1      90.559 103.503 -37.719  1.00  0.00    -0.066 NA
ENDBRANCH  16  19
ENDBRANCH  10  12
ENDBRANCH   7   8
ENDBRANCH   1   7
BRANCH   4  26
HETATM   26  C7  UNL     1      90.252  97.257 -44.776  1.00  0.00     0.006 A 
HETATM   27  C8  UNL     1      90.310  96.129 -45.567  1.00  0.00     0.019 A 
HETATM   28  C9  UNL     1      90.849  94.943 -45.129  1.00  0.00     0.050 A 
HETATM   29  C10 UNL     1      91.352  94.841 -43.869  1.00  0.00     0.114 A 
HETATM   30  N3  UNL     1      91.293  95.961 -43.084  1.00  0.00    -0.351 N 
HETATM   31  C12 UNL     1      90.773  97.109 -43.507  1.00  0.00     0.103 A 
ATOM     32  H3  UNL     1      91.664  95.913 -42.135  1.00  0.00     0.166 HD
BRANCH  29  33
HETATM   33  N2  UNL     1      91.878  93.767 -43.370  1.00  0.00    -0.270 N 
ATOM     34  H2  UNL     1      92.161  93.009 -43.991  1.00  0.00     0.180 HD
BRANCH  33  35
HETATM   35  S1  UNL     1      92.103  93.606 -41.689  1.00  0.00     0.228 S 
HETATM   36  C11 UNL     1      92.373  91.915 -41.256  1.00  0.00     0.186 C 
HETATM   37  O1  UNL     1      93.304  94.450 -41.288  1.00  0.00    -0.206 OA
HETATM   38  O2  UNL     1      90.868  94.128 -40.989  1.00  0.00    -0.206 OA
ENDBRANCH  33  35
ENDBRANCH  29  33
ENDBRANCH   4  26
TORSDOF 7
ENDMDL
