MODEL 1
REMARK VINA RESULT: -6.484314815      0.000      0.000
REMARK  8 active torsions:
REMARK  status: ('A' for Active; 'I' for Inactive)
REMARK    1  A    between atoms: C2_2  and  C4_4 
REMARK    2  A    between atoms: C9_9  and  C10_10 
REMARK    3  A    between atoms: C16_18  and  C17_19 
REMARK    4  A    between atoms: C17_19  and  N2_20 
REMARK    5  A    between atoms: N2_20  and  C19_22 
REMARK    6  A    between atoms: N2_20  and  C21_25 
REMARK    7  A    between atoms: C19_22  and  C20_23 
REMARK    8  A    between atoms: C27_31  and  O1_32 
ROOT
HETATM    1  C10 UNL     1      89.051  99.505 -44.370  1.00  0.00     0.047 C 
HETATM    2  C11 UNL     1      89.993  99.373 -43.491  1.00  0.00     0.104 A 
HETATM    3  N1  UNL     1      90.464 100.530 -42.813  1.00  0.00    -0.335 N 
ATOM      4  H1  UNL     1      90.084 101.438 -43.078  1.00  0.00     0.168 HD
HETATM    5  C12 UNL     1      91.495 100.475 -41.726  1.00  0.00     0.148 A 
HETATM    6  C13 UNL     1      91.598 101.704 -41.256  1.00  0.00     0.080 A 
HETATM    7  C14 UNL     1      91.706 102.827 -40.812  1.00  0.00     0.034 A 
HETATM    8  C15 UNL     1      92.387 103.834 -40.249  1.00  0.00     0.020 A 
HETATM    9  C16 UNL     1      93.755 103.528 -39.976  1.00  0.00     0.039 A 
HETATM   10  C27 UNL     1      93.985 102.247 -40.376  1.00  0.00     0.152 A 
HETATM   11  N3  UNL     1      93.205 101.384 -40.916  1.00  0.00    -0.333 N 
ATOM     12  H3  UNL     1      93.580 100.465 -41.149  1.00  0.00     0.168 HD
HETATM   13  N4  UNL     1      91.943  99.260 -41.439  1.00  0.00    -0.281 N 
ATOM     14  H4  UNL     1      92.640  99.188 -40.698  1.00  0.00     0.188 HD
HETATM   15  N5  UNL     1      91.545  98.056 -42.063  1.00  0.00    -0.263 N 
ATOM     16  H5  UNL     1      91.948  97.162 -41.780  1.00  0.00     0.190 HD
HETATM   17  C28 UNL     1      90.580  98.122 -43.084  1.00  0.00     0.286 A 
HETATM   18  O2  UNL     1      90.220  97.059 -43.652  1.00  0.00    -0.264 OA
ENDROOT
BRANCH  10  19
HETATM   19  O1  UNL     1      95.206 101.795 -40.183  1.00  0.00    -0.345 OA
ATOM     20  H1  UNL     1      95.373 100.910 -40.485  1.00  0.00     0.219 HD
ENDBRANCH  10  19
BRANCH   9  21
HETATM   21  C17 UNL     1      94.489 104.424 -39.465  1.00  0.00     0.224 C 
BRANCH  21  22
HETATM   22  N2  UNL     1      94.900 104.869 -38.235  1.00  0.00    -0.019 N 
HETATM   23  C18 UNL     1      96.298 104.673 -37.888  1.00  0.00     0.285 C 
BRANCH  22  24
HETATM   24  C19 UNL     1      94.725 106.355 -38.155  1.00  0.00     0.260 C 
BRANCH  24  25
HETATM   25  C20 UNL     1      94.782 107.016 -39.469  1.00  0.00     0.114 C 
HETATM   26 BR1  UNL     1      93.029 107.865 -39.722  1.00  0.00    -0.095 Br
ENDBRANCH  24  25
ENDBRANCH  22  24
BRANCH  22  27
HETATM   27  C21 UNL     1      94.071 104.424 -37.173  1.00  0.00     0.141 A 
HETATM   28  C22 UNL     1      92.930 105.087 -36.839  1.00  0.00     0.038 A 
HETATM   29  C23 UNL     1      92.138 104.634 -35.796  1.00  0.00     0.002 A 
HETATM   30  C24 UNL     1      92.509 103.500 -35.082  1.00  0.00     0.000 A 
HETATM   31  C25 UNL     1      93.672 102.803 -35.405  1.00  0.00     0.002 A 
HETATM   32  C26 UNL     1      94.411 103.286 -36.434  1.00  0.00     0.038 A 
ENDBRANCH  22  27
ENDBRANCH  21  22
ENDBRANCH   9  21
BRANCH   1  33
HETATM   33  C9  UNL     1      88.391  98.569 -45.212  1.00  0.00    -0.027 A 
HETATM   34  C4  UNL     1      87.093  98.162 -45.058  1.00  0.00    -0.044 A 
HETATM   35  C5  UNL     1      86.522  97.393 -46.072  1.00  0.00     0.008 A 
HETATM   36  C6  UNL     1      87.174  97.013 -47.203  1.00  0.00     0.001 A 
HETATM   37  C7  UNL     1      88.496  97.418 -47.363  1.00  0.00     0.001 A 
HETATM   38  C8  UNL     1      89.076  98.175 -46.398  1.00  0.00     0.012 A 
BRANCH  34  39
HETATM   39  C2  UNL     1      86.254  98.486 -43.884  1.00  0.00     0.011 C 
HETATM   40  C1  UNL     1      85.621  99.884 -44.069  1.00  0.00     0.015 C 
HETATM   41  C3  UNL     1      85.069  97.569 -43.686  1.00  0.00     0.015 C 
ENDBRANCH  34  39
ENDBRANCH   1  33
TORSDOF 8
ENDMDL
MODEL 2
REMARK VINA RESULT: -6.381723873      1.192      2.430
REMARK  8 active torsions:
REMARK  status: ('A' for Active; 'I' for Inactive)
REMARK    1  A    between atoms: C2_2  and  C4_4 
REMARK    2  A    between atoms: C9_9  and  C10_10 
REMARK    3  A    between atoms: C16_18  and  C17_19 
REMARK    4  A    between atoms: C17_19  and  N2_20 
REMARK    5  A    between atoms: N2_20  and  C19_22 
REMARK    6  A    between atoms: N2_20  and  C21_25 
REMARK    7  A    between atoms: C19_22  and  C20_23 
REMARK    8  A    between atoms: C27_31  and  O1_32 
ROOT
HETATM    1  C10 UNL     1      89.153  99.525 -44.391  1.00  0.00     0.047 C 
HETATM    2  C11 UNL     1      90.080  99.404 -43.494  1.00  0.00     0.104 A 
HETATM    3  N1  UNL     1      90.575 100.575 -42.860  1.00  0.00    -0.335 N 
ATOM      4  H1  UNL     1      90.225 101.481 -43.169  1.00  0.00     0.168 HD
HETATM    5  C12 UNL     1      91.590 100.537 -41.756  1.00  0.00     0.148 A 
HETATM    6  C13 UNL     1      91.722 101.783 -41.338  1.00  0.00     0.080 A 
HETATM    7  C14 UNL     1      91.858 102.921 -40.942  1.00  0.00     0.034 A 
HETATM    8  C15 UNL     1      92.560 103.931 -40.413  1.00  0.00     0.020 A 
HETATM    9  C16 UNL     1      93.915 103.598 -40.107  1.00  0.00     0.039 A 
HETATM   10  C27 UNL     1      94.113 102.295 -40.448  1.00  0.00     0.152 A 
HETATM   11  N3  UNL     1      93.316 101.432 -40.962  1.00  0.00    -0.333 N 
ATOM     12  H3  UNL     1      93.666 100.493 -41.149  1.00  0.00     0.168 HD
HETATM   13  N4  UNL     1      91.998  99.324 -41.412  1.00  0.00    -0.281 N 
ATOM     14  H4  UNL     1      92.683  99.265 -40.658  1.00  0.00     0.188 HD
HETATM   15  N5  UNL     1      91.574  98.106 -41.989  1.00  0.00    -0.263 N 
ATOM     16  H5  UNL     1      91.946  97.214 -41.662  1.00  0.00     0.190 HD
HETATM   17  C28 UNL     1      90.625  98.155 -43.025  1.00  0.00     0.286 A 
HETATM   18  O2  UNL     1      90.241  97.080 -43.552  1.00  0.00    -0.264 OA
ENDROOT
BRANCH  10  19
HETATM   19  O1  UNL     1      95.317 101.816 -40.219  1.00  0.00    -0.345 OA
ATOM     20  H1  UNL     1      95.404 100.871 -40.264  1.00  0.00     0.219 HD
ENDBRANCH  10  19
BRANCH   9  21
HETATM   21  C17 UNL     1      94.669 104.493 -39.624  1.00  0.00     0.224 C 
BRANCH  21  22
HETATM   22  N2  UNL     1      95.057 104.996 -38.410  1.00  0.00    -0.019 N 
HETATM   23  C18 UNL     1      94.765 106.396 -38.144  1.00  0.00     0.285 C 
BRANCH  22  24
HETATM   24  C19 UNL     1      94.336 104.275 -37.313  1.00  0.00     0.260 C 
BRANCH  24  25
HETATM   25  C20 UNL     1      93.257 105.074 -36.707  1.00  0.00     0.114 C 
HETATM   26 BR1  UNL     1      91.656 103.936 -36.751  1.00  0.00    -0.095 Br
ENDBRANCH  24  25
ENDBRANCH  22  24
BRANCH  22  27
HETATM   27  C21 UNL     1      96.412 104.717 -38.095  1.00  0.00     0.141 A 
HETATM   28  C22 UNL     1      97.346 104.553 -39.071  1.00  0.00     0.038 A 
HETATM   29  C23 UNL     1      98.664 104.279 -38.740  1.00  0.00     0.002 A 
HETATM   30  C24 UNL     1      99.036 104.167 -37.405  1.00  0.00     0.000 A 
HETATM   31  C25 UNL     1      98.099 104.332 -36.386  1.00  0.00     0.002 A 
HETATM   32  C26 UNL     1      96.824 104.600 -36.764  1.00  0.00     0.038 A 
ENDBRANCH  22  27
ENDBRANCH  21  22
ENDBRANCH   9  21
BRANCH   1  33
HETATM   33  C9  UNL     1      88.478  98.573 -45.202  1.00  0.00    -0.027 A 
HETATM   34  C4  UNL     1      87.178  98.180 -45.023  1.00  0.00    -0.044 A 
HETATM   35  C5  UNL     1      86.590  97.389 -46.011  1.00  0.00     0.008 A 
HETATM   36  C6  UNL     1      87.227  96.975 -47.138  1.00  0.00     0.001 A 
HETATM   37  C7  UNL     1      88.550  97.366 -47.322  1.00  0.00     0.001 A 
HETATM   38  C8  UNL     1      89.147  98.143 -46.384  1.00  0.00     0.012 A 
BRANCH  34  39
HETATM   39  C2  UNL     1      86.354  98.540 -43.849  1.00  0.00     0.011 C 
HETATM   40  C1  UNL     1      85.704  99.923 -44.077  1.00  0.00     0.015 C 
HETATM   41  C3  UNL     1      85.182  97.620 -43.596  1.00  0.00     0.015 C 
ENDBRANCH  34  39
ENDBRANCH   1  33
TORSDOF 8
ENDMDL
MODEL 3
REMARK VINA RESULT: -6.256817855      2.426      3.479
REMARK  8 active torsions:
REMARK  status: ('A' for Active; 'I' for Inactive)
REMARK    1  A    between atoms: C2_2  and  C4_4 
REMARK    2  A    between atoms: C9_9  and  C10_10 
REMARK    3  A    between atoms: C16_18  and  C17_19 
REMARK    4  A    between atoms: C17_19  and  N2_20 
REMARK    5  A    between atoms: N2_20  and  C19_22 
REMARK    6  A    between atoms: N2_20  and  C21_25 
REMARK    7  A    between atoms: C19_22  and  C20_23 
REMARK    8  A    between atoms: C27_31  and  O1_32 
ROOT
HETATM    1  C10 UNL     1      90.646  97.422 -43.525  1.00  0.00     0.047 C 
HETATM    2  C11 UNL     1      91.315  98.532 -43.535  1.00  0.00     0.104 A 
HETATM    3  N1  UNL     1      91.177  99.424 -42.437  1.00  0.00    -0.335 N 
ATOM      4  H1  UNL     1      90.514  99.189 -41.700  1.00  0.00     0.168 HD
HETATM    5  C12 UNL     1      91.964 100.695 -42.316  1.00  0.00     0.148 A 
HETATM    6  C13 UNL     1      91.665 101.198 -41.132  1.00  0.00     0.080 A 
HETATM    7  C14 UNL     1      91.402 101.677 -40.050  1.00  0.00     0.034 A 
HETATM    8  C15 UNL     1      91.223 102.697 -39.201  1.00  0.00     0.020 A 
HETATM    9  C16 UNL     1      91.428 103.983 -39.787  1.00  0.00     0.039 A 
HETATM   10  C27 UNL     1      91.767 103.798 -41.093  1.00  0.00     0.152 A 
HETATM   11  N3  UNL     1      91.900 102.724 -41.781  1.00  0.00    -0.333 N 
ATOM     12  H3  UNL     1      92.160 102.802 -42.764  1.00  0.00     0.168 HD
HETATM   13  N4  UNL     1      92.803 100.931 -43.314  1.00  0.00    -0.281 N 
ATOM     14  H4  UNL     1      93.359 101.784 -43.257  1.00  0.00     0.188 HD
HETATM   15  N5  UNL     1      93.002 100.113 -44.450  1.00  0.00    -0.263 N 
ATOM     16  H5  UNL     1      93.669 100.377 -45.175  1.00  0.00     0.190 HD
HETATM   17  C28 UNL     1      92.254  98.926 -44.553  1.00  0.00     0.286 A 
HETATM   18  O2  UNL     1      92.417  98.190 -45.560  1.00  0.00    -0.264 OA
ENDROOT
BRANCH  10  19
HETATM   19  O1  UNL     1      92.006 104.891 -41.786  1.00  0.00    -0.345 OA
ATOM     20  H1  UNL     1      92.866 104.949 -42.186  1.00  0.00     0.219 HD
ENDBRANCH  10  19
BRANCH   9  21
HETATM   21  C17 UNL     1      91.260 105.013 -39.071  1.00  0.00     0.224 C 
BRANCH  21  22
HETATM   22  N2  UNL     1      91.980 105.874 -38.285  1.00  0.00    -0.019 N 
HETATM   23  C18 UNL     1      91.927 107.288 -38.622  1.00  0.00     0.285 C 
BRANCH  22  24
HETATM   24  C19 UNL     1      91.458 105.830 -36.882  1.00  0.00     0.260 C 
BRANCH  24  25
HETATM   25  C20 UNL     1      90.048 105.411 -36.802  1.00  0.00     0.114 C 
HETATM   26 BR1  UNL     1      90.029 103.794 -35.687  1.00  0.00    -0.095 Br
ENDBRANCH  24  25
ENDBRANCH  22  24
BRANCH  22  27
HETATM   27  C21 UNL     1      93.329 105.472 -38.102  1.00  0.00     0.141 A 
HETATM   28  C22 UNL     1      94.313 105.892 -38.943  1.00  0.00     0.038 A 
HETATM   29  C23 UNL     1      95.622 105.483 -38.746  1.00  0.00     0.002 A 
HETATM   30  C24 UNL     1      95.936 104.638 -37.687  1.00  0.00     0.000 A 
HETATM   31  C25 UNL     1      94.946 104.196 -36.811  1.00  0.00     0.002 A 
HETATM   32  C26 UNL     1      93.682 104.624 -37.047  1.00  0.00     0.038 A 
ENDBRANCH  22  27
ENDBRANCH  21  22
ENDBRANCH   9  21
BRANCH   1  33
HETATM   33  C9  UNL     1      90.552  96.354 -44.457  1.00  0.00    -0.027 A 
HETATM   34  C4  UNL     1      89.845  96.403 -45.628  1.00  0.00    -0.044 A 
HETATM   35  C5  UNL     1      90.004  95.354 -46.535  1.00  0.00     0.008 A 
HETATM   36  C6  UNL     1      90.811  94.280 -46.327  1.00  0.00     0.001 A 
HETATM   37  C7  UNL     1      91.527  94.221 -45.136  1.00  0.00     0.001 A 
HETATM   38  C8  UNL     1      91.401  95.230 -44.238  1.00  0.00     0.012 A 
BRANCH  34  39
HETATM   39  C2  UNL     1      88.922  97.498 -45.999  1.00  0.00     0.011 C 
HETATM   40  C1  UNL     1      88.504  97.346 -47.478  1.00  0.00     0.015 C 
HETATM   41  C3  UNL     1      87.613  97.499 -45.244  1.00  0.00     0.015 C 
ENDBRANCH  34  39
ENDBRANCH   1  33
TORSDOF 8
ENDMDL
MODEL 4
REMARK VINA RESULT: -6.254702160      2.061      3.590
REMARK  8 active torsions:
REMARK  status: ('A' for Active; 'I' for Inactive)
REMARK    1  A    between atoms: C2_2  and  C4_4 
REMARK    2  A    between atoms: C9_9  and  C10_10 
REMARK    3  A    between atoms: C16_18  and  C17_19 
REMARK    4  A    between atoms: C17_19  and  N2_20 
REMARK    5  A    between atoms: N2_20  and  C19_22 
REMARK    6  A    between atoms: N2_20  and  C21_25 
REMARK    7  A    between atoms: C19_22  and  C20_23 
REMARK    8  A    between atoms: C27_31  and  O1_32 
ROOT
HETATM    1  C10 UNL     1      88.270 100.124 -43.196  1.00  0.00     0.047 C 
HETATM    2  C11 UNL     1      89.436  99.850 -42.704  1.00  0.00     0.104 A 
HETATM    3  N1  UNL     1      90.054 100.795 -41.842  1.00  0.00    -0.335 N 
ATOM      4  H1  UNL     1      89.585 101.686 -41.680  1.00  0.00     0.168 HD
HETATM    5  C12 UNL     1      91.367 100.542 -41.161  1.00  0.00     0.148 A 
HETATM    6  C13 UNL     1      91.569 101.574 -40.362  1.00  0.00     0.080 A 
HETATM    7  C14 UNL     1      91.772 102.513 -39.623  1.00  0.00     0.034 A 
HETATM    8  C15 UNL     1      92.561 103.378 -38.971  1.00  0.00     0.020 A 
HETATM    9  C16 UNL     1      93.956 103.178 -39.201  1.00  0.00     0.039 A 
HETATM   10  C27 UNL     1      94.093 102.118 -40.046  1.00  0.00     0.152 A 
HETATM   11  N3  UNL     1      93.213 101.370 -40.602  1.00  0.00    -0.333 N 
ATOM     12  H3  UNL     1      93.527 100.619 -41.216  1.00  0.00     0.168 HD
HETATM   13  N4  UNL     1      91.915  99.365 -41.423  1.00  0.00    -0.281 N 
ATOM     14  H4  UNL     1      92.805  99.159 -40.969  1.00  0.00     0.188 HD
HETATM   15  N5  UNL     1      91.385  98.367 -42.273  1.00  0.00    -0.263 N 
ATOM     16  H5  UNL     1      91.880  97.488 -42.420  1.00  0.00     0.190 HD
HETATM   17  C28 UNL     1      90.156  98.619 -42.908  1.00  0.00     0.286 A 
HETATM   18  O2  UNL     1      89.673  97.742 -43.670  1.00  0.00    -0.264 OA
ENDROOT
BRANCH  10  19
HETATM   19  O1  UNL     1      95.328 101.786 -40.356  1.00  0.00    -0.345 OA
ATOM     20  H1  UNL     1      95.684 102.192 -41.137  1.00  0.00     0.219 HD
ENDBRANCH  10  19
BRANCH   9  21
HETATM   21  C17 UNL     1      94.783 103.960 -38.648  1.00  0.00     0.224 C 
BRANCH  21  22
HETATM   22  N2  UNL     1      95.593 105.022 -38.957  1.00  0.00    -0.019 N 
HETATM   23  C18 UNL     1      95.655 106.114 -37.999  1.00  0.00     0.285 C 
BRANCH  22  24
HETATM   24  C19 UNL     1      97.014 104.559 -39.051  1.00  0.00     0.260 C 
BRANCH  24  25
HETATM   25  C20 UNL     1      97.715 104.577 -37.756  1.00  0.00     0.114 C 
HETATM   26 BR1  UNL     1      99.463 103.739 -38.078  1.00  0.00    -0.095 Br
ENDBRANCH  24  25
ENDBRANCH  22  24
BRANCH  22  27
HETATM   27  C21 UNL     1      95.370 105.535 -40.261  1.00  0.00     0.141 A 
HETATM   28  C22 UNL     1      94.388 106.445 -40.506  1.00  0.00     0.038 A 
HETATM   29  C23 UNL     1      94.188 106.930 -41.788  1.00  0.00     0.002 A 
HETATM   30  C24 UNL     1      94.990 106.486 -42.833  1.00  0.00     0.000 A 
HETATM   31  C25 UNL     1      96.004 105.556 -42.608  1.00  0.00     0.002 A 
HETATM   32  C26 UNL     1      96.159 105.113 -41.336  1.00  0.00     0.038 A 
ENDBRANCH  22  27
ENDBRANCH  21  22
ENDBRANCH   9  21
BRANCH   1  33
HETATM   33  C9  UNL     1      87.415  99.414 -44.083  1.00  0.00    -0.027 A 
HETATM   34  C4  UNL     1      87.560  99.381 -45.444  1.00  0.00    -0.044 A 
HETATM   35  C5  UNL     1      86.769  98.487 -46.166  1.00  0.00     0.008 A 
HETATM   36  C6  UNL     1      85.856  97.650 -45.606  1.00  0.00     0.001 A 
HETATM   37  C7  UNL     1      85.699  97.683 -44.224  1.00  0.00     0.001 A 
HETATM   38  C8  UNL     1      86.460  98.535 -43.493  1.00  0.00     0.012 A 
BRANCH  34  39
HETATM   39  C2  UNL     1      88.503 100.232 -46.201  1.00  0.00     0.011 C 
HETATM   40  C1  UNL     1      89.602  99.350 -46.836  1.00  0.00     0.015 C 
HETATM   41  C3  UNL     1      87.890 100.960 -47.375  1.00  0.00     0.015 C 
ENDBRANCH  34  39
ENDBRANCH   1  33
TORSDOF 8
ENDMDL
MODEL 5
REMARK VINA RESULT: -6.250224514      2.211      3.569
REMARK  8 active torsions:
REMARK  status: ('A' for Active; 'I' for Inactive)
REMARK    1  A    between atoms: C2_2  and  C4_4 
REMARK    2  A    between atoms: C9_9  and  C10_10 
REMARK    3  A    between atoms: C16_18  and  C17_19 
REMARK    4  A    between atoms: C17_19  and  N2_20 
REMARK    5  A    between atoms: N2_20  and  C19_22 
REMARK    6  A    between atoms: N2_20  and  C21_25 
REMARK    7  A    between atoms: C19_22  and  C20_23 
REMARK    8  A    between atoms: C27_31  and  O1_32 
ROOT
HETATM    1  C10 UNL     1      89.252  99.516 -44.349  1.00  0.00     0.047 C 
HETATM    2  C11 UNL     1      90.187  99.421 -43.457  1.00  0.00     0.104 A 
HETATM    3  N1  UNL     1      90.691 100.609 -42.864  1.00  0.00    -0.335 N 
ATOM      4  H1  UNL     1      90.341 101.507 -43.199  1.00  0.00     0.168 HD
HETATM    5  C12 UNL     1      91.716 100.604 -41.769  1.00  0.00     0.148 A 
HETATM    6  C13 UNL     1      91.855 101.861 -41.392  1.00  0.00     0.080 A 
HETATM    7  C14 UNL     1      91.998 103.010 -41.032  1.00  0.00     0.034 A 
HETATM    8  C15 UNL     1      92.708 104.035 -40.542  1.00  0.00     0.020 A 
HETATM    9  C16 UNL     1      94.064 103.707 -40.237  1.00  0.00     0.039 A 
HETATM   10  C27 UNL     1      94.255 102.393 -40.539  1.00  0.00     0.152 A 
HETATM   11  N3  UNL     1      93.450 101.517 -41.018  1.00  0.00    -0.333 N 
ATOM     12  H3  UNL     1      93.796 100.572 -41.179  1.00  0.00     0.168 HD
HETATM   13  N4  UNL     1      92.123  99.401 -41.390  1.00  0.00    -0.281 N 
ATOM     14  H4  UNL     1      92.814  99.363 -40.640  1.00  0.00     0.188 HD
HETATM   15  N5  UNL     1      91.690  98.166 -41.924  1.00  0.00    -0.263 N 
ATOM     16  H5  UNL     1      92.062  97.284 -41.573  1.00  0.00     0.190 HD
HETATM   17  C28 UNL     1      90.732  98.186 -42.954  1.00  0.00     0.286 A 
HETATM   18  O2  UNL     1      90.340  97.095 -43.442  1.00  0.00    -0.264 OA
ENDROOT
BRANCH  10  19
HETATM   19  O1  UNL     1      95.460 101.918 -40.305  1.00  0.00    -0.345 OA
ATOM     20  H1  UNL     1      96.032 101.849 -41.060  1.00  0.00     0.219 HD
ENDBRANCH  10  19
BRANCH   9  21
HETATM   21  C17 UNL     1      94.824 104.615 -39.790  1.00  0.00     0.224 C 
BRANCH  21  22
HETATM   22  N2  UNL     1      95.718 105.552 -40.238  1.00  0.00    -0.019 N 
HETATM   23  C18 UNL     1      95.640 106.881 -39.654  1.00  0.00     0.285 C 
BRANCH  22  24
HETATM   24  C19 UNL     1      97.113 105.111 -39.918  1.00  0.00     0.260 C 
BRANCH  24  25
HETATM   25  C20 UNL     1      97.268 104.645 -38.530  1.00  0.00     0.114 C 
HETATM   26 BR1  UNL     1      99.078 103.892 -38.413  1.00  0.00    -0.095 Br
ENDBRANCH  24  25
ENDBRANCH  22  24
BRANCH  22  27
HETATM   27  C21 UNL     1      95.765 105.649 -41.653  1.00  0.00     0.141 A 
HETATM   28  C22 UNL     1      94.954 106.507 -42.331  1.00  0.00     0.038 A 
HETATM   29  C23 UNL     1      95.017 106.583 -43.714  1.00  0.00     0.002 A 
HETATM   30  C24 UNL     1      95.907 105.778 -44.415  1.00  0.00     0.000 A 
HETATM   31  C25 UNL     1      96.749 104.892 -43.744  1.00  0.00     0.002 A 
HETATM   32  C26 UNL     1      96.650 104.857 -42.392  1.00  0.00     0.038 A 
ENDBRANCH  22  27
ENDBRANCH  21  22
ENDBRANCH   9  21
BRANCH   1  33
HETATM   33  C9  UNL     1      88.567  98.541 -45.124  1.00  0.00    -0.027 A 
HETATM   34  C4  UNL     1      87.266  98.164 -44.926  1.00  0.00    -0.044 A 
HETATM   35  C5  UNL     1      86.668  97.343 -45.884  1.00  0.00     0.008 A 
HETATM   36  C6  UNL     1      87.298  96.886 -46.998  1.00  0.00     0.001 A 
HETATM   37  C7  UNL     1      88.622  97.261 -47.201  1.00  0.00     0.001 A 
HETATM   38  C8  UNL     1      89.228  98.066 -46.293  1.00  0.00     0.012 A 
BRANCH  34  39
HETATM   39  C2  UNL     1      86.449  98.571 -43.762  1.00  0.00     0.011 C 
HETATM   40  C1  UNL     1      85.890  99.993 -43.993  1.00  0.00     0.015 C 
HETATM   41  C3  UNL     1      85.218  97.725 -43.531  1.00  0.00     0.015 C 
ENDBRANCH  34  39
ENDBRANCH   1  33
TORSDOF 8
ENDMDL
