MODEL 1
REMARK VINA RESULT: -7.089428603      0.000      0.000
REMARK  11 active torsions:
REMARK  status: ('A' for Active; 'I' for Inactive)
REMARK    1  A    between atoms: C2_2  and  C12_20 
REMARK    2  A    between atoms: C3_3  and  C4_4 
REMARK    3  A    between atoms: C4_4  and  C5_5 
REMARK    4  A    between atoms: C5_5  and  C6_6 
REMARK    5  A    between atoms: C6_6  and  C7_7 
REMARK    6  A    between atoms: C7_7  and  C8_8 
REMARK    7  A    between atoms: C8_8  and  C9_9 
REMARK       I    between atoms: C9_9  and  N1_11 
REMARK    8  A    between atoms: C15_23  and  C16_24 
REMARK    9  A    between atoms: C16_24  and  C17_25 
REMARK   10  A    between atoms: C17_25  and  C18_26 
REMARK   11  A    between atoms: C18_26  and  C19_27 
ROOT
HETATM    1  C1  UNL     1      91.670  96.244 -41.076  1.00  0.00     0.050 C 
HETATM    2  C2  UNL     1      91.358  96.260 -42.511  1.00  0.00    -0.035 C 
HETATM    3  C3  UNL     1      90.877  97.391 -43.227  1.00  0.00     0.009 C 
ENDROOT
BRANCH   2   4
HETATM    4  C12 UNL     1      91.548  95.106 -43.204  1.00  0.00     0.038 A 
HETATM    5  C13 UNL     1      92.000  93.918 -42.693  1.00  0.00     0.032 A 
HETATM    6  C14 UNL     1      92.041  93.023 -43.747  1.00  0.00     0.031 A 
HETATM    7  C15 UNL     1      91.624  93.641 -44.888  1.00  0.00     0.028 A 
HETATM    8  N4  UNL     1      91.329  94.922 -44.511  1.00  0.00    -0.356 N 
ATOM      9  H4  UNL     1      90.986  95.644 -45.144  1.00  0.00     0.166 HD
BRANCH   7  10
HETATM   10  C16 UNL     1      91.521  93.120 -46.113  1.00  0.00     0.003 C 
BRANCH  10  11
HETATM   11  C17 UNL     1      91.598  91.676 -46.330  1.00  0.00     0.034 C 
BRANCH  11  12
HETATM   12  C18 UNL     1      92.268  91.305 -47.635  1.00  0.00     0.042 C 
BRANCH  12  13
HETATM   13  C19 UNL     1      91.287  90.912 -48.671  1.00  0.00    -0.058 A 
HETATM   14  C20 UNL     1      90.718  89.656 -48.640  1.00  0.00     0.008 A 
HETATM   15  C21 UNL     1      89.799  89.228 -49.575  1.00  0.00     0.019 A 
HETATM   16  C22 UNL     1      89.411  90.066 -50.594  1.00  0.00     0.011 A 
HETATM   17 BR1  UNL     1      88.139  89.434 -51.863  1.00  0.00    -0.051 Br
HETATM   18  C23 UNL     1      89.961  91.322 -50.650  1.00  0.00     0.019 A 
HETATM   19  C24 UNL     1      90.886  91.743 -49.703  1.00  0.00     0.008 A 
ENDBRANCH  12  13
ENDBRANCH  11  12
ENDBRANCH  10  11
ENDBRANCH   7  10
ENDBRANCH   2   4
BRANCH   3  20
HETATM   20  C4  UNL     1      90.608  98.584 -42.823  1.00  0.00     0.000 C 
BRANCH  20  21
HETATM   21  C5  UNL     1      89.456  99.391 -42.881  1.00  0.00    -0.004 C 
BRANCH  21  22
HETATM   22  C6  UNL     1      88.216  98.905 -42.912  1.00  0.00    -0.024 C 
BRANCH  22  23
HETATM   23  C7  UNL     1      87.083  99.596 -43.478  1.00  0.00     0.063 C 
BRANCH  23  24
HETATM   24  C8  UNL     1      86.458  98.859 -44.667  1.00  0.00     0.160 A 
HETATM   25  C11 UNL     1      85.084  99.474 -45.077  1.00  0.00     0.177 A 
HETATM   26  S1  UNL     1      85.131  97.823 -44.474  1.00  0.00     0.165 S 
HETATM   27  O2  UNL     1      84.410  97.600 -43.186  1.00  0.00    -0.226 OA
HETATM   28  O3  UNL     1      84.972  96.683 -45.459  1.00  0.00    -0.226 OA
BRANCH  24  29
HETATM   29  C9  UNL     1      87.373  98.626 -45.803  1.00  0.00     0.248 C 
HETATM   30  O1  UNL     1      87.717  99.674 -46.475  1.00  0.00    -0.271 OA
HETATM   31  N1  UNL     1      87.897  97.375 -46.207  1.00  0.00    -0.302 N 
HETATM   32  C10 UNL     1      89.134  97.296 -46.534  1.00  0.00     0.203 C 
ATOM     33  H1  UNL     1      87.299  96.549 -46.237  1.00  0.00     0.171 HD
HETATM   34  N2  UNL     1      89.724  96.062 -46.950  1.00  0.00    -0.066 NA
HETATM   35  N3  UNL     1      89.943  98.447 -46.486  1.00  0.00    -0.066 NA
ENDBRANCH  24  29
ENDBRANCH  23  24
ENDBRANCH  22  23
ENDBRANCH  21  22
ENDBRANCH  20  21
ENDBRANCH   3  20
TORSDOF 11
ENDMDL
MODEL 2
REMARK VINA RESULT: -6.803694504      2.748      3.634
REMARK  11 active torsions:
REMARK  status: ('A' for Active; 'I' for Inactive)
REMARK    1  A    between atoms: C2_2  and  C12_20 
REMARK    2  A    between atoms: C3_3  and  C4_4 
REMARK    3  A    between atoms: C4_4  and  C5_5 
REMARK    4  A    between atoms: C5_5  and  C6_6 
REMARK    5  A    between atoms: C6_6  and  C7_7 
REMARK    6  A    between atoms: C7_7  and  C8_8 
REMARK    7  A    between atoms: C8_8  and  C9_9 
REMARK       I    between atoms: C9_9  and  N1_11 
REMARK    8  A    between atoms: C15_23  and  C16_24 
REMARK    9  A    between atoms: C16_24  and  C17_25 
REMARK   10  A    between atoms: C17_25  and  C18_26 
REMARK   11  A    between atoms: C18_26  and  C19_27 
ROOT
HETATM    1  C1  UNL     1      91.684  96.155 -41.053  1.00  0.00     0.050 C 
HETATM    2  C2  UNL     1      91.397  96.208 -42.492  1.00  0.00    -0.035 C 
HETATM    3  C3  UNL     1      90.943  97.360 -43.190  1.00  0.00     0.009 C 
ENDROOT
BRANCH   2   4
HETATM    4  C12 UNL     1      91.585  95.067 -43.207  1.00  0.00     0.038 A 
HETATM    5  C13 UNL     1      92.065  93.878 -42.726  1.00  0.00     0.032 A 
HETATM    6  C14 UNL     1      92.091  92.999 -43.795  1.00  0.00     0.031 A 
HETATM    7  C15 UNL     1      91.637  93.629 -44.915  1.00  0.00     0.028 A 
HETATM    8  N4  UNL     1      91.335  94.900 -44.511  1.00  0.00    -0.356 N 
ATOM      9  H4  UNL     1      90.967  95.627 -45.124  1.00  0.00     0.166 HD
BRANCH   7  10
HETATM   10  C16 UNL     1      91.509  93.125 -46.145  1.00  0.00     0.003 C 
BRANCH  10  11
HETATM   11  C17 UNL     1      91.599  91.686 -46.386  1.00  0.00     0.034 C 
BRANCH  11  12
HETATM   12  C18 UNL     1      92.241  91.343 -47.713  1.00  0.00     0.042 C 
BRANCH  12  13
HETATM   13  C19 UNL     1      91.247  90.888 -48.711  1.00  0.00    -0.058 A 
HETATM   14  C20 UNL     1      90.855  91.734 -49.727  1.00  0.00     0.008 A 
HETATM   15  C21 UNL     1      89.933  91.372 -50.688  1.00  0.00     0.019 A 
HETATM   16  C22 UNL     1      89.364  90.120 -50.659  1.00  0.00     0.011 A 
HETATM   17 BR1  UNL     1      88.096  89.662 -52.005  1.00  0.00    -0.051 Br
HETATM   18  C23 UNL     1      89.735  89.258 -49.658  1.00  0.00     0.019 A 
HETATM   19  C24 UNL     1      90.664  89.633 -48.695  1.00  0.00     0.008 A 
ENDBRANCH  12  13
ENDBRANCH  11  12
ENDBRANCH  10  11
ENDBRANCH   7  10
ENDBRANCH   2   4
BRANCH   3  20
HETATM   20  C4  UNL     1      90.682  98.548 -42.765  1.00  0.00     0.000 C 
BRANCH  20  21
HETATM   21  C5  UNL     1      91.477  99.674 -42.482  1.00  0.00    -0.004 C 
BRANCH  21  22
HETATM   22  C6  UNL     1      92.062 100.418 -43.419  1.00  0.00    -0.024 C 
BRANCH  22  23
HETATM   23  C7  UNL     1      91.368 101.359 -44.264  1.00  0.00     0.063 C 
BRANCH  23  24
HETATM   24  C8  UNL     1      91.143 100.840 -45.688  1.00  0.00     0.160 A 
HETATM   25  C11 UNL     1      90.133 101.729 -46.480  1.00  0.00     0.177 A 
HETATM   26  S1  UNL     1      89.707 100.058 -46.133  1.00  0.00     0.165 S 
HETATM   27  O2  UNL     1      88.526  99.880 -45.239  1.00  0.00    -0.226 OA
HETATM   28  O3  UNL     1      89.771  99.043 -47.256  1.00  0.00    -0.226 OA
BRANCH  24  29
HETATM   29  C9  UNL     1      92.378 100.524 -46.436  1.00  0.00     0.248 C 
HETATM   30  O1  UNL     1      92.661  99.269 -46.552  1.00  0.00    -0.271 OA
HETATM   31  N1  UNL     1      93.257 101.462 -47.025  1.00  0.00    -0.302 N 
HETATM   32  C10 UNL     1      93.720 101.228 -48.196  1.00  0.00     0.203 C 
ATOM     33  H1  UNL     1      93.518 102.312 -46.524  1.00  0.00     0.171 HD
HETATM   34  N2  UNL     1      94.613 102.137 -48.848  1.00  0.00    -0.066 NA
HETATM   35  N3  UNL     1      93.349 100.050 -48.871  1.00  0.00    -0.066 NA
ENDBRANCH  24  29
ENDBRANCH  23  24
ENDBRANCH  22  23
ENDBRANCH  21  22
ENDBRANCH  20  21
ENDBRANCH   3  20
TORSDOF 11
ENDMDL
MODEL 3
REMARK VINA RESULT: -6.794402536      6.332     10.539
REMARK  11 active torsions:
REMARK  status: ('A' for Active; 'I' for Inactive)
REMARK    1  A    between atoms: C2_2  and  C12_20 
REMARK    2  A    between atoms: C3_3  and  C4_4 
REMARK    3  A    between atoms: C4_4  and  C5_5 
REMARK    4  A    between atoms: C5_5  and  C6_6 
REMARK    5  A    between atoms: C6_6  and  C7_7 
REMARK    6  A    between atoms: C7_7  and  C8_8 
REMARK    7  A    between atoms: C8_8  and  C9_9 
REMARK       I    between atoms: C9_9  and  N1_11 
REMARK    8  A    between atoms: C15_23  and  C16_24 
REMARK    9  A    between atoms: C16_24  and  C17_25 
REMARK   10  A    between atoms: C17_25  and  C18_26 
REMARK   11  A    between atoms: C18_26  and  C19_27 
ROOT
HETATM    1  C1  UNL     1      92.819  90.825 -47.062  1.00  0.00     0.050 C 
HETATM    2  C2  UNL     1      91.811  91.886 -47.173  1.00  0.00    -0.035 C 
HETATM    3  C3  UNL     1      90.988  92.112 -48.311  1.00  0.00     0.009 C 
ENDROOT
BRANCH   2   4
HETATM    4  C12 UNL     1      91.653  92.711 -46.104  1.00  0.00     0.038 A 
HETATM    5  C13 UNL     1      91.290  94.031 -46.144  1.00  0.00     0.032 A 
HETATM    6  C14 UNL     1      91.253  94.472 -44.833  1.00  0.00     0.031 A 
HETATM    7  C15 UNL     1      91.585  93.449 -43.996  1.00  0.00     0.028 A 
HETATM    8  N4  UNL     1      91.824  92.382 -44.818  1.00  0.00    -0.356 N 
ATOM      9  H4  UNL     1      92.096  91.454 -44.493  1.00  0.00     0.166 HD
BRANCH   7  10
HETATM   10  C16 UNL     1      91.664  93.470 -42.664  1.00  0.00     0.003 C 
BRANCH  10  11
HETATM   11  C17 UNL     1      92.425  94.507 -41.968  1.00  0.00     0.034 C 
BRANCH  11  12
HETATM   12  C18 UNL     1      91.559  95.415 -41.122  1.00  0.00     0.042 C 
BRANCH  12  13
HETATM   13  C19 UNL     1      91.570  96.811 -41.614  1.00  0.00    -0.058 A 
HETATM   14  C20 UNL     1      92.199  97.794 -40.880  1.00  0.00     0.008 A 
HETATM   15  C21 UNL     1      92.245  99.113 -41.282  1.00  0.00     0.019 A 
HETATM   16  C22 UNL     1      91.649  99.496 -42.461  1.00  0.00     0.011 A 
HETATM   17 BR1  UNL     1      91.737 101.327 -42.977  1.00  0.00    -0.051 Br
HETATM   18  C23 UNL     1      91.015  98.537 -43.211  1.00  0.00     0.019 A 
HETATM   19  C24 UNL     1      90.974  97.212 -42.797  1.00  0.00     0.008 A 
ENDBRANCH  12  13
ENDBRANCH  11  12
ENDBRANCH  10  11
ENDBRANCH   7  10
ENDBRANCH   2   4
BRANCH   3  20
HETATM   20  C4  UNL     1      90.935  91.496 -49.441  1.00  0.00     0.000 C 
BRANCH  20  21
HETATM   21  C5  UNL     1      90.599  90.181 -49.814  1.00  0.00    -0.004 C 
BRANCH  21  22
HETATM   22  C6  UNL     1      89.392  89.649 -49.634  1.00  0.00    -0.024 C 
BRANCH  22  23
HETATM   23  C7  UNL     1      89.091  88.613 -48.677  1.00  0.00     0.063 C 
BRANCH  23  24
HETATM   24  C8  UNL     1      88.685  87.286 -49.330  1.00  0.00     0.160 A 
HETATM   25  C11 UNL     1      87.435  87.448 -50.250  1.00  0.00     0.177 A 
HETATM   26  S1  UNL     1      87.315  86.428 -48.822  1.00  0.00     0.165 S 
HETATM   27  O2  UNL     1      86.352  86.903 -47.786  1.00  0.00    -0.226 OA
HETATM   28  O3  UNL     1      87.315  84.924 -49.001  1.00  0.00    -0.226 OA
BRANCH  24  29
HETATM   29  C9  UNL     1      89.795  86.536 -49.953  1.00  0.00     0.248 C 
HETATM   30  O1  UNL     1      90.915  86.549 -49.310  1.00  0.00    -0.271 OA
HETATM   31  N1  UNL     1      89.734  85.817 -51.169  1.00  0.00    -0.302 N 
HETATM   32  C10 UNL     1      90.287  84.663 -51.237  1.00  0.00     0.203 C 
ATOM     33  H1  UNL     1      89.257  86.211 -51.980  1.00  0.00     0.171 HD
HETATM   34  N2  UNL     1      90.261  83.885 -52.437  1.00  0.00    -0.066 NA
HETATM   35  N3  UNL     1      90.941  84.136 -50.107  1.00  0.00    -0.066 NA
ENDBRANCH  24  29
ENDBRANCH  23  24
ENDBRANCH  22  23
ENDBRANCH  21  22
ENDBRANCH  20  21
ENDBRANCH   3  20
TORSDOF 11
ENDMDL
MODEL 4
REMARK VINA RESULT: -6.669467439      6.049     10.265
REMARK  11 active torsions:
REMARK  status: ('A' for Active; 'I' for Inactive)
REMARK    1  A    between atoms: C2_2  and  C12_20 
REMARK    2  A    between atoms: C3_3  and  C4_4 
REMARK    3  A    between atoms: C4_4  and  C5_5 
REMARK    4  A    between atoms: C5_5  and  C6_6 
REMARK    5  A    between atoms: C6_6  and  C7_7 
REMARK    6  A    between atoms: C7_7  and  C8_8 
REMARK    7  A    between atoms: C8_8  and  C9_9 
REMARK       I    between atoms: C9_9  and  N1_11 
REMARK    8  A    between atoms: C15_23  and  C16_24 
REMARK    9  A    between atoms: C16_24  and  C17_25 
REMARK   10  A    between atoms: C17_25  and  C18_26 
REMARK   11  A    between atoms: C18_26  and  C19_27 
ROOT
HETATM    1  C1  UNL     1      93.026  90.544 -47.290  1.00  0.00     0.050 C 
HETATM    2  C2  UNL     1      91.932  91.517 -47.392  1.00  0.00    -0.035 C 
HETATM    3  C3  UNL     1      91.007  91.594 -48.469  1.00  0.00     0.009 C 
ENDROOT
BRANCH   2   4
HETATM    4  C12 UNL     1      91.793  92.408 -46.374  1.00  0.00     0.038 A 
HETATM    5  C13 UNL     1      91.226  93.652 -46.457  1.00  0.00     0.032 A 
HETATM    6  C14 UNL     1      91.298  94.206 -45.190  1.00  0.00     0.031 A 
HETATM    7  C15 UNL     1      91.897  93.325 -44.340  1.00  0.00     0.028 A 
HETATM    8  N4  UNL     1      92.186  92.231 -45.107  1.00  0.00    -0.356 N 
ATOM      9  H4  UNL     1      92.642  91.388 -44.759  1.00  0.00     0.166 HD
BRANCH   7  10
HETATM   10  C16 UNL     1      92.152  93.485 -43.039  1.00  0.00     0.003 C 
BRANCH  10  11
HETATM   11  C17 UNL     1      91.247  94.245 -42.179  1.00  0.00     0.034 C 
BRANCH  11  12
HETATM   12  C18 UNL     1      91.940  95.360 -41.425  1.00  0.00     0.042 C 
BRANCH  12  13
HETATM   13  C19 UNL     1      91.650  96.689 -42.009  1.00  0.00    -0.058 A 
HETATM   14  C20 UNL     1      92.044  97.832 -41.346  1.00  0.00     0.008 A 
HETATM   15  C21 UNL     1      91.805  99.100 -41.835  1.00  0.00     0.019 A 
HETATM   16  C22 UNL     1      91.149  99.264 -43.033  1.00  0.00     0.011 A 
HETATM   17 BR1  UNL     1      90.841 101.032 -43.671  1.00  0.00    -0.051 Br
HETATM   18  C23 UNL     1      90.746  98.143 -43.714  1.00  0.00     0.019 A 
HETATM   19  C24 UNL     1      90.992  96.871 -43.212  1.00  0.00     0.008 A 
ENDBRANCH  12  13
ENDBRANCH  11  12
ENDBRANCH  10  11
ENDBRANCH   7  10
ENDBRANCH   2   4
BRANCH   3  20
HETATM   20  C4  UNL     1      90.915  90.890 -49.544  1.00  0.00     0.000 C 
BRANCH  20  21
HETATM   21  C5  UNL     1      89.831  90.330 -50.247  1.00  0.00    -0.004 C 
BRANCH  21  22
HETATM   22  C6  UNL     1      89.484  89.047 -50.167  1.00  0.00    -0.024 C 
BRANCH  22  23
HETATM   23  C7  UNL     1      89.930  88.144 -49.134  1.00  0.00     0.063 C 
BRANCH  23  24
HETATM   24  C8  UNL     1      88.991  86.950 -48.929  1.00  0.00     0.160 A 
HETATM   25  C11 UNL     1      89.564  85.929 -47.896  1.00  0.00     0.177 A 
HETATM   26  S1  UNL     1      89.348  85.420 -49.565  1.00  0.00     0.165 S 
HETATM   27  O2  UNL     1      90.607  85.074 -50.287  1.00  0.00    -0.226 OA
HETATM   28  O3  UNL     1      88.189  84.504 -49.903  1.00  0.00    -0.226 OA
BRANCH  24  29
HETATM   29  C9  UNL     1      87.576  87.304 -48.700  1.00  0.00     0.248 C 
HETATM   30  O1  UNL     1      87.306  87.839 -47.556  1.00  0.00    -0.271 OA
HETATM   31  N1  UNL     1      86.512  87.113 -49.613  1.00  0.00    -0.302 N 
HETATM   32  C10 UNL     1      85.647  88.047 -49.763  1.00  0.00     0.203 C 
ATOM     33  H1  UNL     1      86.435  86.245 -50.144  1.00  0.00     0.171 HD
HETATM   34  N2  UNL     1      84.548  87.916 -50.669  1.00  0.00    -0.066 NA
HETATM   35  N3  UNL     1      85.770  89.237 -49.022  1.00  0.00    -0.066 NA
ENDBRANCH  24  29
ENDBRANCH  23  24
ENDBRANCH  22  23
ENDBRANCH  21  22
ENDBRANCH  20  21
ENDBRANCH   3  20
TORSDOF 11
ENDMDL
MODEL 5
REMARK VINA RESULT: -6.665050880      3.536      5.932
REMARK  11 active torsions:
REMARK  status: ('A' for Active; 'I' for Inactive)
REMARK    1  A    between atoms: C2_2  and  C12_20 
REMARK    2  A    between atoms: C3_3  and  C4_4 
REMARK    3  A    between atoms: C4_4  and  C5_5 
REMARK    4  A    between atoms: C5_5  and  C6_6 
REMARK    5  A    between atoms: C6_6  and  C7_7 
REMARK    6  A    between atoms: C7_7  and  C8_8 
REMARK    7  A    between atoms: C8_8  and  C9_9 
REMARK       I    between atoms: C9_9  and  N1_11 
REMARK    8  A    between atoms: C15_23  and  C16_24 
REMARK    9  A    between atoms: C16_24  and  C17_25 
REMARK   10  A    between atoms: C17_25  and  C18_26 
REMARK   11  A    between atoms: C18_26  and  C19_27 
ROOT
HETATM    1  C1  UNL     1      93.272  90.551 -47.251  1.00  0.00     0.050 C 
HETATM    2  C2  UNL     1      91.956  91.188 -47.388  1.00  0.00    -0.035 C 
HETATM    3  C3  UNL     1      91.473  92.244 -46.568  1.00  0.00     0.009 C 
ENDROOT
BRANCH   2   4
HETATM    4  C12 UNL     1      91.142  90.731 -48.378  1.00  0.00     0.038 A 
HETATM    5  C13 UNL     1      90.839  91.384 -49.543  1.00  0.00     0.032 A 
HETATM    6  C14 UNL     1      89.982  90.557 -50.248  1.00  0.00     0.031 A 
HETATM    7  C15 UNL     1      89.757  89.417 -49.536  1.00  0.00     0.028 A 
HETATM    8  N4  UNL     1      90.490  89.563 -48.391  1.00  0.00    -0.356 N 
ATOM      9  H4  UNL     1      90.535  88.870 -47.643  1.00  0.00     0.166 HD
BRANCH   7  10
HETATM   10  C16 UNL     1      88.991  88.376 -49.872  1.00  0.00     0.003 C 
BRANCH  10  11
HETATM   11  C17 UNL     1      88.244  87.630 -48.862  1.00  0.00     0.034 C 
BRANCH  11  12
HETATM   12  C18 UNL     1      86.761  87.555 -49.153  1.00  0.00     0.042 C 
BRANCH  12  13
HETATM   13  C19 UNL     1      85.988  88.537 -48.359  1.00  0.00    -0.058 A 
HETATM   14  C20 UNL     1      85.696  88.275 -47.037  1.00  0.00     0.008 A 
HETATM   15  C21 UNL     1      84.981  89.148 -46.243  1.00  0.00     0.019 A 
HETATM   16  C22 UNL     1      84.526  90.338 -46.762  1.00  0.00     0.011 A 
HETATM   17 BR1  UNL     1      83.543  91.512 -45.630  1.00  0.00    -0.051 Br
HETATM   18  C23 UNL     1      84.802  90.623 -48.076  1.00  0.00     0.019 A 
HETATM   19  C24 UNL     1      85.523  89.737 -48.866  1.00  0.00     0.008 A 
ENDBRANCH  12  13
ENDBRANCH  11  12
ENDBRANCH  10  11
ENDBRANCH   7  10
ENDBRANCH   2   4
BRANCH   3  20
HETATM   20  C4  UNL     1      92.024  92.850 -45.573  1.00  0.00     0.000 C 
BRANCH  20  21
HETATM   21  C5  UNL     1      91.568  93.807 -44.647  1.00  0.00    -0.004 C 
BRANCH  21  22
HETATM   22  C6  UNL     1      90.972  94.946 -44.996  1.00  0.00    -0.024 C 
BRANCH  22  23
HETATM   23  C7  UNL     1      91.657  96.200 -45.188  1.00  0.00     0.063 C 
BRANCH  23  24
HETATM   24  C8  UNL     1      90.821  97.415 -44.773  1.00  0.00     0.160 A 
HETATM   25  C11 UNL     1      91.714  98.651 -44.439  1.00  0.00     0.177 A 
HETATM   26  S1  UNL     1      90.743  97.933 -43.161  1.00  0.00     0.165 S 
HETATM   27  O2  UNL     1      91.522  97.332 -42.039  1.00  0.00    -0.226 OA
HETATM   28  O3  UNL     1      89.490  98.653 -42.708  1.00  0.00    -0.226 OA
BRANCH  24  29
HETATM   29  C9  UNL     1      89.685  97.721 -45.666  1.00  0.00     0.248 C 
HETATM   30  O1  UNL     1      89.993  98.142 -46.848  1.00  0.00    -0.271 OA
HETATM   31  N1  UNL     1      88.314  97.590 -45.343  1.00  0.00    -0.302 N 
HETATM   32  C10 UNL     1      87.518  97.080 -46.208  1.00  0.00     0.203 C 
ATOM     33  H1  UNL     1      87.965  97.898 -44.435  1.00  0.00     0.171 HD
HETATM   34  N2  UNL     1      86.121  96.921 -45.943  1.00  0.00    -0.066 NA
HETATM   35  N3  UNL     1      88.018  96.662 -47.455  1.00  0.00    -0.066 NA
ENDBRANCH  24  29
ENDBRANCH  23  24
ENDBRANCH  22  23
ENDBRANCH  21  22
ENDBRANCH  20  21
ENDBRANCH   3  20
TORSDOF 11
ENDMDL
