MODEL 1
REMARK VINA RESULT: -4.982852597      0.000      0.000
REMARK  1 active torsions:
REMARK  status: ('A' for Active; 'I' for Inactive)
REMARK    1  A    between atoms: N1_2  and  C2_5 
ROOT
HETATM    1  C2  UNL     1     -17.567  18.130   0.739  1.00  0.00     0.186 C 
HETATM    2  C3  UNL     1     -16.374  17.891   1.611  1.00  0.00     0.033 C 
HETATM    3  C4  UNL     1     -16.153  16.414   1.919  1.00  0.00     0.003 C 
HETATM    4  C5  UNL     1     -16.249  15.730   0.559  1.00  0.00     0.010 C 
HETATM    5  C6  UNL     1     -17.711  15.665   0.221  1.00  0.00    -0.038 C 
HETATM    6  C7  UNL     1     -17.907  15.072  -1.158  1.00  0.00     0.010 C 
HETATM    7  C8  UNL     1     -19.078  14.279  -0.597  1.00  0.00     0.002 C 
HETATM    8  C9  UNL     1     -18.454  14.474   0.771  1.00  0.00     0.010 C 
HETATM    9  C10 UNL     1     -18.431  16.935   0.508  1.00  0.00     0.042 C 
ENDROOT
BRANCH   1  10
HETATM   10  N1  UNL     1     -18.407  19.160   1.348  1.00  0.00    -0.075 N 
HETATM   11  C1  UNL     1     -17.881  20.485   1.163  1.00  0.00     0.267 C 
ATOM     12  H12 UNL     1     -18.568  18.964   2.336  1.00  0.00     0.277 HD
ATOM     13  H11 UNL     1     -19.368  19.096   1.010  1.00  0.00     0.277 HD
ENDBRANCH   1  10
TORSDOF 1
ENDMDL
MODEL 2
REMARK VINA RESULT: -4.935484820      1.223      1.546
REMARK  1 active torsions:
REMARK  status: ('A' for Active; 'I' for Inactive)
REMARK    1  A    between atoms: N1_2  and  C2_5 
ROOT
HETATM    1  C2  UNL     1     -16.475  16.760   1.042  1.00  0.00     0.186 C 
HETATM    2  C3  UNL     1     -15.752  15.877   2.013  1.00  0.00     0.033 C 
HETATM    3  C4  UNL     1     -16.505  14.585   2.311  1.00  0.00     0.003 C 
HETATM    4  C5  UNL     1     -16.885  14.048   0.935  1.00  0.00     0.010 C 
HETATM    5  C6  UNL     1     -18.050  14.874   0.467  1.00  0.00    -0.038 C 
HETATM    6  C7  UNL     1     -18.452  14.470  -0.936  1.00  0.00     0.010 C 
HETATM    7  C8  UNL     1     -19.905  14.576  -0.497  1.00  0.00     0.002 C 
HETATM    8  C9  UNL     1     -19.407  14.404   0.925  1.00  0.00     0.010 C 
HETATM    9  C10 UNL     1     -17.866  16.330   0.712  1.00  0.00     0.042 C 
ENDROOT
BRANCH   1  10
HETATM   10  N1  UNL     1     -16.560  18.111   1.594  1.00  0.00    -0.075 N 
HETATM   11  C1  UNL     1     -17.809  18.755   1.291  1.00  0.00     0.267 C 
ATOM     12  H12 UNL     1     -15.770  18.680   1.289  1.00  0.00     0.277 HD
ATOM     13  H11 UNL     1     -16.382  18.108   2.598  1.00  0.00     0.277 HD
ENDBRANCH   1  10
TORSDOF 1
ENDMDL
MODEL 3
REMARK VINA RESULT: -4.840825155      1.780      4.264
REMARK  1 active torsions:
REMARK  status: ('A' for Active; 'I' for Inactive)
REMARK    1  A    between atoms: N1_2  and  C2_5 
ROOT
HETATM    1  C2  UNL     1     -16.165  16.402   1.063  1.00  0.00     0.186 C 
HETATM    2  C3  UNL     1     -17.150  15.643   0.229  1.00  0.00     0.033 C 
HETATM    3  C4  UNL     1     -18.389  16.462  -0.114  1.00  0.00     0.003 C 
HETATM    4  C5  UNL     1     -17.833  17.789  -0.617  1.00  0.00     0.010 C 
HETATM    5  C6  UNL     1     -17.398  18.554   0.601  1.00  0.00    -0.038 C 
HETATM    6  C7  UNL     1     -16.751  19.862   0.199  1.00  0.00     0.010 C 
HETATM    7  C8  UNL     1     -17.503  20.528   1.341  1.00  0.00     0.002 C 
HETATM    8  C9  UNL     1     -18.473  19.365   1.278  1.00  0.00     0.010 C 
HETATM    9  C10 UNL     1     -16.652  17.715   1.578  1.00  0.00     0.042 C 
ENDROOT
BRANCH   1  10
HETATM   10  N1  UNL     1     -15.795  15.593   2.223  1.00  0.00    -0.075 N 
HETATM   11  C1  UNL     1     -16.525  14.356   2.291  1.00  0.00     0.267 C 
ATOM     12  H12 UNL     1     -15.895  16.125   3.088  1.00  0.00     0.277 HD
ATOM     13  H11 UNL     1     -14.789  15.427   2.248  1.00  0.00     0.277 HD
ENDBRANCH   1  10
TORSDOF 1
ENDMDL
MODEL 4
REMARK VINA RESULT: -4.788783724      1.514      2.535
REMARK  1 active torsions:
REMARK  status: ('A' for Active; 'I' for Inactive)
REMARK    1  A    between atoms: N1_2  and  C2_5 
ROOT
HETATM    1  C2  UNL     1     -17.422  18.950   1.429  1.00  0.00     0.186 C 
HETATM    2  C3  UNL     1     -17.640  19.352   0.003  1.00  0.00     0.033 C 
HETATM    3  C4  UNL     1     -17.343  18.225  -0.980  1.00  0.00     0.003 C 
HETATM    4  C5  UNL     1     -18.087  17.023  -0.408  1.00  0.00     0.010 C 
HETATM    5  C6  UNL     1     -17.263  16.526   0.746  1.00  0.00    -0.038 C 
HETATM    6  C7  UNL     1     -17.964  15.377   1.438  1.00  0.00     0.010 C 
HETATM    7  C8  UNL     1     -16.616  14.680   1.539  1.00  0.00     0.002 C 
HETATM    8  C9  UNL     1     -16.162  15.561   0.392  1.00  0.00     0.010 C 
HETATM    9  C10 UNL     1     -16.765  17.624   1.619  1.00  0.00     0.042 C 
ENDROOT
BRANCH   1  10
HETATM   10  N1  UNL     1     -16.578  19.948   2.085  1.00  0.00    -0.075 N 
HETATM   11  C1  UNL     1     -15.453  19.363   2.762  1.00  0.00     0.267 C 
ATOM     12  H12 UNL     1     -17.126  20.530   2.719  1.00  0.00     0.277 HD
ATOM     13  H11 UNL     1     -16.277  20.664   1.424  1.00  0.00     0.277 HD
ENDBRANCH   1  10
TORSDOF 1
ENDMDL
MODEL 5
REMARK VINA RESULT: -4.629769447      1.814      2.914
REMARK  1 active torsions:
REMARK  status: ('A' for Active; 'I' for Inactive)
REMARK    1  A    between atoms: N1_2  and  C2_5 
ROOT
HETATM    1  C2  UNL     1     -16.214  18.561   2.457  1.00  0.00     0.186 C 
HETATM    2  C3  UNL     1     -16.685  19.860   1.881  1.00  0.00     0.033 C 
HETATM    3  C4  UNL     1     -17.315  19.702   0.502  1.00  0.00     0.003 C 
HETATM    4  C5  UNL     1     -18.296  18.546   0.669  1.00  0.00     0.010 C 
HETATM    5  C6  UNL     1     -17.472  17.290   0.677  1.00  0.00    -0.038 C 
HETATM    6  C7  UNL     1     -18.352  16.084   0.922  1.00  0.00     0.010 C 
HETATM    7  C8  UNL     1     -17.556  15.347  -0.144  1.00  0.00     0.002 C 
HETATM    8  C9  UNL     1     -17.159  16.709  -0.678  1.00  0.00     0.010 C 
HETATM    9  C10 UNL     1     -16.248  17.403   1.516  1.00  0.00     0.042 C 
ENDROOT
BRANCH   1  10
HETATM   10  N1  UNL     1     -14.832  18.709   2.910  1.00  0.00    -0.075 N 
HETATM   11  C1  UNL     1     -14.478  20.079   3.167  1.00  0.00     0.267 C 
ATOM     12  H12 UNL     1     -14.183  18.281   2.250  1.00  0.00     0.277 HD
ATOM     13  H11 UNL     1     -14.649  18.124   3.725  1.00  0.00     0.277 HD
ENDBRANCH   1  10
TORSDOF 1
ENDMDL
