MODEL 1
REMARK VINA RESULT: -5.632890853      0.000      0.000
REMARK  1 active torsions:
REMARK  status: ('A' for Active; 'I' for Inactive)
REMARK    1  A    between atoms: N1_1  and  N2_4 
ROOT
HETATM    1  N2  UNL     1      29.033 -18.781   2.608  1.00  0.00    -0.313 N 
ATOM      2  H2  UNL     1      28.267 -18.554   3.243  1.00  0.00     0.185 HD
HETATM    3  C1  UNL     1      28.927 -19.738   1.784  1.00  0.00     0.037 C 
HETATM    4  C2  UNL     1      29.976 -20.157   0.812  1.00  0.00     0.091 C 
HETATM    5  C3  UNL     1      29.215 -21.095  -0.143  1.00  0.00     0.165 C 
HETATM    6  C4  UNL     1      28.972 -22.348   0.675  1.00  0.00     0.038 C 
HETATM    7  C5  UNL     1      28.168 -22.010   1.903  1.00  0.00     0.044 C 
HETATM    8  C6  UNL     1      27.688 -20.560   1.716  1.00  0.00     0.207 C 
HETATM    9  O1  UNL     1      27.121 -20.534   0.443  1.00  0.00    -0.229 OA
HETATM   10  O2  UNL     1      28.048 -20.417  -0.448  1.00  0.00    -0.234 OA
ENDROOT
BRANCH   1  11
HETATM   11  N1  UNL     1      30.229 -18.035   2.629  1.00  0.00    -0.345 N 
ATOM     12  H12 UNL     1      30.317 -17.204   2.043  1.00  0.00     0.176 HD
ATOM     13  H11 UNL     1      30.989 -18.344   3.236  1.00  0.00     0.176 HD
ENDBRANCH   1  11
TORSDOF 1
ENDMDL
MODEL 2
REMARK VINA RESULT: -5.565778525      0.968      1.156
REMARK  1 active torsions:
REMARK  status: ('A' for Active; 'I' for Inactive)
REMARK    1  A    between atoms: N1_1  and  N2_4 
ROOT
HETATM    1  N2  UNL     1      28.910 -18.876   2.605  1.00  0.00    -0.313 N 
ATOM      2  H2  UNL     1      28.178 -18.179   2.464  1.00  0.00     0.185 HD
HETATM    3  C1  UNL     1      28.827 -20.019   2.064  1.00  0.00     0.037 C 
HETATM    4  C2  UNL     1      29.834 -21.109   2.199  1.00  0.00     0.091 C 
HETATM    5  C3  UNL     1      29.426 -22.101   1.093  1.00  0.00     0.165 C 
HETATM    6  C4  UNL     1      28.150 -22.735   1.609  1.00  0.00     0.038 C 
HETATM    7  C5  UNL     1      27.106 -21.673   1.836  1.00  0.00     0.044 C 
HETATM    8  C6  UNL     1      27.664 -20.383   1.211  1.00  0.00     0.207 C 
HETATM    9  O1  UNL     1      28.062 -20.753  -0.073  1.00  0.00    -0.229 OA
HETATM   10  O2  UNL     1      29.222 -21.316  -0.028  1.00  0.00    -0.234 OA
ENDROOT
BRANCH   1  11
HETATM   11  N1  UNL     1      30.034 -18.584   3.404  1.00  0.00    -0.345 N 
ATOM     12  H12 UNL     1      30.323 -19.242   4.129  1.00  0.00     0.176 HD
ATOM     13  H11 UNL     1      30.540 -17.713   3.240  1.00  0.00     0.176 HD
ENDBRANCH   1  11
TORSDOF 1
ENDMDL
MODEL 3
REMARK VINA RESULT: -5.351102389      2.634      3.195
REMARK  1 active torsions:
REMARK  status: ('A' for Active; 'I' for Inactive)
REMARK    1  A    between atoms: N1_1  and  N2_4 
ROOT
HETATM    1  N2  UNL     1      27.927 -20.136   0.031  1.00  0.00    -0.313 N 
ATOM      2  H2  UNL     1      27.987 -20.325  -0.970  1.00  0.00     0.185 HD
HETATM    3  C1  UNL     1      28.961 -20.190   0.762  1.00  0.00     0.037 C 
HETATM    4  C2  UNL     1      28.992 -19.932   2.229  1.00  0.00     0.091 C 
HETATM    5  C3  UNL     1      30.496 -19.787   2.528  1.00  0.00     0.165 C 
HETATM    6  C4  UNL     1      31.041 -21.196   2.406  1.00  0.00     0.038 C 
HETATM    7  C5  UNL     1      30.783 -21.727   1.021  1.00  0.00     0.044 C 
HETATM    8  C6  UNL     1      30.291 -20.531   0.188  1.00  0.00     0.207 C 
HETATM    9  O1  UNL     1      31.227 -19.525   0.422  1.00  0.00    -0.229 OA
HETATM   10  O2  UNL     1      30.972 -18.940   1.543  1.00  0.00    -0.234 OA
ENDROOT
BRANCH   1  11
HETATM   11  N1  UNL     1      26.692 -19.807   0.628  1.00  0.00    -0.345 N 
ATOM     12  H12 UNL     1      26.139 -20.537   1.076  1.00  0.00     0.176 HD
ATOM     13  H11 UNL     1      26.376 -18.838   0.597  1.00  0.00     0.176 HD
ENDBRANCH   1  11
TORSDOF 1
ENDMDL
MODEL 4
REMARK VINA RESULT: -5.239660294      2.192      2.681
REMARK  1 active torsions:
REMARK  status: ('A' for Active; 'I' for Inactive)
REMARK    1  A    between atoms: N1_1  and  N2_4 
ROOT
HETATM    1  N2  UNL     1      30.818 -19.821  -0.856  1.00  0.00    -0.313 N 
ATOM      2  H2  UNL     1      30.525 -19.866  -1.832  1.00  0.00     0.185 HD
HETATM    3  C1  UNL     1      30.073 -20.273   0.065  1.00  0.00     0.037 C 
HETATM    4  C2  UNL     1      30.399 -20.261   1.519  1.00  0.00     0.091 C 
HETATM    5  C3  UNL     1      29.351 -21.217   2.120  1.00  0.00     0.165 C 
HETATM    6  C4  UNL     1      28.049 -20.444   2.044  1.00  0.00     0.038 C 
HETATM    7  C5  UNL     1      27.745 -20.093   0.612  1.00  0.00     0.044 C 
HETATM    8  C6  UNL     1      28.750 -20.880  -0.246  1.00  0.00     0.207 C 
HETATM    9  O1  UNL     1      28.663 -22.192   0.218  1.00  0.00    -0.229 OA
HETATM   10  O2  UNL     1      29.367 -22.325   1.292  1.00  0.00    -0.234 OA
ENDROOT
BRANCH   1  11
HETATM   11  N1  UNL     1      32.061 -19.256  -0.505  1.00  0.00    -0.345 N 
ATOM     12  H12 UNL     1      32.872 -19.861  -0.372  1.00  0.00     0.176 HD
ATOM     13  H11 UNL     1      32.124 -18.244  -0.389  1.00  0.00     0.176 HD
ENDBRANCH   1  11
TORSDOF 1
ENDMDL
MODEL 5
REMARK VINA RESULT: -5.213156548      2.458      3.118
REMARK  1 active torsions:
REMARK  status: ('A' for Active; 'I' for Inactive)
REMARK    1  A    between atoms: N1_1  and  N2_4 
ROOT
HETATM    1  N2  UNL     1      27.466 -20.066   1.927  1.00  0.00    -0.313 N 
ATOM      2  H2  UNL     1      27.473 -19.066   2.131  1.00  0.00     0.185 HD
HETATM    3  C1  UNL     1      28.548 -20.690   1.711  1.00  0.00     0.037 C 
HETATM    4  C2  UNL     1      28.655 -22.144   1.405  1.00  0.00     0.091 C 
HETATM    5  C3  UNL     1      30.158 -22.430   1.584  1.00  0.00     0.165 C 
HETATM    6  C4  UNL     1      30.811 -21.768   0.387  1.00  0.00     0.038 C 
HETATM    7  C5  UNL     1      30.507 -20.293   0.387  1.00  0.00     0.044 C 
HETATM    8  C6  UNL     1      29.860 -19.989   1.749  1.00  0.00     0.207 C 
HETATM    9  O1  UNL     1      30.721 -20.557   2.687  1.00  0.00    -0.229 OA
HETATM   10  O2  UNL     1      30.493 -21.824   2.782  1.00  0.00    -0.234 OA
ENDROOT
BRANCH   1  11
HETATM   11  N1  UNL     1      26.251 -20.780   1.878  1.00  0.00    -0.345 N 
ATOM     12  H12 UNL     1      26.250 -21.756   1.584  1.00  0.00     0.176 HD
ATOM     13  H11 UNL     1      25.389 -20.300   2.141  1.00  0.00     0.176 HD
ENDBRANCH   1  11
TORSDOF 1
ENDMDL
