MODEL 1
REMARK VINA RESULT: -6.266920852      0.000      0.000
REMARK  7 active torsions:
REMARK  status: ('A' for Active; 'I' for Inactive)
REMARK    1  A    between atoms: N1_1  and  C1_5 
REMARK    2  A    between atoms: C1_5  and  C2_6 
REMARK    3  A    between atoms: C2_6  and  C3_7 
REMARK    4  A    between atoms: C2_6  and  N3_18 
REMARK    5  A    between atoms: C3_7  and  C4_8 
REMARK    6  A    between atoms: C4_8  and  N2_9 
REMARK    7  A    between atoms: N2_9  and  C5_12 
ROOT
HETATM    1  C2  UNL     1      14.172 -14.668   7.008  1.00  0.00     0.015 C 
ENDROOT
BRANCH   1   2
HETATM    2  C1  UNL     1      14.793 -15.235   5.753  1.00  0.00     0.282 C 
BRANCH   2   3
HETATM    3  N1  UNL     1      15.997 -14.533   5.348  1.00  0.00    -0.074 N 
ATOM      4  H13 UNL     1      15.768 -13.708   4.792  1.00  0.00     0.274 HD
ATOM      5  H12 UNL     1      16.439 -14.078   6.147  1.00  0.00     0.274 HD
ATOM      6  H11 UNL     1      16.661 -15.130   4.856  1.00  0.00     0.274 HD
ENDBRANCH   2   3
ENDBRANCH   1   2
BRANCH   1   7
HETATM    7  C3  UNL     1      14.966 -13.463   7.460  1.00  0.00     0.082 C 
BRANCH   7   8
HETATM    8  C4  UNL     1      15.122 -13.529   8.985  1.00  0.00     0.238 C 
BRANCH   8   9
HETATM    9  N2  UNL     1      15.692 -14.743   9.463  1.00  0.00    -0.071 N 
ATOM     10  H22 UNL     1      15.653 -15.496   8.777  1.00  0.00     0.277 HD
ATOM     11  H21 UNL     1      16.706 -14.695   9.554  1.00  0.00     0.277 HD
BRANCH   9  12
HETATM   12  C5  UNL     1      15.023 -15.087  10.724  1.00  0.00     0.185 C 
HETATM   13  C6  UNL     1      15.588 -16.340  11.311  1.00  0.00     0.033 C 
HETATM   14  C7  UNL     1      14.822 -16.680  12.584  1.00  0.00     0.002 C 
HETATM   15  C8  UNL     1      13.388 -16.938  12.190  1.00  0.00     0.000 C 
HETATM   16  C9  UNL     1      12.818 -15.614  11.722  1.00  0.00     0.002 C 
HETATM   17  C10 UNL     1      13.536 -15.130  10.482  1.00  0.00     0.033 C 
ENDBRANCH   9  12
ENDBRANCH   8   9
ENDBRANCH   7   8
ENDBRANCH   1   7
BRANCH   1  18
HETATM   18  N3  UNL     1      12.801 -14.630   7.096  1.00  0.00    -0.362 N 
HETATM   19  C11 UNL     1      12.106 -15.854   6.988  1.00  0.00     0.154 C 
HETATM   20  C12 UNL     1      10.921 -15.794   7.931  1.00  0.00     0.188 C 
HETATM   21  O1  UNL     1      10.094 -14.791   7.566  1.00  0.00    -0.385 OA
HETATM   22  C13 UNL     1      10.560 -13.727   6.889  1.00  0.00     0.212 C 
HETATM   23  C14 UNL     1      12.047 -13.457   6.940  1.00  0.00     0.089 C 
ENDBRANCH   1  18
TORSDOF 7
ENDMDL
MODEL 2
REMARK VINA RESULT: -6.244005544      0.577      1.278
REMARK  7 active torsions:
REMARK  status: ('A' for Active; 'I' for Inactive)
REMARK    1  A    between atoms: N1_1  and  C1_5 
REMARK    2  A    between atoms: C1_5  and  C2_6 
REMARK    3  A    between atoms: C2_6  and  C3_7 
REMARK    4  A    between atoms: C2_6  and  N3_18 
REMARK    5  A    between atoms: C3_7  and  C4_8 
REMARK    6  A    between atoms: C4_8  and  N2_9 
REMARK    7  A    between atoms: N2_9  and  C5_12 
ROOT
HETATM    1  C2  UNL     1      14.109 -14.753   6.955  1.00  0.00     0.015 C 
ENDROOT
BRANCH   1   2
HETATM    2  C1  UNL     1      14.652 -15.445   5.727  1.00  0.00     0.282 C 
BRANCH   2   3
HETATM    3  N1  UNL     1      15.867 -14.835   5.221  1.00  0.00    -0.074 N 
ATOM      4  H13 UNL     1      15.787 -13.818   5.211  1.00  0.00     0.274 HD
ATOM      5  H12 UNL     1      16.631 -14.936   5.890  1.00  0.00     0.274 HD
ATOM      6  H11 UNL     1      16.139 -15.187   4.303  1.00  0.00     0.274 HD
ENDBRANCH   2   3
ENDBRANCH   1   2
BRANCH   1   7
HETATM    7  C3  UNL     1      14.950 -13.531   7.254  1.00  0.00     0.082 C 
BRANCH   7   8
HETATM    8  C4  UNL     1      15.725 -13.783   8.554  1.00  0.00     0.238 C 
BRANCH   8   9
HETATM    9  N2  UNL     1      14.959 -13.597   9.739  1.00  0.00    -0.071 N 
ATOM     10  H22 UNL     1      15.459 -13.070  10.454  1.00  0.00     0.277 HD
ATOM     11  H21 UNL     1      14.183 -12.949   9.611  1.00  0.00     0.277 HD
BRANCH   9  12
HETATM   12  C5  UNL     1      14.525 -14.920  10.205  1.00  0.00     0.185 C 
HETATM   13  C6  UNL     1      13.153 -14.862  10.794  1.00  0.00     0.033 C 
HETATM   14  C7  UNL     1      12.776 -16.245  11.311  1.00  0.00     0.002 C 
HETATM   15  C8  UNL     1      13.755 -16.597  12.406  1.00  0.00     0.000 C 
HETATM   16  C9  UNL     1      15.107 -16.772  11.743  1.00  0.00     0.002 C 
HETATM   17  C10 UNL     1      15.577 -15.470  11.133  1.00  0.00     0.033 C 
ENDBRANCH   9  12
ENDBRANCH   8   9
ENDBRANCH   7   8
ENDBRANCH   1   7
BRANCH   1  18
HETATM   18  N3  UNL     1      12.746 -14.674   7.110  1.00  0.00    -0.362 N 
HETATM   19  C11 UNL     1      12.014 -15.880   7.067  1.00  0.00     0.154 C 
HETATM   20  C12 UNL     1      10.880 -15.764   8.065  1.00  0.00     0.188 C 
HETATM   21  O1  UNL     1      10.063 -14.747   7.716  1.00  0.00    -0.385 OA
HETATM   22  C13 UNL     1      10.523 -13.713   6.990  1.00  0.00     0.212 C 
HETATM   23  C14 UNL     1      12.018 -13.484   6.961  1.00  0.00     0.089 C 
ENDBRANCH   1  18
TORSDOF 7
ENDMDL
MODEL 3
REMARK VINA RESULT: -6.203838651      2.061      3.905
REMARK  7 active torsions:
REMARK  status: ('A' for Active; 'I' for Inactive)
REMARK    1  A    between atoms: N1_1  and  C1_5 
REMARK    2  A    between atoms: C1_5  and  C2_6 
REMARK    3  A    between atoms: C2_6  and  C3_7 
REMARK    4  A    between atoms: C2_6  and  N3_18 
REMARK    5  A    between atoms: C3_7  and  C4_8 
REMARK    6  A    between atoms: C4_8  and  N2_9 
REMARK    7  A    between atoms: N2_9  and  C5_12 
ROOT
HETATM    1  C2  UNL     1      12.203 -14.764   7.301  1.00  0.00     0.015 C 
ENDROOT
BRANCH   1   2
HETATM    2  C1  UNL     1      11.372 -13.548   6.966  1.00  0.00     0.282 C 
BRANCH   2   3
HETATM    3  N1  UNL     1      10.042 -13.882   6.492  1.00  0.00    -0.074 N 
ATOM      4  H13 UNL     1      10.003 -14.849   6.168  1.00  0.00     0.274 HD
ATOM      5  H12 UNL     1       9.383 -13.939   7.269  1.00  0.00     0.274 HD
ATOM      6  H11 UNL     1       9.702 -13.243   5.773  1.00  0.00     0.274 HD
ENDBRANCH   2   3
ENDBRANCH   1   2
BRANCH   1   7
HETATM    7  C3  UNL     1      11.424 -16.014   6.955  1.00  0.00     0.082 C 
BRANCH   7   8
HETATM    8  C4  UNL     1      11.398 -16.925   8.189  1.00  0.00     0.238 C 
BRANCH   8   9
HETATM    9  N2  UNL     1      11.280 -16.232   9.427  1.00  0.00    -0.071 N 
ATOM     10  H22 UNL     1      11.396 -15.224   9.329  1.00  0.00     0.277 HD
ATOM     11  H21 UNL     1      10.326 -16.224   9.787  1.00  0.00     0.277 HD
BRANCH   9  12
HETATM   12  C5  UNL     1      12.238 -16.826  10.368  1.00  0.00     0.185 C 
HETATM   13  C6  UNL     1      11.573 -17.200  11.653  1.00  0.00     0.033 C 
HETATM   14  C7  UNL     1      12.620 -17.758  12.609  1.00  0.00     0.002 C 
HETATM   15  C8  UNL     1      13.611 -16.652  12.885  1.00  0.00     0.000 C 
HETATM   16  C9  UNL     1      14.351 -16.395  11.587  1.00  0.00     0.002 C 
HETATM   17  C10 UNL     1      13.405 -15.884  10.523  1.00  0.00     0.033 C 
ENDBRANCH   9  12
ENDBRANCH   8   9
ENDBRANCH   7   8
ENDBRANCH   1   7
BRANCH   1  18
HETATM   18  N3  UNL     1      13.550 -14.727   7.031  1.00  0.00    -0.362 N 
HETATM   19  C11 UNL     1      14.299 -13.668   7.591  1.00  0.00     0.154 C 
HETATM   20  C12 UNL     1      15.659 -14.218   7.970  1.00  0.00     0.188 C 
HETATM   21  O1  UNL     1      16.297 -14.666   6.868  1.00  0.00    -0.385 OA
HETATM   22  C13 UNL     1      15.605 -15.074   5.790  1.00  0.00     0.212 C 
HETATM   23  C14 UNL     1      14.151 -15.446   5.987  1.00  0.00     0.089 C 
ENDBRANCH   1  18
TORSDOF 7
ENDMDL
MODEL 4
REMARK VINA RESULT: -6.136121126      3.298      4.856
REMARK  7 active torsions:
REMARK  status: ('A' for Active; 'I' for Inactive)
REMARK    1  A    between atoms: N1_1  and  C1_5 
REMARK    2  A    between atoms: C1_5  and  C2_6 
REMARK    3  A    between atoms: C2_6  and  C3_7 
REMARK    4  A    between atoms: C2_6  and  N3_18 
REMARK    5  A    between atoms: C3_7  and  C4_8 
REMARK    6  A    between atoms: C4_8  and  N2_9 
REMARK    7  A    between atoms: N2_9  and  C5_12 
ROOT
HETATM    1  C2  UNL     1      15.209 -12.250   5.809  1.00  0.00     0.015 C 
ENDROOT
BRANCH   1   2
HETATM    2  C1  UNL     1      16.031 -12.669   4.613  1.00  0.00     0.282 C 
BRANCH   2   3
HETATM    3  N1  UNL     1      17.460 -12.638   4.868  1.00  0.00    -0.074 N 
ATOM      4  H13 UNL     1      17.874 -11.774   4.518  1.00  0.00     0.274 HD
ATOM      5  H12 UNL     1      17.649 -12.522   5.863  1.00  0.00     0.274 HD
ATOM      6  H11 UNL     1      17.949 -13.452   4.496  1.00  0.00     0.274 HD
ENDBRANCH   2   3
ENDBRANCH   1   2
BRANCH   1   7
HETATM    7  C3  UNL     1      15.875 -12.744   7.074  1.00  0.00     0.082 C 
BRANCH   7   8
HETATM    8  C4  UNL     1      14.874 -13.623   7.836  1.00  0.00     0.238 C 
BRANCH   8   9
HETATM    9  N2  UNL     1      14.258 -14.633   7.045  1.00  0.00    -0.071 N 
ATOM     10  H22 UNL     1      14.376 -14.477   6.044  1.00  0.00     0.277 HD
ATOM     11  H21 UNL     1      14.741 -15.529   7.101  1.00  0.00     0.277 HD
BRANCH   9  12
HETATM   12  C5  UNL     1      12.849 -14.720   7.446  1.00  0.00     0.185 C 
HETATM   13  C6  UNL     1      12.267 -16.050   7.089  1.00  0.00     0.033 C 
HETATM   14  C7  UNL     1      10.793 -16.066   7.475  1.00  0.00     0.002 C 
HETATM   15  C8  UNL     1      10.102 -15.003   6.654  1.00  0.00     0.000 C 
HETATM   16  C9  UNL     1      10.628 -13.667   7.137  1.00  0.00     0.002 C 
HETATM   17  C10 UNL     1      12.110 -13.542   6.862  1.00  0.00     0.033 C 
ENDBRANCH   9  12
ENDBRANCH   8   9
ENDBRANCH   7   8
ENDBRANCH   1   7
BRANCH   1  18
HETATM   18  N3  UNL     1      14.643 -10.998   5.804  1.00  0.00    -0.362 N 
HETATM   19  C11 UNL     1      13.548 -10.780   4.939  1.00  0.00     0.154 C 
HETATM   20  C12 UNL     1      12.584  -9.848   5.644  1.00  0.00     0.188 C 
HETATM   21  O1  UNL     1      13.186  -8.664   5.889  1.00  0.00    -0.385 OA
HETATM   22  C13 UNL     1      14.523  -8.584   6.014  1.00  0.00     0.212 C 
HETATM   23  C14 UNL     1      15.277  -9.859   6.323  1.00  0.00     0.089 C 
ENDBRANCH   1  18
TORSDOF 7
ENDMDL
MODEL 5
REMARK VINA RESULT: -6.113163206      1.984      5.069
REMARK  7 active torsions:
REMARK  status: ('A' for Active; 'I' for Inactive)
REMARK    1  A    between atoms: N1_1  and  C1_5 
REMARK    2  A    between atoms: C1_5  and  C2_6 
REMARK    3  A    between atoms: C2_6  and  C3_7 
REMARK    4  A    between atoms: C2_6  and  N3_18 
REMARK    5  A    between atoms: C3_7  and  C4_8 
REMARK    6  A    between atoms: C4_8  and  N2_9 
REMARK    7  A    between atoms: N2_9  and  C5_12 
ROOT
HETATM    1  C2  UNL     1      14.375 -15.044  10.818  1.00  0.00     0.015 C 
ENDROOT
BRANCH   1   2
HETATM    2  C1  UNL     1      15.845 -15.262  10.551  1.00  0.00     0.282 C 
BRANCH   2   3
HETATM    3  N1  UNL     1      16.406 -16.357  11.321  1.00  0.00    -0.074 N 
ATOM      4  H13 UNL     1      15.788 -16.616  12.090  1.00  0.00     0.274 HD
ATOM      5  H12 UNL     1      16.384 -17.226  10.788  1.00  0.00     0.274 HD
ATOM      6  H11 UNL     1      17.348 -16.163  11.662  1.00  0.00     0.274 HD
ENDBRANCH   2   3
ENDBRANCH   1   2
BRANCH   1   7
HETATM    7  C3  UNL     1      13.825 -14.050   9.819  1.00  0.00     0.082 C 
BRANCH   7   8
HETATM    8  C4  UNL     1      14.766 -14.010   8.608  1.00  0.00     0.238 C 
BRANCH   8   9
HETATM    9  N2  UNL     1      14.120 -13.723   7.372  1.00  0.00    -0.071 N 
ATOM     10  H22 UNL     1      14.172 -12.737   7.119  1.00  0.00     0.277 HD
ATOM     11  H21 UNL     1      14.621 -14.097   6.567  1.00  0.00     0.277 HD
BRANCH   9  12
HETATM   12  C5  UNL     1      12.740 -14.216   7.462  1.00  0.00     0.185 C 
HETATM   13  C6  UNL     1      12.596 -15.545   6.794  1.00  0.00     0.033 C 
HETATM   14  C7  UNL     1      11.139 -15.982   6.867  1.00  0.00     0.002 C 
HETATM   15  C8  UNL     1      10.326 -14.968   6.099  1.00  0.00     0.000 C 
HETATM   16  C9  UNL     1      10.395 -13.671   6.880  1.00  0.00     0.002 C 
HETATM   17  C10 UNL     1      11.814 -13.151   6.932  1.00  0.00     0.033 C 
ENDBRANCH   9  12
ENDBRANCH   8   9
ENDBRANCH   7   8
ENDBRANCH   1   7
BRANCH   1  18
HETATM   18  N3  UNL     1      13.607 -16.130  11.163  1.00  0.00    -0.362 N 
HETATM   19  C11 UNL     1      12.642 -16.569  10.231  1.00  0.00     0.154 C 
HETATM   20  C12 UNL     1      12.588 -18.082  10.304  1.00  0.00     0.188 C 
HETATM   21  O1  UNL     1      12.206 -18.468  11.539  1.00  0.00    -0.385 OA
HETATM   22  C13 UNL     1      12.426 -17.680  12.606  1.00  0.00     0.212 C 
HETATM   23  C14 UNL     1      13.479 -16.602  12.478  1.00  0.00     0.089 C 
ENDBRANCH   1  18
TORSDOF 7
ENDMDL
