MODEL 1
REMARK VINA RESULT: -6.499894798      0.000      0.000
REMARK  6 active torsions:
REMARK  status: ('A' for Active; 'I' for Inactive)
REMARK    1  A    between atoms: C2_2  and  N1_3 
REMARK    2  A    between atoms: N1_3  and  C4_5 
REMARK    3  A    between atoms: C4_5  and  C5_6 
REMARK    4  A    between atoms: C8_9  and  N2_10 
REMARK    5  A    between atoms: N2_10  and  C9_12 
REMARK    6  A    between atoms: C9_12  and  C10_13 
ROOT
HETATM    1  C5  UNL     1      12.322 -13.833   7.050  1.00  0.00     0.155 C 
HETATM    2  C6  UNL     1      11.148 -12.921   6.819  1.00  0.00     0.052 C 
HETATM    3  C7  UNL     1      12.234 -14.262   8.523  1.00  0.00     0.070 C 
HETATM    4  C8  UNL     1      11.369 -15.459   8.435  1.00  0.00     0.105 C 
HETATM    5  C14 UNL     1      11.847 -16.119   7.162  1.00  0.00     0.258 C 
HETATM    6  N3  UNL     1      12.144 -15.046   6.273  1.00  0.00    -0.060 N 
ATOM      7  H31 UNL     1      12.945 -15.247   5.674  1.00  0.00     0.278 HD
ATOM      8  H32 UNL     1      11.442 -14.941   5.540  1.00  0.00     0.278 HD
ENDROOT
BRANCH   4   9
HETATM    9  N2  UNL     1      11.420 -16.346   9.553  1.00  0.00    -0.413 N 
ATOM     10  H2  UNL     1      11.002 -16.102  10.451  1.00  0.00     0.153 HD
BRANCH   9  11
HETATM   11  C9  UNL     1      12.078 -17.574   9.352  1.00  0.00     0.146 C 
BRANCH  11  12
HETATM   12  C10 UNL     1      13.052 -17.772  10.525  1.00  0.00     0.138 C 
HETATM   13  C11 UNL     1      13.518 -16.439  11.012  1.00  0.00     0.035 C 
HETATM   14  C12 UNL     1      12.666 -16.245  12.254  1.00  0.00     0.029 C 
HETATM   15  C13 UNL     1      12.467 -17.684  12.679  1.00  0.00     0.168 C 
HETATM   16  O1  UNL     1      12.385 -18.432  11.515  1.00  0.00    -0.384 OA
ENDBRANCH  11  12
ENDBRANCH   9  11
ENDBRANCH   4   9
BRANCH   1  17
HETATM   17  C4  UNL     1      13.661 -13.191   6.779  1.00  0.00     0.101 C 
BRANCH  17  18
HETATM   18  N1  UNL     1      14.804 -13.940   7.081  1.00  0.00    -0.376 N 
HETATM   19  C3  UNL     1      15.361 -14.728   6.043  1.00  0.00     0.154 C 
BRANCH  18  20
HETATM   20  C2  UNL     1      15.601 -13.629   8.192  1.00  0.00     0.058 C 
HETATM   21  C1  UNL     1      16.589 -12.495   7.944  1.00  0.00     0.055 C 
ENDBRANCH  18  20
ENDBRANCH  17  18
ENDBRANCH   1  17
TORSDOF 6
ENDMDL
MODEL 2
REMARK VINA RESULT: -6.425637726      2.438      3.707
REMARK  6 active torsions:
REMARK  status: ('A' for Active; 'I' for Inactive)
REMARK    1  A    between atoms: C2_2  and  N1_3 
REMARK    2  A    between atoms: N1_3  and  C4_5 
REMARK    3  A    between atoms: C4_5  and  C5_6 
REMARK    4  A    between atoms: C8_9  and  N2_10 
REMARK    5  A    between atoms: N2_10  and  C9_12 
REMARK    6  A    between atoms: C9_12  and  C10_13 
ROOT
HETATM    1  C5  UNL     1      15.060 -12.985   6.484  1.00  0.00     0.155 C 
HETATM    2  C6  UNL     1      15.630 -14.006   5.538  1.00  0.00     0.052 C 
HETATM    3  C7  UNL     1      14.385 -13.788   7.607  1.00  0.00     0.070 C 
HETATM    4  C8  UNL     1      15.506 -13.983   8.552  1.00  0.00     0.105 C 
HETATM    5  C14 UNL     1      16.232 -12.660   8.481  1.00  0.00     0.258 C 
HETATM    6  N3  UNL     1      16.148 -12.260   7.116  1.00  0.00    -0.060 N 
ATOM      7  H31 UNL     1      16.056 -11.250   7.011  1.00  0.00     0.278 HD
ATOM      8  H32 UNL     1      17.032 -12.374   6.620  1.00  0.00     0.278 HD
ENDROOT
BRANCH   4   9
HETATM    9  N2  UNL     1      15.138 -14.324   9.889  1.00  0.00    -0.413 N 
ATOM     10  H2  UNL     1      15.838 -14.495  10.611  1.00  0.00     0.153 HD
BRANCH   9  11
HETATM   11  C9  UNL     1      13.760 -14.410  10.160  1.00  0.00     0.146 C 
BRANCH  11  12
HETATM   12  C10 UNL     1      13.418 -15.899  10.340  1.00  0.00     0.138 C 
HETATM   13  C11 UNL     1      14.355 -16.506  11.333  1.00  0.00     0.035 C 
HETATM   14  C12 UNL     1      13.495 -16.552  12.584  1.00  0.00     0.029 C 
HETATM   15  C13 UNL     1      12.121 -16.708  11.969  1.00  0.00     0.168 C 
HETATM   16  O1  UNL     1      12.132 -15.981  10.789  1.00  0.00    -0.384 OA
ENDBRANCH  11  12
ENDBRANCH   9  11
ENDBRANCH   4   9
BRANCH   1  17
HETATM   17  C4  UNL     1      14.063 -12.047   5.848  1.00  0.00     0.101 C 
BRANCH  17  18
HETATM   18  N1  UNL     1      14.560 -10.858   5.303  1.00  0.00    -0.376 N 
HETATM   19  C3  UNL     1      15.203 -10.936   4.043  1.00  0.00     0.154 C 
BRANCH  18  20
HETATM   20  C2  UNL     1      14.100  -9.610   5.748  1.00  0.00     0.058 C 
HETATM   21  C1  UNL     1      12.590  -9.437   5.645  1.00  0.00     0.055 C 
ENDBRANCH  18  20
ENDBRANCH  17  18
ENDBRANCH   1  17
TORSDOF 6
ENDMDL
MODEL 3
REMARK VINA RESULT: -6.418467065      1.995      5.138
REMARK  6 active torsions:
REMARK  status: ('A' for Active; 'I' for Inactive)
REMARK    1  A    between atoms: C2_2  and  N1_3 
REMARK    2  A    between atoms: N1_3  and  C4_5 
REMARK    3  A    between atoms: C4_5  and  C5_6 
REMARK    4  A    between atoms: C8_9  and  N2_10 
REMARK    5  A    between atoms: N2_10  and  C9_12 
REMARK    6  A    between atoms: C9_12  and  C10_13 
ROOT
HETATM    1  C5  UNL     1      11.791 -16.412   8.797  1.00  0.00     0.155 C 
HETATM    2  C6  UNL     1      10.384 -16.724   8.363  1.00  0.00     0.052 C 
HETATM    3  C7  UNL     1      12.637 -16.433   7.515  1.00  0.00     0.070 C 
HETATM    4  C8  UNL     1      12.511 -15.034   7.049  1.00  0.00     0.105 C 
HETATM    5  C14 UNL     1      12.557 -14.251   8.341  1.00  0.00     0.258 C 
HETATM    6  N3  UNL     1      11.848 -15.047   9.287  1.00  0.00    -0.060 N 
ATOM      7  H31 UNL     1      12.244 -14.984  10.224  1.00  0.00     0.278 HD
ATOM      8  H32 UNL     1      10.924 -14.670   9.499  1.00  0.00     0.278 HD
ENDROOT
BRANCH   4   9
HETATM    9  N2  UNL     1      13.502 -14.597   6.119  1.00  0.00    -0.413 N 
ATOM     10  H2  UNL     1      13.424 -13.704   5.633  1.00  0.00     0.153 HD
BRANCH   9  11
HETATM   11  C9  UNL     1      14.592 -15.462   5.909  1.00  0.00     0.146 C 
BRANCH  11  12
HETATM   12  C10 UNL     1      15.877 -14.643   6.116  1.00  0.00     0.138 C 
HETATM   13  C11 UNL     1      15.651 -13.242   5.651  1.00  0.00     0.035 C 
HETATM   14  C12 UNL     1      15.430 -12.510   6.964  1.00  0.00     0.029 C 
HETATM   15  C13 UNL     1      16.276 -13.352   7.895  1.00  0.00     0.168 C 
HETATM   16  O1  UNL     1      16.172 -14.659   7.448  1.00  0.00    -0.384 OA
ENDBRANCH  11  12
ENDBRANCH   9  11
ENDBRANCH   4   9
BRANCH   1  17
HETATM   17  C4  UNL     1      12.353 -17.387   9.803  1.00  0.00     0.101 C 
BRANCH  17  18
HETATM   18  N1  UNL     1      12.830 -16.859  11.009  1.00  0.00    -0.376 N 
HETATM   19  C3  UNL     1      11.935 -16.830  12.107  1.00  0.00     0.154 C 
BRANCH  18  20
HETATM   20  C2  UNL     1      14.205 -16.750  11.258  1.00  0.00     0.058 C 
HETATM   21  C1  UNL     1      14.801 -15.408  10.854  1.00  0.00     0.055 C 
ENDBRANCH  18  20
ENDBRANCH  17  18
ENDBRANCH   1  17
TORSDOF 6
ENDMDL
MODEL 4
REMARK VINA RESULT: -6.417782415      3.068      4.985
REMARK  6 active torsions:
REMARK  status: ('A' for Active; 'I' for Inactive)
REMARK    1  A    between atoms: C2_2  and  N1_3 
REMARK    2  A    between atoms: N1_3  and  C4_5 
REMARK    3  A    between atoms: C4_5  and  C5_6 
REMARK    4  A    between atoms: C8_9  and  N2_10 
REMARK    5  A    between atoms: N2_10  and  C9_12 
REMARK    6  A    between atoms: C9_12  and  C10_13 
ROOT
HETATM    1  C5  UNL     1      15.190 -11.860   5.942  1.00  0.00     0.155 C 
HETATM    2  C6  UNL     1      15.928 -12.334   4.719  1.00  0.00     0.052 C 
HETATM    3  C7  UNL     1      14.000 -12.817   6.109  1.00  0.00     0.070 C 
HETATM    4  C8  UNL     1      14.594 -13.895   6.931  1.00  0.00     0.105 C 
HETATM    5  C14 UNL     1      15.485 -13.130   7.883  1.00  0.00     0.258 C 
HETATM    6  N3  UNL     1      16.027 -12.061   7.112  1.00  0.00    -0.060 N 
ATOM      7  H31 UNL     1      16.146 -11.208   7.658  1.00  0.00     0.278 HD
ATOM      8  H32 UNL     1      17.006 -12.212   6.870  1.00  0.00     0.278 HD
ENDROOT
BRANCH   4   9
HETATM    9  N2  UNL     1      13.666 -14.734   7.619  1.00  0.00    -0.413 N 
ATOM     10  H2  UNL     1      13.511 -14.650   8.623  1.00  0.00     0.153 HD
BRANCH   9  11
HETATM   11  C9  UNL     1      12.978 -15.682   6.839  1.00  0.00     0.146 C 
BRANCH  11  12
HETATM   12  C10 UNL     1      11.504 -15.656   7.277  1.00  0.00     0.138 C 
HETATM   13  C11 UNL     1      11.223 -14.376   7.994  1.00  0.00     0.035 C 
HETATM   14  C12 UNL     1      10.520 -13.565   6.920  1.00  0.00     0.029 C 
HETATM   15  C13 UNL     1       9.863 -14.672   6.124  1.00  0.00     0.168 C 
HETATM   16  O1  UNL     1      10.734 -15.750   6.155  1.00  0.00    -0.384 OA
ENDBRANCH  11  12
ENDBRANCH   9  11
ENDBRANCH   4   9
BRANCH   1  17
HETATM   17  C4  UNL     1      14.699 -10.436   5.849  1.00  0.00     0.101 C 
BRANCH  17  18
HETATM   18  N1  UNL     1      13.563 -10.200   5.068  1.00  0.00    -0.376 N 
HETATM   19  C3  UNL     1      12.395  -9.754   5.734  1.00  0.00     0.154 C 
BRANCH  18  20
HETATM   20  C2  UNL     1      13.664 -10.005   3.683  1.00  0.00     0.058 C 
HETATM   21  C1  UNL     1      14.774  -9.044   3.274  1.00  0.00     0.055 C 
ENDBRANCH  18  20
ENDBRANCH  17  18
ENDBRANCH   1  17
TORSDOF 6
ENDMDL
MODEL 5
REMARK VINA RESULT: -6.311655105      0.927      1.131
REMARK  6 active torsions:
REMARK  status: ('A' for Active; 'I' for Inactive)
REMARK    1  A    between atoms: C2_2  and  N1_3 
REMARK    2  A    between atoms: N1_3  and  C4_5 
REMARK    3  A    between atoms: C4_5  and  C5_6 
REMARK    4  A    between atoms: C8_9  and  N2_10 
REMARK    5  A    between atoms: N2_10  and  C9_12 
REMARK    6  A    between atoms: C9_12  and  C10_13 
ROOT
HETATM    1  C5  UNL     1      12.291 -13.937   7.098  1.00  0.00     0.155 C 
HETATM    2  C6  UNL     1      11.101 -13.051   6.846  1.00  0.00     0.052 C 
HETATM    3  C7  UNL     1      12.197 -14.351   8.574  1.00  0.00     0.070 C 
HETATM    4  C8  UNL     1      11.357 -15.566   8.492  1.00  0.00     0.105 C 
HETATM    5  C14 UNL     1      11.860 -16.231   7.231  1.00  0.00     0.258 C 
HETATM    6  N3  UNL     1      12.144 -15.162   6.333  1.00  0.00    -0.060 N 
ATOM      7  H31 UNL     1      12.954 -15.353   5.743  1.00  0.00     0.278 HD
ATOM      8  H32 UNL     1      11.447 -15.079   5.593  1.00  0.00     0.278 HD
ENDROOT
BRANCH   4   9
HETATM    9  N2  UNL     1      11.415 -16.439   9.620  1.00  0.00    -0.413 N 
ATOM     10  H2  UNL     1      10.608 -16.588  10.225  1.00  0.00     0.153 HD
BRANCH   9  11
HETATM   11  C9  UNL     1      12.645 -17.084   9.854  1.00  0.00     0.146 C 
BRANCH  11  12
HETATM   12  C10 UNL     1      13.493 -16.151  10.736  1.00  0.00     0.138 C 
HETATM   13  C11 UNL     1      12.810 -15.955  12.049  1.00  0.00     0.035 C 
HETATM   14  C12 UNL     1      13.595 -16.892  12.951  1.00  0.00     0.029 C 
HETATM   15  C13 UNL     1      14.949 -16.853  12.277  1.00  0.00     0.168 C 
HETATM   16  O1  UNL     1      14.709 -16.741  10.917  1.00  0.00    -0.384 OA
ENDBRANCH  11  12
ENDBRANCH   9  11
ENDBRANCH   4   9
BRANCH   1  17
HETATM   17  C4  UNL     1      13.619 -13.271   6.831  1.00  0.00     0.101 C 
BRANCH  17  18
HETATM   18  N1  UNL     1      14.773 -14.010   7.113  1.00  0.00    -0.376 N 
HETATM   19  C3  UNL     1      15.352 -14.748   6.051  1.00  0.00     0.154 C 
BRANCH  18  20
HETATM   20  C2  UNL     1      15.558 -13.726   8.240  1.00  0.00     0.058 C 
HETATM   21  C1  UNL     1      16.562 -12.600   8.025  1.00  0.00     0.055 C 
ENDBRANCH  18  20
ENDBRANCH  17  18
ENDBRANCH   1  17
TORSDOF 6
ENDMDL
