MODEL 1
REMARK VINA RESULT: -9.503845107      0.000      0.000
REMARK  7 active torsions:
REMARK  status: ('A' for Active; 'I' for Inactive)
REMARK    1  A    between atoms: C5_5  and  S1_6 
REMARK    2  A    between atoms: S1_6  and  N1_9 
REMARK    3  A    between atoms: N1_9  and  C6_11 
REMARK    4  A    between atoms: C6_11  and  C7_12 
REMARK    5  A    between atoms: C7_12  and  N2_13 
REMARK    6  A    between atoms: N2_13  and  S2_15 
REMARK    7  A    between atoms: S2_15  and  C8_18 
ROOT
HETATM    1  C6  UNL     1      29.981  23.381  12.575  1.00  0.00     0.152 C 
ENDROOT
BRANCH   1   2
HETATM    2  N1  UNL     1      30.942  23.457  11.497  1.00  0.00    -0.314 N 
ATOM      3  H1  UNL     1      31.662  24.177  11.429  1.00  0.00     0.172 HD
BRANCH   2   4
HETATM    4  S1  UNL     1      30.737  22.195  10.340  1.00  0.00     0.258 S 
HETATM    5  O1  UNL     1      29.404  22.241   9.684  1.00  0.00    -0.201 OA
HETATM    6  O2  UNL     1      30.970  20.895  11.062  1.00  0.00    -0.201 OA
BRANCH   4   7
HETATM    7  C5  UNL     1      31.971  22.389   9.121  1.00  0.00     0.079 A 
HETATM    8  C4  UNL     1      31.787  21.778   7.904  1.00  0.00     0.026 A 
HETATM    9  C3  UNL     1      32.732  21.903   6.915  1.00  0.00     0.008 A 
HETATM   10  C2  UNL     1      33.856  22.655   7.194  1.00  0.00    -0.062 A 
HETATM   11  C1  UNL     1      34.888  22.800   6.134  1.00  0.00     0.048 C 
HETATM   12  C14 UNL     1      34.034  23.266   8.421  1.00  0.00     0.008 A 
HETATM   13  C13 UNL     1      33.078  23.140   9.417  1.00  0.00     0.026 A 
ENDBRANCH   4   7
ENDBRANCH   2   4
ENDBRANCH   1   2
BRANCH   1  14
HETATM   14  C7  UNL     1      30.767  23.384  13.869  1.00  0.00     0.152 C 
BRANCH  14  15
HETATM   15  N2  UNL     1      29.934  22.988  14.991  1.00  0.00    -0.314 N 
ATOM     16  H2  UNL     1      29.396  23.643  15.557  1.00  0.00     0.172 HD
BRANCH  15  17
HETATM   17  S2  UNL     1      29.957  21.302  15.253  1.00  0.00     0.260 S 
HETATM   18  O3  UNL     1      30.937  20.592  14.356  1.00  0.00    -0.200 OA
HETATM   19  O4  UNL     1      30.386  21.068  16.682  1.00  0.00    -0.200 OA
BRANCH  17  20
HETATM   20  C8  UNL     1      28.366  20.624  15.068  1.00  0.00     0.094 A 
HETATM   21  C9  UNL     1      27.371  21.222  14.314  1.00  0.00     0.028 A 
HETATM   22  C10 UNL     1      26.125  20.615  14.216  1.00  0.00     0.019 A 
HETATM   23  C11 UNL     1      25.857  19.423  14.858  1.00  0.00     0.087 A 
HETATM   24  N3  UNL     1      26.842  18.865  15.584  1.00  0.00    -0.374 N 
HETATM   25  C12 UNL     1      28.070  19.428  15.701  1.00  0.00     0.112 A 
ATOM     26  H3  UNL     1      26.659  17.983  16.064  1.00  0.00     0.164 HD
ENDBRANCH  17  20
ENDBRANCH  15  17
ENDBRANCH  14  15
ENDBRANCH   1  14
TORSDOF 7
ENDMDL
MODEL 2
REMARK VINA RESULT: -9.493685205      3.124      6.851
REMARK  7 active torsions:
REMARK  status: ('A' for Active; 'I' for Inactive)
REMARK    1  A    between atoms: C5_5  and  S1_6 
REMARK    2  A    between atoms: S1_6  and  N1_9 
REMARK    3  A    between atoms: N1_9  and  C6_11 
REMARK    4  A    between atoms: C6_11  and  C7_12 
REMARK    5  A    between atoms: C7_12  and  N2_13 
REMARK    6  A    between atoms: N2_13  and  S2_15 
REMARK    7  A    between atoms: S2_15  and  C8_18 
ROOT
HETATM    1  C6  UNL     1      30.849  23.339  13.608  1.00  0.00     0.152 C 
ENDROOT
BRANCH   1   2
HETATM    2  N1  UNL     1      29.985  23.086  14.740  1.00  0.00    -0.314 N 
ATOM      3  H1  UNL     1      29.344  23.777  15.130  1.00  0.00     0.172 HD
BRANCH   2   4
HETATM    4  S1  UNL     1      30.159  21.484  15.358  1.00  0.00     0.258 S 
HETATM    5  O1  UNL     1      30.568  21.471  16.786  1.00  0.00    -0.201 OA
HETATM    6  O2  UNL     1      31.155  20.780  14.476  1.00  0.00    -0.201 OA
BRANCH   4   7
HETATM    7  C5  UNL     1      28.614  20.688  15.206  1.00  0.00     0.079 A 
HETATM    8  C4  UNL     1      27.623  21.320  14.492  1.00  0.00     0.026 A 
HETATM    9  C3  UNL     1      26.390  20.731  14.348  1.00  0.00     0.008 A 
HETATM   10  C2  UNL     1      26.194  19.499  14.942  1.00  0.00    -0.062 A 
HETATM   11  C1  UNL     1      24.866  18.850  14.794  1.00  0.00     0.048 C 
HETATM   12  C14 UNL     1      27.195  18.872  15.659  1.00  0.00     0.008 A 
HETATM   13  C13 UNL     1      28.439  19.467  15.803  1.00  0.00     0.026 A 
ENDBRANCH   4   7
ENDBRANCH   2   4
ENDBRANCH   1   2
BRANCH   1  14
HETATM   14  C7  UNL     1      29.991  23.234  12.365  1.00  0.00     0.152 C 
BRANCH  14  15
HETATM   15  N2  UNL     1      30.809  23.144  11.168  1.00  0.00    -0.314 N 
ATOM     16  H2  UNL     1      31.616  23.741  10.986  1.00  0.00     0.172 HD
BRANCH  15  17
HETATM   17  S2  UNL     1      30.267  21.926  10.103  1.00  0.00     0.260 S 
HETATM   18  O3  UNL     1      29.097  22.372   9.265  1.00  0.00    -0.200 OA
HETATM   19  O4  UNL     1      31.407  21.598   9.167  1.00  0.00    -0.200 OA
BRANCH  17  20
HETATM   20  C8  UNL     1      29.871  20.473  10.972  1.00  0.00     0.094 A 
HETATM   21  C9  UNL     1      28.571  20.097  11.265  1.00  0.00     0.028 A 
HETATM   22  C10 UNL     1      28.338  18.919  11.964  1.00  0.00     0.019 A 
HETATM   23  C11 UNL     1      29.381  18.113  12.375  1.00  0.00     0.087 A 
HETATM   24  N3  UNL     1      30.633  18.503  12.077  1.00  0.00    -0.374 N 
HETATM   25  C12 UNL     1      30.897  19.645  11.396  1.00  0.00     0.112 A 
ATOM     26  H3  UNL     1      31.413  17.917  12.374  1.00  0.00     0.164 HD
ENDBRANCH  17  20
ENDBRANCH  15  17
ENDBRANCH  14  15
ENDBRANCH   1  14
TORSDOF 7
ENDMDL
MODEL 3
REMARK VINA RESULT: -9.482711406      1.538      1.991
REMARK  7 active torsions:
REMARK  status: ('A' for Active; 'I' for Inactive)
REMARK    1  A    between atoms: C5_5  and  S1_6 
REMARK    2  A    between atoms: S1_6  and  N1_9 
REMARK    3  A    between atoms: N1_9  and  C6_11 
REMARK    4  A    between atoms: C6_11  and  C7_12 
REMARK    5  A    between atoms: C7_12  and  N2_13 
REMARK    6  A    between atoms: N2_13  and  S2_15 
REMARK    7  A    between atoms: S2_15  and  C8_18 
ROOT
HETATM    1  C6  UNL     1      29.795  20.079  11.598  1.00  0.00     0.152 C 
ENDROOT
BRANCH   1   2
HETATM    2  N1  UNL     1      30.975  20.562  10.917  1.00  0.00    -0.314 N 
ATOM      3  H1  UNL     1      31.818  20.005  10.778  1.00  0.00     0.172 HD
BRANCH   2   4
HETATM    4  S1  UNL     1      30.799  22.188  10.365  1.00  0.00     0.258 S 
HETATM    5  O1  UNL     1      30.854  23.171  11.478  1.00  0.00    -0.201 OA
HETATM    6  O2  UNL     1      29.499  22.256   9.611  1.00  0.00    -0.201 OA
BRANCH   4   7
HETATM    7  C5  UNL     1      32.108  22.515   9.259  1.00  0.00     0.079 A 
HETATM    8  C4  UNL     1      33.116  23.354   9.671  1.00  0.00     0.026 A 
HETATM    9  C3  UNL     1      34.166  23.641   8.833  1.00  0.00     0.008 A 
HETATM   10  C2  UNL     1      34.164  23.060   7.580  1.00  0.00    -0.062 A 
HETATM   11  C1  UNL     1      35.293  23.360   6.662  1.00  0.00     0.048 C 
HETATM   12  C14 UNL     1      33.146  22.218   7.172  1.00  0.00     0.008 A 
HETATM   13  C13 UNL     1      32.087  21.929   8.020  1.00  0.00     0.026 A 
ENDBRANCH   4   7
ENDBRANCH   2   4
ENDBRANCH   1   2
BRANCH   1  14
HETATM   14  C7  UNL     1      30.215  19.718  13.007  1.00  0.00     0.152 C 
BRANCH  14  15
HETATM   15  N2  UNL     1      30.772  20.866  13.700  1.00  0.00    -0.314 N 
ATOM     16  H2  UNL     1      31.645  21.321  13.433  1.00  0.00     0.172 HD
BRANCH  15  17
HETATM   17  S2  UNL     1      29.801  21.368  15.010  1.00  0.00     0.260 S 
HETATM   18  O3  UNL     1      30.414  21.033  16.344  1.00  0.00    -0.200 OA
HETATM   19  O4  UNL     1      29.665  22.870  14.929  1.00  0.00    -0.200 OA
BRANCH  17  20
HETATM   20  C8  UNL     1      28.203  20.693  14.892  1.00  0.00     0.094 A 
HETATM   21  C9  UNL     1      27.196  21.259  14.128  1.00  0.00     0.028 A 
HETATM   22  C10 UNL     1      25.944  20.656  14.087  1.00  0.00     0.019 A 
HETATM   23  C11 UNL     1      25.683  19.501  14.795  1.00  0.00     0.087 A 
HETATM   24  N3  UNL     1      26.680  18.973  15.528  1.00  0.00    -0.374 N 
HETATM   25  C12 UNL     1      27.913  19.533  15.591  1.00  0.00     0.112 A 
ATOM     26  H3  UNL     1      26.501  18.119  16.056  1.00  0.00     0.164 HD
ENDBRANCH  17  20
ENDBRANCH  15  17
ENDBRANCH  14  15
ENDBRANCH   1  14
TORSDOF 7
ENDMDL
MODEL 4
REMARK VINA RESULT: -9.467965096      1.553      1.717
REMARK  7 active torsions:
REMARK  status: ('A' for Active; 'I' for Inactive)
REMARK    1  A    between atoms: C5_5  and  S1_6 
REMARK    2  A    between atoms: S1_6  and  N1_9 
REMARK    3  A    between atoms: N1_9  and  C6_11 
REMARK    4  A    between atoms: C6_11  and  C7_12 
REMARK    5  A    between atoms: C7_12  and  N2_13 
REMARK    6  A    between atoms: N2_13  and  S2_15 
REMARK    7  A    between atoms: S2_15  and  C8_18 
ROOT
HETATM    1  C6  UNL     1      29.820  20.187  11.549  1.00  0.00     0.152 C 
ENDROOT
BRANCH   1   2
HETATM    2  N1  UNL     1      31.063  20.723  11.042  1.00  0.00    -0.314 N 
ATOM      3  H1  UNL     1      31.965  20.256  11.140  1.00  0.00     0.172 HD
BRANCH   2   4
HETATM    4  S1  UNL     1      30.853  22.243  10.253  1.00  0.00     0.258 S 
HETATM    5  O1  UNL     1      31.154  23.391  11.147  1.00  0.00    -0.201 OA
HETATM    6  O2  UNL     1      29.438  22.279   9.739  1.00  0.00    -0.201 OA
BRANCH   4   7
HETATM    7  C5  UNL     1      31.945  22.287   8.892  1.00  0.00     0.079 A 
HETATM    8  C4  UNL     1      31.572  21.643   7.736  1.00  0.00     0.026 A 
HETATM    9  C3  UNL     1      32.401  21.651   6.640  1.00  0.00     0.008 A 
HETATM   10  C2  UNL     1      33.603  22.322   6.750  1.00  0.00    -0.062 A 
HETATM   11  C1  UNL     1      34.509  22.339   5.573  1.00  0.00     0.048 C 
HETATM   12  C14 UNL     1      33.971  22.966   7.916  1.00  0.00     0.008 A 
HETATM   13  C13 UNL     1      33.133  22.958   9.021  1.00  0.00     0.026 A 
ENDBRANCH   4   7
ENDBRANCH   2   4
ENDBRANCH   1   2
BRANCH   1  14
HETATM   14  C7  UNL     1      30.108  19.628  12.926  1.00  0.00     0.152 C 
BRANCH  14  15
HETATM   15  N2  UNL     1      30.801  20.601  13.753  1.00  0.00    -0.314 N 
ATOM     16  H2  UNL     1      31.757  20.912  13.583  1.00  0.00     0.172 HD
BRANCH  15  17
HETATM   17  S2  UNL     1      29.833  21.164  15.040  1.00  0.00     0.260 S 
HETATM   18  O3  UNL     1      30.402  20.806  16.388  1.00  0.00    -0.200 OA
HETATM   19  O4  UNL     1      29.781  22.671  14.947  1.00  0.00    -0.200 OA
BRANCH  17  20
HETATM   20  C8  UNL     1      28.203  20.575  14.895  1.00  0.00     0.094 A 
HETATM   21  C9  UNL     1      27.225  21.227  14.165  1.00  0.00     0.028 A 
HETATM   22  C10 UNL     1      25.945  20.690  14.099  1.00  0.00     0.019 A 
HETATM   23  C11 UNL     1      25.628  19.515  14.749  1.00  0.00     0.087 A 
HETATM   24  N3  UNL     1      26.598  18.903  15.451  1.00  0.00    -0.374 N 
HETATM   25  C12 UNL     1      27.858  19.397  15.538  1.00  0.00     0.112 A 
ATOM     26  H3  UNL     1      26.378  18.033  15.937  1.00  0.00     0.164 HD
ENDBRANCH  17  20
ENDBRANCH  15  17
ENDBRANCH  14  15
ENDBRANCH   1  14
TORSDOF 7
ENDMDL
MODEL 5
REMARK VINA RESULT: -9.466832106      2.213      2.871
REMARK  7 active torsions:
REMARK  status: ('A' for Active; 'I' for Inactive)
REMARK    1  A    between atoms: C5_5  and  S1_6 
REMARK    2  A    between atoms: S1_6  and  N1_9 
REMARK    3  A    between atoms: N1_9  and  C6_11 
REMARK    4  A    between atoms: C6_11  and  C7_12 
REMARK    5  A    between atoms: C7_12  and  N2_13 
REMARK    6  A    between atoms: N2_13  and  S2_15 
REMARK    7  A    between atoms: S2_15  and  C8_18 
ROOT
HETATM    1  C6  UNL     1      29.952  19.891  11.124  1.00  0.00     0.152 C 
ENDROOT
BRANCH   1   2
HETATM    2  N1  UNL     1      31.069  20.802  11.248  1.00  0.00    -0.314 N 
ATOM      3  H1  UNL     1      31.917  20.591  11.774  1.00  0.00     0.172 HD
BRANCH   2   4
HETATM    4  S1  UNL     1      30.806  22.286  10.408  1.00  0.00     0.258 S 
HETATM    5  O1  UNL     1      31.151  23.472  11.234  1.00  0.00    -0.201 OA
HETATM    6  O2  UNL     1      29.364  22.295   9.975  1.00  0.00    -0.201 OA
BRANCH   4   7
HETATM    7  C5  UNL     1      31.819  22.275   8.987  1.00  0.00     0.079 A 
HETATM    8  C4  UNL     1      31.323  21.708   7.837  1.00  0.00     0.026 A 
HETATM    9  C3  UNL     1      32.086  21.676   6.695  1.00  0.00     0.008 A 
HETATM   10  C2  UNL     1      33.350  22.229   6.752  1.00  0.00    -0.062 A 
HETATM   11  C1  UNL     1      34.187  22.202   5.525  1.00  0.00     0.048 C 
HETATM   12  C14 UNL     1      33.842  22.796   7.913  1.00  0.00     0.008 A 
HETATM   13  C13 UNL     1      33.070  22.828   9.064  1.00  0.00     0.026 A 
ENDBRANCH   4   7
ENDBRANCH   2   4
ENDBRANCH   1   2
BRANCH   1  14
HETATM   14  C7  UNL     1      29.433  19.636  12.523  1.00  0.00     0.152 C 
BRANCH  14  15
HETATM   15  N2  UNL     1      28.084  20.148  12.684  1.00  0.00    -0.314 N 
ATOM     16  H2  UNL     1      27.281  19.812  12.151  1.00  0.00     0.172 HD
BRANCH  15  17
HETATM   17  S2  UNL     1      27.992  21.374  13.867  1.00  0.00     0.260 S 
HETATM   18  O3  UNL     1      28.580  22.677  13.393  1.00  0.00    -0.200 OA
HETATM   19  O4  UNL     1      26.531  21.610  14.168  1.00  0.00    -0.200 OA
BRANCH  17  20
HETATM   20  C8  UNL     1      28.755  20.868  15.345  1.00  0.00     0.094 A 
HETATM   21  C9  UNL     1      28.219  19.906  16.184  1.00  0.00     0.028 A 
HETATM   22  C10 UNL     1      28.892  19.557  17.348  1.00  0.00     0.019 A 
HETATM   23  C11 UNL     1      30.089  20.154  17.688  1.00  0.00     0.087 A 
HETATM   24  N3  UNL     1      30.587  21.085  16.855  1.00  0.00    -0.374 N 
HETATM   25  C12 UNL     1      29.958  21.450  15.711  1.00  0.00     0.112 A 
ATOM     26  H3  UNL     1      31.471  21.534  17.094  1.00  0.00     0.164 HD
ENDBRANCH  17  20
ENDBRANCH  15  17
ENDBRANCH  14  15
ENDBRANCH   1  14
TORSDOF 7
ENDMDL
