MODEL 1
REMARK VINA RESULT: -8.190854631      0.000      0.000
REMARK  6 active torsions:
REMARK  status: ('A' for Active; 'I' for Inactive)
REMARK    1  A    between atoms: O1_2  and  C2_3 
REMARK    2  A    between atoms: C2_3  and  C3_4 
REMARK    3  A    between atoms: C6_7  and  C7_8 
REMARK    4  A    between atoms: C7_8  and  O2_11 
REMARK    5  A    between atoms: C11_14  and  O3_15 
REMARK    6  A    between atoms: C16_21  and  O4_22 
ROOT
HETATM    1  C3  UNL     1      10.398 -29.822 -19.755  1.00  0.00    -0.005 C 
HETATM    2  C4  UNL     1       9.499 -29.453 -20.880  1.00  0.00     0.013 C 
HETATM    3  C5  UNL     1      10.173 -29.917 -22.183  1.00  0.00     0.009 C 
HETATM    4  C6  UNL     1      11.172 -30.887 -21.672  1.00  0.00     0.027 C 
HETATM    5  C10 UNL     1      11.671 -30.296 -20.405  1.00  0.00     0.033 C 
HETATM    6  C11 UNL     1      12.768 -29.316 -20.562  1.00  0.00     0.124 C 
HETATM    7  C12 UNL     1      12.928 -28.375 -19.362  1.00  0.00     0.038 C 
HETATM    8  C13 UNL     1      11.611 -27.701 -19.243  1.00  0.00     0.001 C 
HETATM    9  C14 UNL     1      11.501 -26.392 -18.632  1.00  0.00    -0.003 C 
HETATM   10  C15 UNL     1      12.721 -25.608 -18.293  1.00  0.00     0.037 C 
HETATM   11  C16 UNL     1      12.073 -24.350 -17.712  1.00  0.00     0.118 C 
HETATM   12  C17 UNL     1      10.682 -24.772 -17.217  1.00  0.00     0.036 C 
HETATM   13  C18 UNL     1      10.802 -26.308 -17.271  1.00  0.00    -0.008 C 
HETATM   14  C19 UNL     1       9.516 -27.026 -17.252  1.00  0.00     0.006 C 
HETATM   15  C20 UNL     1       9.370 -27.927 -18.492  1.00  0.00     0.011 C 
HETATM   16  C21 UNL     1      10.589 -28.727 -18.733  1.00  0.00    -0.030 C 
HETATM   17  C22 UNL     1      11.145 -29.432 -17.506  1.00  0.00     0.016 C 
ENDROOT
BRANCH   4  18
HETATM   18  C7  UNL     1      12.092 -31.532 -22.605  1.00  0.00     0.055 C 
HETATM   19  C8  UNL     1      13.520 -31.691 -22.306  1.00  0.00     0.045 C 
HETATM   20  C9  UNL     1      11.443 -32.859 -23.032  1.00  0.00     0.045 C 
BRANCH  18  21
HETATM   21  O2  UNL     1      12.035 -30.764 -23.806  1.00  0.00    -0.390 OA
ATOM     22  H2  UNL     1      12.330 -31.342 -24.500  1.00  0.00     0.210 HD
ENDBRANCH  18  21
ENDBRANCH   4  18
BRANCH   1  23
HETATM   23  C2  UNL     1       9.785 -31.043 -19.067  1.00  0.00     0.177 C 
BRANCH  23  24
HETATM   24  O1  UNL     1       8.489 -30.816 -18.602  1.00  0.00    -0.395 OA
HETATM   25  C1  UNL     1       8.309 -31.499 -17.429  1.00  0.00     0.201 C 
ENDBRANCH  23  24
ENDBRANCH   1  23
BRANCH   6  26
HETATM   26  O3  UNL     1      12.539 -28.379 -21.606  1.00  0.00    -0.395 OA
ATOM     27  H3  UNL     1      13.316 -27.891 -21.849  1.00  0.00     0.210 HD
ENDBRANCH   6  26
BRANCH  11  28
HETATM   28  O4  UNL     1      11.880 -23.473 -18.772  1.00  0.00    -0.396 OA
ATOM     29  H4  UNL     1      11.331 -22.768 -18.448  1.00  0.00     0.210 HD
ENDBRANCH  11  28
TORSDOF 6
ENDMDL
MODEL 2
REMARK VINA RESULT: -7.771841082      2.298      3.709
REMARK  6 active torsions:
REMARK  status: ('A' for Active; 'I' for Inactive)
REMARK    1  A    between atoms: O1_2  and  C2_3 
REMARK    2  A    between atoms: C2_3  and  C3_4 
REMARK    3  A    between atoms: C6_7  and  C7_8 
REMARK    4  A    between atoms: C7_8  and  O2_11 
REMARK    5  A    between atoms: C11_14  and  O3_15 
REMARK    6  A    between atoms: C16_21  and  O4_22 
ROOT
HETATM    1  C3  UNL     1       9.294 -28.589 -17.572  1.00  0.00    -0.005 C 
HETATM    2  C4  UNL     1       8.826 -28.762 -18.972  1.00  0.00     0.013 C 
HETATM    3  C5  UNL     1      10.071 -28.837 -19.872  1.00  0.00     0.009 C 
HETATM    4  C6  UNL     1      11.135 -29.138 -18.884  1.00  0.00     0.027 C 
HETATM    5  C10 UNL     1      10.778 -28.349 -17.678  1.00  0.00     0.033 C 
HETATM    6  C11 UNL     1      11.247 -26.946 -17.689  1.00  0.00     0.124 C 
HETATM    7  C12 UNL     1      10.478 -26.035 -16.724  1.00  0.00     0.038 C 
HETATM    8  C13 UNL     1       9.065 -26.137 -17.166  1.00  0.00     0.001 C 
HETATM    9  C14 UNL     1       8.128 -25.062 -16.908  1.00  0.00    -0.003 C 
HETATM   10  C15 UNL     1       8.602 -23.754 -16.379  1.00  0.00     0.037 C 
HETATM   11  C16 UNL     1       7.272 -23.001 -16.306  1.00  0.00     0.118 C 
HETATM   12  C17 UNL     1       6.178 -24.072 -16.192  1.00  0.00     0.036 C 
HETATM   13  C18 UNL     1       7.022 -25.325 -15.882  1.00  0.00    -0.008 C 
HETATM   14  C19 UNL     1       6.329 -26.604 -16.113  1.00  0.00     0.006 C 
HETATM   15  C20 UNL     1       7.105 -27.476 -17.119  1.00  0.00     0.011 C 
HETATM   16  C21 UNL     1       8.545 -27.534 -16.795  1.00  0.00    -0.030 C 
HETATM   17  C22 UNL     1       8.863 -27.824 -15.336  1.00  0.00     0.016 C 
ENDROOT
BRANCH   4  18
HETATM   18  C7  UNL     1      12.524 -29.232 -19.327  1.00  0.00     0.055 C 
HETATM   19  C8  UNL     1      13.632 -29.409 -18.382  1.00  0.00     0.045 C 
HETATM   20  C9  UNL     1      12.564 -30.270 -20.461  1.00  0.00     0.045 C 
BRANCH  18  21
HETATM   21  O2  UNL     1      12.799 -28.014 -20.017  1.00  0.00    -0.390 OA
ATOM     22  H2  UNL     1      13.716 -28.053 -20.260  1.00  0.00     0.210 HD
ENDBRANCH  18  21
ENDBRANCH   4  18
BRANCH   1  23
HETATM   23  C2  UNL     1       9.127 -29.938 -16.868  1.00  0.00     0.177 C 
BRANCH  23  24
HETATM   24  O1  UNL     1       8.361 -30.844 -17.601  1.00  0.00    -0.395 OA
HETATM   25  C1  UNL     1       8.770 -32.118 -17.305  1.00  0.00     0.201 C 
ENDBRANCH  23  24
ENDBRANCH   1  23
BRANCH   6  26
HETATM   26  O3  UNL     1      11.012 -26.284 -18.925  1.00  0.00    -0.395 OA
ATOM     27  H3  UNL     1      11.620 -25.573 -19.091  1.00  0.00     0.210 HD
ENDBRANCH   6  26
BRANCH  11  28
HETATM   28  O4  UNL     1       7.100 -22.373 -17.534  1.00  0.00    -0.396 OA
ATOM     29  H4  UNL     1       7.960 -22.313 -17.934  1.00  0.00     0.210 HD
ENDBRANCH  11  28
TORSDOF 6
ENDMDL
MODEL 3
REMARK VINA RESULT: -7.343220916      1.224      1.575
REMARK  6 active torsions:
REMARK  status: ('A' for Active; 'I' for Inactive)
REMARK    1  A    between atoms: O1_2  and  C2_3 
REMARK    2  A    between atoms: C2_3  and  C3_4 
REMARK    3  A    between atoms: C6_7  and  C7_8 
REMARK    4  A    between atoms: C7_8  and  O2_11 
REMARK    5  A    between atoms: C11_14  and  O3_15 
REMARK    6  A    between atoms: C16_21  and  O4_22 
ROOT
HETATM    1  C3  UNL     1      10.257 -29.415 -19.014  1.00  0.00    -0.005 C 
HETATM    2  C4  UNL     1       9.450 -29.320 -20.259  1.00  0.00     0.013 C 
HETATM    3  C5  UNL     1      10.407 -29.507 -21.449  1.00  0.00     0.009 C 
HETATM    4  C6  UNL     1      11.585 -30.120 -20.788  1.00  0.00     0.027 C 
HETATM    5  C10 UNL     1      11.691 -29.439 -19.474  1.00  0.00     0.033 C 
HETATM    6  C11 UNL     1      12.427 -28.156 -19.494  1.00  0.00     0.124 C 
HETATM    7  C12 UNL     1      12.112 -27.248 -18.298  1.00  0.00     0.038 C 
HETATM    8  C13 UNL     1      10.645 -27.033 -18.374  1.00  0.00     0.001 C 
HETATM    9  C14 UNL     1      10.039 -25.846 -17.805  1.00  0.00    -0.003 C 
HETATM   10  C15 UNL     1      10.886 -24.725 -17.313  1.00  0.00     0.037 C 
HETATM   11  C16 UNL     1       9.796 -23.757 -16.847  1.00  0.00     0.118 C 
HETATM   12  C17 UNL     1       8.560 -24.616 -16.543  1.00  0.00     0.036 C 
HETATM   13  C18 UNL     1       9.172 -26.030 -16.555  1.00  0.00    -0.008 C 
HETATM   14  C19 UNL     1       8.194 -27.122 -16.702  1.00  0.00     0.006 C 
HETATM   15  C20 UNL     1       8.514 -27.986 -17.936  1.00  0.00     0.011 C 
HETATM   16  C21 UNL     1       9.946 -28.347 -17.994  1.00  0.00    -0.030 C 
HETATM   17  C22 UNL     1      10.527 -28.873 -16.690  1.00  0.00     0.016 C 
ENDROOT
BRANCH   4  18
HETATM   18  C7  UNL     1      12.781 -30.410 -21.575  1.00  0.00     0.055 C 
HETATM   19  C8  UNL     1      14.116 -30.468 -20.969  1.00  0.00     0.045 C 
HETATM   20  C9  UNL     1      12.476 -31.662 -22.414  1.00  0.00     0.045 C 
BRANCH  18  21
HETATM   21  O2  UNL     1      12.855 -29.388 -22.568  1.00  0.00    -0.390 OA
ATOM     22  H2  UNL     1      13.744 -29.054 -22.532  1.00  0.00     0.210 HD
ENDBRANCH  18  21
ENDBRANCH   4  18
BRANCH   1  23
HETATM   23  C2  UNL     1       9.980 -30.788 -18.398  1.00  0.00     0.177 C 
BRANCH  23  24
HETATM   24  O1  UNL     1       8.634 -31.149 -18.452  1.00  0.00    -0.395 OA
HETATM   25  C1  UNL     1       8.281 -31.736 -17.266  1.00  0.00     0.201 C 
ENDBRANCH  23  24
ENDBRANCH   1  23
BRANCH   6  26
HETATM   26  O3  UNL     1      12.054 -27.311 -20.575  1.00  0.00    -0.395 OA
ATOM     27  H3  UNL     1      12.798 -26.934 -21.030  1.00  0.00     0.210 HD
ENDBRANCH   6  26
BRANCH  11  28
HETATM   28  O4  UNL     1       9.478 -22.957 -17.938  1.00  0.00    -0.396 OA
ATOM     29  H4  UNL     1       8.807 -23.417 -18.428  1.00  0.00     0.210 HD
ENDBRANCH  11  28
TORSDOF 6
ENDMDL
MODEL 4
REMARK VINA RESULT: -7.093344849      2.317      6.167
REMARK  6 active torsions:
REMARK  status: ('A' for Active; 'I' for Inactive)
REMARK    1  A    between atoms: O1_2  and  C2_3 
REMARK    2  A    between atoms: C2_3  and  C3_4 
REMARK    3  A    between atoms: C6_7  and  C7_8 
REMARK    4  A    between atoms: C7_8  and  O2_11 
REMARK    5  A    between atoms: C11_14  and  O3_15 
REMARK    6  A    between atoms: C16_21  and  O4_22 
ROOT
HETATM    1  C3  UNL     1      10.726 -28.091 -17.261  1.00  0.00    -0.005 C 
HETATM    2  C4  UNL     1      10.873 -26.619 -17.410  1.00  0.00     0.013 C 
HETATM    3  C5  UNL     1       9.523 -25.978 -17.043  1.00  0.00     0.009 C 
HETATM    4  C6  UNL     1       8.862 -27.080 -16.303  1.00  0.00     0.027 C 
HETATM    5  C10 UNL     1       9.256 -28.318 -17.021  1.00  0.00     0.033 C 
HETATM    6  C11 UNL     1       8.414 -28.657 -18.189  1.00  0.00     0.124 C 
HETATM    7  C12 UNL     1       9.096 -29.606 -19.183  1.00  0.00     0.038 C 
HETATM    8  C13 UNL     1      10.329 -28.889 -19.593  1.00  0.00     0.001 C 
HETATM    9  C14 UNL     1      10.950 -29.154 -20.875  1.00  0.00    -0.003 C 
HETATM   10  C15 UNL     1      10.261 -29.996 -21.891  1.00  0.00     0.037 C 
HETATM   11  C16 UNL     1      11.294 -29.948 -23.018  1.00  0.00     0.118 C 
HETATM   12  C17 UNL     1      12.645 -29.650 -22.350  1.00  0.00     0.036 C 
HETATM   13  C18 UNL     1      12.298 -29.881 -20.866  1.00  0.00    -0.008 C 
HETATM   14  C19 UNL     1      13.253 -29.289 -19.913  1.00  0.00     0.006 C 
HETATM   15  C20 UNL     1      12.543 -28.309 -18.960  1.00  0.00     0.011 C 
HETATM   16  C21 UNL     1      11.303 -28.889 -18.404  1.00  0.00    -0.030 C 
HETATM   17  C22 UNL     1      11.443 -30.303 -17.862  1.00  0.00     0.016 C 
ENDROOT
BRANCH   4  18
HETATM   18  C7  UNL     1       7.495 -26.904 -15.819  1.00  0.00     0.055 C 
HETATM   19  C8  UNL     1       6.387 -26.570 -16.720  1.00  0.00     0.045 C 
HETATM   20  C9  UNL     1       7.171 -28.119 -14.934  1.00  0.00     0.045 C 
BRANCH  18  21
HETATM   21  O2  UNL     1       7.550 -25.840 -14.869  1.00  0.00    -0.390 OA
ATOM     22  H2  UNL     1       6.754 -25.909 -14.354  1.00  0.00     0.210 HD
ENDBRANCH  18  21
ENDBRANCH   4  18
BRANCH   1  23
HETATM   23  C2  UNL     1      11.438 -28.488 -15.967  1.00  0.00     0.177 C 
BRANCH  23  24
HETATM   24  O1  UNL     1      10.796 -29.521 -15.284  1.00  0.00    -0.395 OA
HETATM   25  C1  UNL     1      10.745 -29.213 -13.951  1.00  0.00     0.201 C 
ENDBRANCH  23  24
ENDBRANCH   1  23
BRANCH   6  26
HETATM   26  O3  UNL     1       8.144 -27.542 -19.029  1.00  0.00    -0.395 OA
ATOM     27  H3  UNL     1       7.645 -27.769 -19.805  1.00  0.00     0.210 HD
ENDBRANCH   6  26
BRANCH  11  28
HETATM   28  O4  UNL     1      10.977 -28.848 -23.805  1.00  0.00    -0.396 OA
ATOM     29  H4  UNL     1      11.463 -28.111 -23.453  1.00  0.00     0.210 HD
ENDBRANCH  11  28
TORSDOF 6
ENDMDL
MODEL 5
REMARK VINA RESULT: -6.769432425      2.680      5.893
REMARK  6 active torsions:
REMARK  status: ('A' for Active; 'I' for Inactive)
REMARK    1  A    between atoms: O1_2  and  C2_3 
REMARK    2  A    between atoms: C2_3  and  C3_4 
REMARK    3  A    between atoms: C6_7  and  C7_8 
REMARK    4  A    between atoms: C7_8  and  O2_11 
REMARK    5  A    between atoms: C11_14  and  O3_15 
REMARK    6  A    between atoms: C16_21  and  O4_22 
ROOT
HETATM    1  C3  UNL     1      10.755 -29.145 -18.665  1.00  0.00    -0.005 C 
HETATM    2  C4  UNL     1      10.198 -30.466 -18.272  1.00  0.00     0.013 C 
HETATM    3  C5  UNL     1       9.477 -30.283 -16.925  1.00  0.00     0.009 C 
HETATM    4  C6  UNL     1       9.305 -28.811 -16.878  1.00  0.00     0.027 C 
HETATM    5  C10 UNL     1      10.550 -28.257 -17.466  1.00  0.00     0.033 C 
HETATM    6  C11 UNL     1      11.677 -28.111 -16.519  1.00  0.00     0.124 C 
HETATM    7  C12 UNL     1      13.046 -28.023 -17.204  1.00  0.00     0.038 C 
HETATM    8  C13 UNL     1      13.152 -29.283 -17.982  1.00  0.00     0.001 C 
HETATM    9  C14 UNL     1      14.446 -29.845 -18.310  1.00  0.00    -0.003 C 
HETATM   10  C15 UNL     1      15.689 -29.289 -17.708  1.00  0.00     0.037 C 
HETATM   11  C16 UNL     1      16.728 -30.214 -18.347  1.00  0.00     0.118 C 
HETATM   12  C17 UNL     1      16.095 -30.740 -19.643  1.00  0.00     0.036 C 
HETATM   13  C18 UNL     1      14.878 -29.804 -19.780  1.00  0.00    -0.008 C 
HETATM   14  C19 UNL     1      13.827 -30.291 -20.691  1.00  0.00     0.006 C 
HETATM   15  C20 UNL     1      12.477 -30.408 -19.961  1.00  0.00     0.011 C 
HETATM   16  C21 UNL     1      12.177 -29.199 -19.166  1.00  0.00    -0.030 C 
HETATM   17  C22 UNL     1      12.382 -27.883 -19.901  1.00  0.00     0.016 C 
ENDROOT
BRANCH   4  18
HETATM   18  C7  UNL     1       8.700 -28.194 -15.699  1.00  0.00     0.055 C 
HETATM   19  C8  UNL     1       9.168 -28.489 -14.340  1.00  0.00     0.045 C 
HETATM   20  C9  UNL     1       8.631 -26.682 -15.968  1.00  0.00     0.045 C 
BRANCH  18  21
HETATM   21  O2  UNL     1       7.324 -28.572 -15.721  1.00  0.00    -0.390 OA
ATOM     22  H2  UNL     1       6.911 -28.012 -16.368  1.00  0.00     0.210 HD
ENDBRANCH  18  21
ENDBRANCH   4  18
BRANCH   1  23
HETATM   23  C2  UNL     1       9.858 -28.587 -19.772  1.00  0.00     0.177 C 
BRANCH  23  24
HETATM   24  O1  UNL     1       9.221 -29.582 -20.513  1.00  0.00    -0.395 OA
HETATM   25  C1  UNL     1       9.758 -29.615 -21.772  1.00  0.00     0.201 C 
ENDBRANCH  23  24
ENDBRANCH   1  23
BRANCH   6  26
HETATM   26  O3  UNL     1      11.866 -29.250 -15.690  1.00  0.00    -0.395 OA
ATOM     27  H3  UNL     1      11.936 -29.036 -14.768  1.00  0.00     0.210 HD
ENDBRANCH   6  26
BRANCH  11  28
HETATM   28  O4  UNL     1      16.874 -31.301 -17.494  1.00  0.00    -0.396 OA
ATOM     29  H4  UNL     1      17.108 -30.952 -16.642  1.00  0.00     0.210 HD
ENDBRANCH  11  28
TORSDOF 6
ENDMDL
