MODEL 1
REMARK VINA RESULT: -7.712369218      0.000      0.000
REMARK  3 active torsions:
REMARK  status: ('A' for Active; 'I' for Inactive)
REMARK    1  A    between atoms: C2_2  and  O1_3 
REMARK    2  A    between atoms: O1_3  and  C3_4 
REMARK       I    between atoms: C3_4  and  N1_6 
REMARK    3  A    between atoms: N3_12  and  N4_14 
ROOT
HETATM    1  C3  UNL     1     -10.038  27.479  50.561  1.00  0.00     0.385 C 
HETATM    2  O2  UNL     1     -10.114  27.090  49.370  1.00  0.00    -0.237 OA
HETATM    3  N1  UNL     1      -8.897  28.252  50.967  1.00  0.00    -0.098 N 
HETATM    4  C4  UNL     1      -8.686  28.736  52.219  1.00  0.00     0.138 A 
HETATM    5  C5  UNL     1      -7.497  29.412  52.200  1.00  0.00     0.124 A 
HETATM    6  N2  UNL     1      -7.032  29.318  50.957  1.00  0.00    -0.199 N 
ATOM      7  H2  UNL     1      -6.156  29.727  50.634  1.00  0.00     0.183 HD
HETATM    8  C6  UNL     1      -7.870  28.614  50.188  1.00  0.00     0.707 A 
HETATM    9  N3  UNL     1      -7.687  28.356  48.937  1.00  0.00    -0.131 N 
ATOM     10  H3  UNL     1      -8.395  27.807  48.449  1.00  0.00     0.205 HD
ENDROOT
BRANCH   9  11
HETATM   11  N4  UNL     1      -6.583  28.782  48.221  1.00  0.00    -0.294 N 
HETATM   12  C7  UNL     1      -6.082  28.136  47.226  1.00  0.00     0.009 C 
HETATM   13  C8  UNL     1      -4.888  28.733  46.558  1.00  0.00     0.054 C 
HETATM   14  C15 UNL     1      -6.681  26.879  46.798  1.00  0.00     0.037 C 
HETATM   15  C9  UNL     1      -5.109  28.551  45.072  1.00  0.00     0.006 C 
HETATM   16  C10 UNL     1      -5.329  27.139  44.666  1.00  0.00     0.006 C 
HETATM   17  C11 UNL     1      -6.213  26.321  45.520  1.00  0.00    -0.001 C 
HETATM   18  C12 UNL     1      -7.640  26.189  45.005  1.00  0.00    -0.013 C 
HETATM   19  C13 UNL     1      -8.195  24.798  45.132  1.00  0.00     0.010 C 
HETATM   20  C14 UNL     1      -8.045  27.128  46.149  1.00  0.00     0.015 C 
ATOM     21  H4  UNL     1      -6.141  29.658  48.498  1.00  0.00     0.186 HD
ENDBRANCH   9  11
BRANCH   1  22
HETATM   22  O1  UNL     1     -11.053  27.148  51.416  1.00  0.00    -0.303 OA
BRANCH  22  23
HETATM   23  C2  UNL     1     -10.993  26.078  52.346  1.00  0.00     0.176 C 
HETATM   24  C1  UNL     1     -11.322  26.651  53.709  1.00  0.00     0.034 C 
ENDBRANCH  22  23
ENDBRANCH   1  22
TORSDOF 3
ENDMDL
MODEL 2
REMARK VINA RESULT: -7.482158405      1.880      3.432
REMARK  3 active torsions:
REMARK  status: ('A' for Active; 'I' for Inactive)
REMARK    1  A    between atoms: C2_2  and  O1_3 
REMARK    2  A    between atoms: O1_3  and  C3_4 
REMARK       I    between atoms: C3_4  and  N1_6 
REMARK    3  A    between atoms: N3_12  and  N4_14 
ROOT
HETATM    1  C3  UNL     1      -8.158  28.849  51.694  1.00  0.00     0.385 C 
HETATM    2  O2  UNL     1      -7.321  29.007  50.772  1.00  0.00    -0.237 OA
HETATM    3  N1  UNL     1      -9.275  27.973  51.476  1.00  0.00    -0.098 N 
HETATM    4  C4  UNL     1     -10.253  27.711  52.382  1.00  0.00     0.138 A 
HETATM    5  C5  UNL     1     -11.127  26.836  51.799  1.00  0.00     0.124 A 
HETATM    6  N2  UNL     1     -10.659  26.598  50.575  1.00  0.00    -0.199 N 
ATOM      7  H2  UNL     1     -11.101  25.979  49.896  1.00  0.00     0.183 HD
HETATM    8  C6  UNL     1      -9.530  27.282  50.357  1.00  0.00     0.707 A 
HETATM    9  N3  UNL     1      -8.848  27.254  49.262  1.00  0.00    -0.131 N 
ATOM     10  H3  UNL     1      -8.000  27.819  49.208  1.00  0.00     0.205 HD
ENDROOT
BRANCH   9  11
HETATM   11  N4  UNL     1      -9.202  26.500  48.159  1.00  0.00    -0.294 N 
HETATM   12  C7  UNL     1      -8.637  26.608  47.007  1.00  0.00     0.009 C 
HETATM   13  C8  UNL     1      -9.136  25.719  45.917  1.00  0.00     0.054 C 
HETATM   14  C15 UNL     1      -7.559  27.568  46.811  1.00  0.00     0.037 C 
HETATM   15  C9  UNL     1      -7.906  25.227  45.185  1.00  0.00     0.006 C 
HETATM   16  C10 UNL     1      -7.042  26.318  44.664  1.00  0.00     0.006 C 
HETATM   17  C11 UNL     1      -6.803  27.473  45.553  1.00  0.00    -0.001 C 
HETATM   18  C12 UNL     1      -5.478  27.429  46.301  1.00  0.00    -0.013 C 
HETATM   19  C13 UNL     1      -4.772  28.755  46.342  1.00  0.00     0.010 C 
HETATM   20  C14 UNL     1      -6.301  27.122  47.559  1.00  0.00     0.015 C 
ATOM     21  H4  UNL     1      -9.955  25.820  48.264  1.00  0.00     0.186 HD
ENDBRANCH   9  11
BRANCH   1  22
HETATM   22  O1  UNL     1      -7.962  29.522  52.868  1.00  0.00    -0.303 OA
BRANCH  22  23
HETATM   23  C2  UNL     1      -7.541  28.910  54.078  1.00  0.00     0.176 C 
HETATM   24  C1  UNL     1      -8.347  29.533  55.199  1.00  0.00     0.034 C 
ENDBRANCH  22  23
ENDBRANCH   1  22
TORSDOF 3
ENDMDL
MODEL 3
REMARK VINA RESULT: -7.313110579      2.495      4.767
REMARK  3 active torsions:
REMARK  status: ('A' for Active; 'I' for Inactive)
REMARK    1  A    between atoms: C2_2  and  O1_3 
REMARK    2  A    between atoms: O1_3  and  C3_4 
REMARK       I    between atoms: C3_4  and  N1_6 
REMARK    3  A    between atoms: N3_12  and  N4_14 
ROOT
HETATM    1  C3  UNL     1      -8.644  27.073  47.970  1.00  0.00     0.385 C 
HETATM    2  O2  UNL     1      -7.671  27.861  48.054  1.00  0.00    -0.237 OA
HETATM    3  N1  UNL     1      -8.720  26.181  46.846  1.00  0.00    -0.098 N 
HETATM    4  C4  UNL     1      -9.714  25.280  46.628  1.00  0.00     0.138 A 
HETATM    5  C5  UNL     1      -9.425  24.628  45.462  1.00  0.00     0.124 A 
HETATM    6  N2  UNL     1      -8.283  25.145  45.015  1.00  0.00    -0.199 N 
ATOM      7  H2  UNL     1      -7.812  24.857  44.157  1.00  0.00     0.183 HD
HETATM    8  C6  UNL     1      -7.835  26.095  45.844  1.00  0.00     0.707 A 
HETATM    9  N3  UNL     1      -6.752  26.776  45.674  1.00  0.00    -0.131 N 
ATOM     10  H3  UNL     1      -6.509  27.478  46.373  1.00  0.00     0.205 HD
ENDROOT
BRANCH   9  11
HETATM   11  N4  UNL     1      -5.903  26.606  44.597  1.00  0.00    -0.294 N 
HETATM   12  C7  UNL     1      -5.064  27.499  44.199  1.00  0.00     0.009 C 
HETATM   13  C8  UNL     1      -4.216  27.159  43.018  1.00  0.00     0.054 C 
HETATM   14  C15 UNL     1      -4.975  28.776  44.894  1.00  0.00     0.037 C 
HETATM   15  C9  UNL     1      -2.828  27.665  43.345  1.00  0.00     0.006 C 
HETATM   16  C10 UNL     1      -2.778  29.114  43.670  1.00  0.00     0.006 C 
HETATM   17  C11 UNL     1      -3.843  29.647  44.542  1.00  0.00    -0.001 C 
HETATM   18  C12 UNL     1      -3.446  29.794  46.004  1.00  0.00    -0.013 C 
HETATM   19  C13 UNL     1      -3.924  31.076  46.627  1.00  0.00     0.010 C 
HETATM   20  C14 UNL     1      -4.355  28.589  46.280  1.00  0.00     0.015 C 
ATOM     21  H4  UNL     1      -5.943  25.723  44.089  1.00  0.00     0.186 HD
ENDBRANCH   9  11
BRANCH   1  22
HETATM   22  O1  UNL     1      -9.589  27.103  48.958  1.00  0.00    -0.303 OA
BRANCH  22  23
HETATM   23  C2  UNL     1      -9.581  28.021  50.040  1.00  0.00     0.176 C 
HETATM   24  C1  UNL     1     -10.862  27.805  50.819  1.00  0.00     0.034 C 
ENDBRANCH  22  23
ENDBRANCH   1  22
TORSDOF 3
ENDMDL
MODEL 4
REMARK VINA RESULT: -7.039919497      1.241      1.631
REMARK  3 active torsions:
REMARK  status: ('A' for Active; 'I' for Inactive)
REMARK    1  A    between atoms: C2_2  and  O1_3 
REMARK    2  A    between atoms: O1_3  and  C3_4 
REMARK       I    between atoms: C3_4  and  N1_6 
REMARK    3  A    between atoms: N3_12  and  N4_14 
ROOT
HETATM    1  C3  UNL     1     -10.227  27.488  51.379  1.00  0.00     0.385 C 
HETATM    2  O2  UNL     1     -10.258  27.468  50.124  1.00  0.00    -0.237 OA
HETATM    3  N1  UNL     1      -9.181  28.221  52.036  1.00  0.00    -0.098 N 
HETATM    4  C4  UNL     1      -9.026  28.327  53.382  1.00  0.00     0.138 A 
HETATM    5  C5  UNL     1      -7.922  29.102  53.606  1.00  0.00     0.124 A 
HETATM    6  N2  UNL     1      -7.449  29.437  52.409  1.00  0.00    -0.199 N 
ATOM      7  H2  UNL     1      -6.624  30.016  52.253  1.00  0.00     0.183 HD
HETATM    8  C6  UNL     1      -8.202  28.910  51.436  1.00  0.00     0.707 A 
HETATM    9  N3  UNL     1      -7.989  29.061  50.172  1.00  0.00    -0.131 N 
ATOM     10  H3  UNL     1      -8.631  28.611  49.518  1.00  0.00     0.205 HD
ENDROOT
BRANCH   9  11
HETATM   11  N4  UNL     1      -6.941  29.799  49.655  1.00  0.00    -0.294 N 
HETATM   12  C7  UNL     1      -6.139  29.363  48.746  1.00  0.00     0.009 C 
HETATM   13  C8  UNL     1      -5.057  30.286  48.293  1.00  0.00     0.054 C 
HETATM   14  C15 UNL     1      -6.309  28.021  48.207  1.00  0.00     0.037 C 
HETATM   15  C9  UNL     1      -4.988  30.140  46.789  1.00  0.00     0.006 C 
HETATM   16  C10 UNL     1      -4.760  28.744  46.332  1.00  0.00     0.006 C 
HETATM   17  C11 UNL     1      -5.517  27.678  47.016  1.00  0.00    -0.001 C 
HETATM   18  C12 UNL     1      -6.760  27.210  46.271  1.00  0.00    -0.013 C 
HETATM   19  C13 UNL     1      -6.939  25.718  46.284  1.00  0.00     0.010 C 
HETATM   20  C14 UNL     1      -7.572  27.945  47.346  1.00  0.00     0.015 C 
ATOM     21  H4  UNL     1      -6.795  30.742  50.014  1.00  0.00     0.186 HD
ENDBRANCH   9  11
BRANCH   1  22
HETATM   22  O1  UNL     1     -11.197  26.807  52.061  1.00  0.00    -0.303 OA
BRANCH  22  23
HETATM   23  C2  UNL     1     -10.992  25.561  52.708  1.00  0.00     0.176 C 
HETATM   24  C1  UNL     1     -11.451  25.720  54.143  1.00  0.00     0.034 C 
ENDBRANCH  22  23
ENDBRANCH   1  22
TORSDOF 3
ENDMDL
MODEL 5
REMARK VINA RESULT: -7.002167421      2.324      7.196
REMARK  3 active torsions:
REMARK  status: ('A' for Active; 'I' for Inactive)
REMARK    1  A    between atoms: C2_2  and  O1_3 
REMARK    2  A    between atoms: O1_3  and  C3_4 
REMARK       I    between atoms: C3_4  and  N1_6 
REMARK    3  A    between atoms: N3_12  and  N4_14 
ROOT
HETATM    1  C3  UNL     1      -5.608  28.383  47.419  1.00  0.00     0.385 C 
HETATM    2  O2  UNL     1      -5.809  29.337  48.210  1.00  0.00    -0.237 OA
HETATM    3  N1  UNL     1      -6.646  27.408  47.231  1.00  0.00    -0.098 N 
HETATM    4  C4  UNL     1      -6.565  26.328  46.410  1.00  0.00     0.138 A 
HETATM    5  C5  UNL     1      -7.749  25.650  46.509  1.00  0.00     0.124 A 
HETATM    6  N2  UNL     1      -8.499  26.329  47.373  1.00  0.00    -0.199 N 
ATOM      7  H2  UNL     1      -9.444  26.065  47.652  1.00  0.00     0.183 HD
HETATM    8  C6  UNL     1      -7.846  27.405  47.826  1.00  0.00     0.707 A 
HETATM    9  N3  UNL     1      -8.318  28.254  48.676  1.00  0.00    -0.131 N 
ATOM     10  H3  UNL     1      -7.728  29.039  48.951  1.00  0.00     0.205 HD
ENDROOT
BRANCH   9  11
HETATM   11  N4  UNL     1      -9.579  28.158  49.233  1.00  0.00    -0.294 N 
HETATM   12  C7  UNL     1      -9.795  27.991  50.492  1.00  0.00     0.009 C 
HETATM   13  C8  UNL     1     -11.218  27.908  50.935  1.00  0.00     0.054 C 
HETATM   14  C15 UNL     1      -8.673  27.891  51.416  1.00  0.00     0.037 C 
HETATM   15  C9  UNL     1     -11.306  28.721  52.208  1.00  0.00     0.006 C 
HETATM   16  C10 UNL     1     -10.364  28.279  53.268  1.00  0.00     0.006 C 
HETATM   17  C11 UNL     1      -8.988  27.942  52.852  1.00  0.00    -0.001 C 
HETATM   18  C12 UNL     1      -7.971  29.052  53.080  1.00  0.00    -0.013 C 
HETATM   19  C13 UNL     1      -6.663  28.559  53.632  1.00  0.00     0.010 C 
HETATM   20  C14 UNL     1      -7.973  29.244  51.557  1.00  0.00     0.015 C 
ATOM     21  H4  UNL     1     -10.385  28.222  48.612  1.00  0.00     0.186 HD
ENDBRANCH   9  11
BRANCH   1  22
HETATM   22  O1  UNL     1      -4.405  28.321  46.772  1.00  0.00    -0.303 OA
BRANCH  22  23
HETATM   23  C2  UNL     1      -4.113  29.006  45.565  1.00  0.00     0.176 C 
HETATM   24  C1  UNL     1      -2.971  28.267  44.896  1.00  0.00     0.034 C 
ENDBRANCH  22  23
ENDBRANCH   1  22
TORSDOF 3
ENDMDL
