MODEL 1
REMARK VINA RESULT: -6.324049347      0.000      0.000
REMARK  5 active torsions:
REMARK  status: ('A' for Active; 'I' for Inactive)
REMARK    1  A    between atoms: C2_2  and  O1_4 
REMARK    2  A    between atoms: C2_2  and  C4_6 
REMARK    3  A    between atoms: C4_6  and  C5_7 
REMARK    4  A    between atoms: C10_12  and  C12_14 
REMARK    5  A    between atoms: C12_14  and  N1_15 
ROOT
HETATM    1  C5  UNL     1      24.346  34.756  -6.930  1.00  0.00    -0.033 A 
HETATM    2  C6  UNL     1      25.160  33.755  -7.828  1.00  0.00     0.015 A 
HETATM    3  C7  UNL     1      24.362  33.337  -6.595  1.00  0.00    -0.005 A 
HETATM    4  C8  UNL     1      25.135  32.846  -5.457  1.00  0.00     0.006 C 
HETATM    5  C9  UNL     1      25.936  33.799  -4.669  1.00  0.00     0.011 C 
HETATM    6  C10 UNL     1      25.479  35.233  -4.743  1.00  0.00    -0.020 C 
HETATM    7  C11 UNL     1      24.306  35.431  -3.844  1.00  0.00     0.017 C 
HETATM    8  C13 UNL     1      25.243  35.642  -6.180  1.00  0.00     0.020 C 
ENDROOT
BRANCH   1   9
HETATM    9  C4  UNL     1      23.211  35.330  -7.690  1.00  0.00     0.046 C 
BRANCH   9  10
HETATM   10  C2  UNL     1      21.982  35.787  -7.056  1.00  0.00     0.051 C 
HETATM   11  C1  UNL     1      22.299  37.231  -6.525  1.00  0.00     0.045 C 
HETATM   12  C3  UNL     1      21.466  35.085  -5.843  1.00  0.00     0.045 C 
BRANCH  10  13
HETATM   13  O1  UNL     1      20.906  35.993  -7.912  1.00  0.00    -0.391 OA
ATOM     14  H1  UNL     1      20.787  35.143  -8.320  1.00  0.00     0.210 HD
ENDBRANCH  10  13
ENDBRANCH   9  10
ENDBRANCH   1   9
BRANCH   6  15
HETATM   15  C12 UNL     1      26.618  36.091  -4.225  1.00  0.00     0.238 C 
BRANCH  15  16
HETATM   16  N1  UNL     1      27.831  35.780  -4.978  1.00  0.00    -0.079 N 
ATOM     17  H13 UNL     1      28.031  34.780  -4.996  1.00  0.00     0.274 HD
ATOM     18  H12 UNL     1      27.712  35.921  -5.981  1.00  0.00     0.274 HD
ATOM     19  H11 UNL     1      28.607  36.324  -4.599  1.00  0.00     0.274 HD
ENDBRANCH  15  16
ENDBRANCH   6  15
TORSDOF 5
ENDMDL
MODEL 2
REMARK VINA RESULT: -6.101842719      0.657      1.012
REMARK  5 active torsions:
REMARK  status: ('A' for Active; 'I' for Inactive)
REMARK    1  A    between atoms: C2_2  and  O1_4 
REMARK    2  A    between atoms: C2_2  and  C4_6 
REMARK    3  A    between atoms: C4_6  and  C5_7 
REMARK    4  A    between atoms: C10_12  and  C12_14 
REMARK    5  A    between atoms: C12_14  and  N1_15 
ROOT
HETATM    1  C5  UNL     1      24.323  34.533  -6.944  1.00  0.00    -0.033 A 
HETATM    2  C6  UNL     1      25.201  33.519  -7.763  1.00  0.00     0.015 A 
HETATM    3  C7  UNL     1      24.411  33.142  -6.513  1.00  0.00    -0.005 A 
HETATM    4  C8  UNL     1      25.194  32.771  -5.337  1.00  0.00     0.006 C 
HETATM    5  C9  UNL     1      25.932  33.816  -4.607  1.00  0.00     0.011 C 
HETATM    6  C10 UNL     1      25.400  35.216  -4.783  1.00  0.00    -0.020 C 
HETATM    7  C11 UNL     1      24.207  35.409  -3.910  1.00  0.00     0.017 C 
HETATM    8  C13 UNL     1      25.162  35.514  -6.246  1.00  0.00     0.020 C 
ENDROOT
BRANCH   1   9
HETATM    9  C4  UNL     1      23.169  34.992  -7.750  1.00  0.00     0.046 C 
BRANCH   9  10
HETATM   10  C2  UNL     1      22.117  35.848  -7.217  1.00  0.00     0.051 C 
HETATM   11  C1  UNL     1      21.230  36.236  -8.454  1.00  0.00     0.045 C 
HETATM   12  C3  UNL     1      22.467  37.172  -6.622  1.00  0.00     0.045 C 
BRANCH  10  13
HETATM   13  O1  UNL     1      21.215  35.227  -6.361  1.00  0.00    -0.391 OA
ATOM     14  H1  UNL     1      21.615  34.380  -6.201  1.00  0.00     0.210 HD
ENDBRANCH  10  13
ENDBRANCH   9  10
ENDBRANCH   1   9
BRANCH   6  15
HETATM   15  C12 UNL     1      26.485  36.166  -4.312  1.00  0.00     0.238 C 
BRANCH  15  16
HETATM   16  N1  UNL     1      27.756  35.781  -4.921  1.00  0.00    -0.079 N 
ATOM     17  H13 UNL     1      27.847  34.769  -5.021  1.00  0.00     0.274 HD
ATOM     18  H12 UNL     1      27.803  36.026  -5.910  1.00  0.00     0.274 HD
ATOM     19  H11 UNL     1      28.521  36.188  -4.383  1.00  0.00     0.274 HD
ENDBRANCH  15  16
ENDBRANCH   6  15
TORSDOF 5
ENDMDL
MODEL 3
REMARK VINA RESULT: -5.610356977      2.661      4.572
REMARK  5 active torsions:
REMARK  status: ('A' for Active; 'I' for Inactive)
REMARK    1  A    between atoms: C2_2  and  O1_4 
REMARK    2  A    between atoms: C2_2  and  C4_6 
REMARK    3  A    between atoms: C4_6  and  C5_7 
REMARK    4  A    between atoms: C10_12  and  C12_14 
REMARK    5  A    between atoms: C12_14  and  N1_15 
ROOT
HETATM    1  C5  UNL     1      24.030  35.243  -6.327  1.00  0.00    -0.033 A 
HETATM    2  C6  UNL     1      23.710  33.739  -6.652  1.00  0.00     0.015 A 
HETATM    3  C7  UNL     1      23.813  34.834  -7.710  1.00  0.00    -0.005 A 
HETATM    4  C8  UNL     1      22.577  35.181  -8.408  1.00  0.00     0.006 C 
HETATM    5  C9  UNL     1      21.528  35.919  -7.685  1.00  0.00     0.011 C 
HETATM    6  C10 UNL     1      22.008  36.719  -6.501  1.00  0.00    -0.020 C 
HETATM    7  C11 UNL     1      22.618  37.994  -6.974  1.00  0.00     0.017 C 
HETATM    8  C13 UNL     1      22.911  35.880  -5.624  1.00  0.00     0.020 C 
ENDROOT
BRANCH   1   9
HETATM    9  C4  UNL     1      25.406  35.379  -5.797  1.00  0.00     0.046 C 
BRANCH   9  10
HETATM   10  C2  UNL     1      25.701  35.500  -4.375  1.00  0.00     0.051 C 
HETATM   11  C1  UNL     1      27.202  35.957  -4.299  1.00  0.00     0.045 C 
HETATM   12  C3  UNL     1      25.671  34.288  -3.505  1.00  0.00     0.045 C 
BRANCH  10  13
HETATM   13  O1  UNL     1      25.026  36.515  -3.706  1.00  0.00    -0.391 OA
ATOM     14  H1  UNL     1      24.825  37.135  -4.398  1.00  0.00     0.210 HD
ENDBRANCH  10  13
ENDBRANCH   9  10
ENDBRANCH   1   9
BRANCH   6  15
HETATM   15  C12 UNL     1      20.786  37.063  -5.670  1.00  0.00     0.238 C 
BRANCH  15  16
HETATM   16  N1  UNL     1      20.982  38.372  -5.052  1.00  0.00    -0.079 N 
ATOM     17  H13 UNL     1      20.167  38.675  -4.517  1.00  0.00     0.274 HD
ATOM     18  H12 UNL     1      21.653  38.343  -4.285  1.00  0.00     0.274 HD
ATOM     19  H11 UNL     1      21.245  39.045  -5.772  1.00  0.00     0.274 HD
ENDBRANCH  15  16
ENDBRANCH   6  15
TORSDOF 5
ENDMDL
MODEL 4
REMARK VINA RESULT: -5.375356290      2.960      4.847
REMARK  5 active torsions:
REMARK  status: ('A' for Active; 'I' for Inactive)
REMARK    1  A    between atoms: C2_2  and  O1_4 
REMARK    2  A    between atoms: C2_2  and  C4_6 
REMARK    3  A    between atoms: C4_6  and  C5_7 
REMARK    4  A    between atoms: C10_12  and  C12_14 
REMARK    5  A    between atoms: C12_14  and  N1_15 
ROOT
HETATM    1  C5  UNL     1      21.094  38.150  -6.229  1.00  0.00    -0.033 A 
HETATM    2  C6  UNL     1      21.851  39.277  -7.022  1.00  0.00     0.015 A 
HETATM    3  C7  UNL     1      21.283  38.016  -7.670  1.00  0.00    -0.005 A 
HETATM    4  C8  UNL     1      22.254  37.070  -8.213  1.00  0.00     0.006 C 
HETATM    5  C9  UNL     1      23.076  36.275  -7.286  1.00  0.00     0.011 C 
HETATM    6  C10 UNL     1      22.492  36.091  -5.909  1.00  0.00    -0.020 C 
HETATM    7  C11 UNL     1      21.451  35.024  -5.946  1.00  0.00     0.017 C 
HETATM    8  C13 UNL     1      22.013  37.414  -5.354  1.00  0.00     0.020 C 
ENDROOT
BRANCH   1   9
HETATM    9  C4  UNL     1      19.815  38.664  -5.689  1.00  0.00     0.046 C 
BRANCH   9  10
HETATM   10  C2  UNL     1      19.712  39.349  -4.408  1.00  0.00     0.051 C 
HETATM   11  C1  UNL     1      18.414  40.229  -4.509  1.00  0.00     0.045 C 
HETATM   12  C3  UNL     1      20.760  40.336  -4.007  1.00  0.00     0.045 C 
BRANCH  10  13
HETATM   13  O1  UNL     1      19.459  38.535  -3.310  1.00  0.00    -0.391 OA
ATOM     14  H1  UNL     1      20.111  37.849  -3.394  1.00  0.00     0.210 HD
ENDBRANCH  10  13
ENDBRANCH   9  10
ENDBRANCH   1   9
BRANCH   6  15
HETATM   15  C12 UNL     1      23.616  35.618  -5.006  1.00  0.00     0.238 C 
BRANCH  15  16
HETATM   16  N1  UNL     1      24.630  34.948  -5.818  1.00  0.00    -0.079 N 
ATOM     17  H13 UNL     1      24.664  35.307  -6.772  1.00  0.00     0.274 HD
ATOM     18  H12 UNL     1      25.578  35.198  -5.538  1.00  0.00     0.274 HD
ATOM     19  H11 UNL     1      24.469  33.941  -5.788  1.00  0.00     0.274 HD
ENDBRANCH  15  16
ENDBRANCH   6  15
TORSDOF 5
ENDMDL
MODEL 5
REMARK VINA RESULT: -5.366370376      3.450      4.960
REMARK  5 active torsions:
REMARK  status: ('A' for Active; 'I' for Inactive)
REMARK    1  A    between atoms: C2_2  and  O1_4 
REMARK    2  A    between atoms: C2_2  and  C4_6 
REMARK    3  A    between atoms: C4_6  and  C5_7 
REMARK    4  A    between atoms: C10_12  and  C12_14 
REMARK    5  A    between atoms: C12_14  and  N1_15 
ROOT
HETATM    1  C5  UNL     1      22.225  36.447  -8.099  1.00  0.00    -0.033 A 
HETATM    2  C6  UNL     1      23.276  35.560  -7.337  1.00  0.00     0.015 A 
HETATM    3  C7  UNL     1      21.777  35.542  -7.046  1.00  0.00    -0.005 A 
HETATM    4  C8  UNL     1      21.363  36.056  -5.743  1.00  0.00     0.006 C 
HETATM    5  C9  UNL     1      21.439  37.504  -5.486  1.00  0.00     0.011 C 
HETATM    6  C10 UNL     1      21.408  38.375  -6.716  1.00  0.00    -0.020 C 
HETATM    7  C11 UNL     1      20.003  38.506  -7.200  1.00  0.00     0.017 C 
HETATM    8  C13 UNL     1      22.383  37.864  -7.753  1.00  0.00     0.020 C 
ENDROOT
BRANCH   1   9
HETATM    9  C4  UNL     1      22.134  36.041  -9.520  1.00  0.00     0.046 C 
BRANCH   9  10
HETATM   10  C2  UNL     1      20.873  35.959 -10.243  1.00  0.00     0.051 C 
HETATM   11  C1  UNL     1      20.866  34.536 -10.909  1.00  0.00     0.045 C 
HETATM   12  C3  UNL     1      20.617  36.874 -11.396  1.00  0.00     0.045 C 
BRANCH  10  13
HETATM   13  O1  UNL     1      19.728  35.947  -9.455  1.00  0.00    -0.391 OA
ATOM     14  H1  UNL     1      19.026  35.880 -10.092  1.00  0.00     0.210 HD
ENDBRANCH  10  13
ENDBRANCH   9  10
ENDBRANCH   1   9
BRANCH   6  15
HETATM   15  C12 UNL     1      21.891  39.751  -6.300  1.00  0.00     0.238 C 
BRANCH  15  16
HETATM   16  N1  UNL     1      20.750  40.540  -5.841  1.00  0.00    -0.079 N 
ATOM     17  H13 UNL     1      19.985  40.546  -6.516  1.00  0.00     0.274 HD
ATOM     18  H12 UNL     1      20.255  40.094  -5.069  1.00  0.00     0.274 HD
ATOM     19  H11 UNL     1      21.067  41.481  -5.607  1.00  0.00     0.274 HD
ENDBRANCH  15  16
ENDBRANCH   6  15
TORSDOF 5
ENDMDL
