MODEL 1
REMARK VINA RESULT: -5.326911307      0.000      0.000
REMARK  4 active torsions:
REMARK  status: ('A' for Active; 'I' for Inactive)
REMARK    1  A    between atoms: S1_2  and  C2_3 
REMARK       I    between atoms: N3_9  and  C4_11 
REMARK       I    between atoms: C4_11  and  N7_22 
REMARK    2  A    between atoms: N4_12  and  N5_14 
REMARK    3  A    between atoms: N5_14  and  S2_16 
REMARK    4  A    between atoms: S2_16  and  N6_17 
ROOT
HETATM    1  C2  UNL     1      16.582  -0.377  15.996  1.00  0.00     0.129 A 
HETATM    2  N1  UNL     1      17.540  -0.929  15.267  1.00  0.00    -0.286 N 
ATOM      3  H1  UNL     1      18.518  -0.778  15.514  1.00  0.00     0.188 HD
HETATM    4  N2  UNL     1      17.243  -1.644  14.259  1.00  0.00    -0.278 N 
ATOM      5  H2  UNL     1      17.975  -2.071  13.692  1.00  0.00     0.189 HD
HETATM    6  C3  UNL     1      15.955  -1.824  13.959  1.00  0.00     0.180 A 
HETATM    7  N3  UNL     1      15.449  -2.521  12.967  1.00  0.00    -0.167 N 
ATOM      8  H3  UNL     1      14.440  -2.588  12.835  1.00  0.00     0.186 HD
HETATM    9  C4  UNL     1      16.341  -3.177  12.090  1.00  0.00     0.708 C 
HETATM   10  N4  UNL     1      16.823  -2.533  11.094  1.00  0.00    -0.121 N 
ATOM     11  H4  UNL     1      17.469  -2.989  10.449  1.00  0.00     0.206 HD
HETATM   12  N7  UNL     1      16.727  -4.532  12.273  1.00  0.00    -0.124 N 
ATOM     13  H7  UNL     1      16.870  -5.129  11.459  1.00  0.00     0.197 HD
HETATM   14  C5  UNL     1      16.913  -5.062  13.561  1.00  0.00     0.196 C 
HETATM   15  N8  UNL     1      17.052  -5.510  14.635  1.00  0.00    -0.171 NA
HETATM   16  S3  UNL     1      15.182  -0.919  15.188  1.00  0.00    -0.026 SA
ENDROOT
BRANCH  10  17
HETATM   17  N5  UNL     1      16.456  -1.204  10.899  1.00  0.00    -0.196 N 
ATOM     18  H5  UNL     1      15.475  -0.966  10.756  1.00  0.00     0.202 HD
BRANCH  17  19
HETATM   19  S2  UNL     1      17.656   0.050  10.899  1.00  0.00     0.330 S 
HETATM   20  O1  UNL     1      18.724  -0.224   9.874  1.00  0.00    -0.181 OA
HETATM   21  O2  UNL     1      18.295   0.171  12.250  1.00  0.00    -0.181 OA
BRANCH  19  22
HETATM   22  N6  UNL     1      16.822   1.532  10.545  1.00  0.00    -0.310 N 
ATOM     23  H62 UNL     1      16.149   1.675   9.793  1.00  0.00     0.170 HD
ATOM     24  H61 UNL     1      17.141   2.215  11.232  1.00  0.00     0.170 HD
ENDBRANCH  19  22
ENDBRANCH  17  19
ENDBRANCH  10  17
BRANCH   1  25
HETATM   25  S1  UNL     1      16.761   0.669  17.463  1.00  0.00    -0.108 SA
HETATM   26  C1  UNL     1      15.205   0.765  18.357  1.00  0.00     0.097 C 
ENDBRANCH   1  25
TORSDOF 4
ENDMDL
MODEL 2
REMARK VINA RESULT: -5.248345864      2.007      2.254
REMARK  4 active torsions:
REMARK  status: ('A' for Active; 'I' for Inactive)
REMARK    1  A    between atoms: S1_2  and  C2_3 
REMARK       I    between atoms: N3_9  and  C4_11 
REMARK       I    between atoms: C4_11  and  N7_22 
REMARK    2  A    between atoms: N4_12  and  N5_14 
REMARK    3  A    between atoms: N5_14  and  S2_16 
REMARK    4  A    between atoms: S2_16  and  N6_17 
ROOT
HETATM    1  C2  UNL     1      14.507   0.592  16.402  1.00  0.00     0.129 A 
HETATM    2  N1  UNL     1      15.792   0.290  16.508  1.00  0.00    -0.286 N 
ATOM      3  H1  UNL     1      16.335   0.649  17.293  1.00  0.00     0.188 HD
HETATM    4  N2  UNL     1      16.349  -0.446  15.635  1.00  0.00    -0.278 N 
ATOM      5  H2  UNL     1      17.339  -0.683  15.710  1.00  0.00     0.189 HD
HETATM    6  C3  UNL     1      15.614  -0.902  14.619  1.00  0.00     0.180 A 
HETATM    7  N3  UNL     1      16.002  -1.668  13.625  1.00  0.00    -0.167 N 
ATOM      8  H3  UNL     1      15.347  -1.956  12.898  1.00  0.00     0.186 HD
HETATM    9  C4  UNL     1      17.352  -2.082  13.589  1.00  0.00     0.708 C 
HETATM   10  N4  UNL     1      18.225  -1.320  13.046  1.00  0.00    -0.121 N 
ATOM     11  H4  UNL     1      19.205  -1.601  13.011  1.00  0.00     0.206 HD
HETATM   12  N7  UNL     1      17.780  -3.321  14.139  1.00  0.00    -0.124 N 
ATOM     13  H7  UNL     1      18.520  -3.848  13.675  1.00  0.00     0.197 HD
HETATM   14  C5  UNL     1      17.198  -3.831  15.312  1.00  0.00     0.196 C 
HETATM   15  N8  UNL     1      16.701  -4.265  16.280  1.00  0.00    -0.171 NA
HETATM   16  S3  UNL     1      14.081  -0.229  14.968  1.00  0.00    -0.026 SA
ENDROOT
BRANCH  10  17
HETATM   17  N5  UNL     1      17.823  -0.103  12.503  1.00  0.00    -0.196 N 
ATOM     18  H5  UNL     1      17.771   0.724  13.097  1.00  0.00     0.202 HD
BRANCH  17  19
HETATM   19  S2  UNL     1      17.410   0.017  10.821  1.00  0.00     0.330 S 
HETATM   20  O1  UNL     1      16.252  -0.884  10.483  1.00  0.00    -0.181 OA
HETATM   21  O2  UNL     1      18.581  -0.349   9.960  1.00  0.00    -0.181 OA
BRANCH  19  22
HETATM   22  N6  UNL     1      17.005   1.681  10.529  1.00  0.00    -0.310 N 
ATOM     23  H62 UNL     1      16.265   2.208  10.993  1.00  0.00     0.170 HD
ATOM     24  H61 UNL     1      17.648   2.014   9.811  1.00  0.00     0.170 HD
ENDBRANCH  19  22
ENDBRANCH  17  19
ENDBRANCH  10  17
BRANCH   1  25
HETATM   25  S1  UNL     1      13.506   1.611  17.513  1.00  0.00    -0.108 SA
HETATM   26  C1  UNL     1      12.425   2.692  16.568  1.00  0.00     0.097 C 
ENDBRANCH   1  25
TORSDOF 4
ENDMDL
MODEL 3
REMARK VINA RESULT: -5.053604769      2.331      4.584
REMARK  4 active torsions:
REMARK  status: ('A' for Active; 'I' for Inactive)
REMARK    1  A    between atoms: S1_2  and  C2_3 
REMARK       I    between atoms: N3_9  and  C4_11 
REMARK       I    between atoms: C4_11  and  N7_22 
REMARK    2  A    between atoms: N4_12  and  N5_14 
REMARK    3  A    between atoms: N5_14  and  S2_16 
REMARK    4  A    between atoms: S2_16  and  N6_17 
ROOT
HETATM    1  C2  UNL     1      15.597  -4.476  14.060  1.00  0.00     0.129 A 
HETATM    2  N1  UNL     1      14.647  -3.556  14.104  1.00  0.00    -0.286 N 
ATOM      3  H1  UNL     1      13.666  -3.838  14.119  1.00  0.00     0.188 HD
HETATM    4  N2  UNL     1      14.952  -2.323  14.129  1.00  0.00    -0.278 N 
ATOM      5  H2  UNL     1      14.225  -1.608  14.163  1.00  0.00     0.189 HD
HETATM    6  C3  UNL     1      16.243  -1.983  14.110  1.00  0.00     0.180 A 
HETATM    7  N3  UNL     1      16.757  -0.774  14.129  1.00  0.00    -0.167 N 
ATOM      8  H3  UNL     1      17.767  -0.634  14.110  1.00  0.00     0.186 HD
HETATM    9  C4  UNL     1      15.873   0.326  14.176  1.00  0.00     0.708 C 
HETATM   10  N4  UNL     1      15.395   0.791  13.084  1.00  0.00    -0.121 N 
ATOM     11  H4  UNL     1      14.755   1.585  13.098  1.00  0.00     0.206 HD
HETATM   12  N7  UNL     1      15.491   0.940  15.400  1.00  0.00    -0.124 N 
ATOM     13  H7  UNL     1      15.355   1.950  15.435  1.00  0.00     0.197 HD
HETATM   14  C5  UNL     1      15.298   0.175  16.563  1.00  0.00     0.196 C 
HETATM   15  N8  UNL     1      15.154  -0.460  17.537  1.00  0.00    -0.171 NA
HETATM   16  S3  UNL     1      17.004  -3.513  14.054  1.00  0.00    -0.026 SA
ENDROOT
BRANCH  10  17
HETATM   17  N5  UNL     1      15.759   0.202  11.876  1.00  0.00    -0.196 N 
ATOM     18  H5  UNL     1      15.233  -0.598  11.524  1.00  0.00     0.202 HD
BRANCH  17  19
HETATM   19  S2  UNL     1      17.101   0.818  10.964  1.00  0.00     0.330 S 
HETATM   20  O1  UNL     1      17.160   0.191   9.597  1.00  0.00    -0.181 OA
HETATM   21  O2  UNL     1      18.393   0.552  11.678  1.00  0.00    -0.181 OA
BRANCH  19  22
HETATM   22  N6  UNL     1      16.874   2.536  10.850  1.00  0.00    -0.310 N 
ATOM     23  H62 UNL     1      17.155   3.225  11.547  1.00  0.00     0.170 HD
ATOM     24  H61 UNL     1      16.410   2.708   9.959  1.00  0.00     0.170 HD
ENDBRANCH  19  22
ENDBRANCH  17  19
ENDBRANCH  10  17
BRANCH   1  25
HETATM   25  S1  UNL     1      15.406  -6.276  14.020  1.00  0.00    -0.108 SA
HETATM   26  C1  UNL     1      16.111  -6.947  12.509  1.00  0.00     0.097 C 
ENDBRANCH   1  25
TORSDOF 4
ENDMDL
MODEL 4
REMARK VINA RESULT: -5.020929491      2.757      3.131
REMARK  4 active torsions:
REMARK  status: ('A' for Active; 'I' for Inactive)
REMARK    1  A    between atoms: S1_2  and  C2_3 
REMARK       I    between atoms: N3_9  and  C4_11 
REMARK       I    between atoms: C4_11  and  N7_22 
REMARK    2  A    between atoms: N4_12  and  N5_14 
REMARK    3  A    between atoms: N5_14  and  S2_16 
REMARK    4  A    between atoms: S2_16  and  N6_17 
ROOT
HETATM    1  C2  UNL     1      13.402   1.645  16.485  1.00  0.00     0.129 A 
HETATM    2  N1  UNL     1      14.368   0.740  16.498  1.00  0.00    -0.286 N 
ATOM      3  H1  UNL     1      14.919   0.597  17.345  1.00  0.00     0.188 HD
HETATM    4  N2  UNL     1      14.611   0.049  15.459  1.00  0.00    -0.278 N 
ATOM      5  H2  UNL     1      15.353  -0.650  15.461  1.00  0.00     0.189 HD
HETATM    6  C3  UNL     1      13.874   0.257  14.366  1.00  0.00     0.180 A 
HETATM    7  N3  UNL     1      13.968  -0.348  13.204  1.00  0.00    -0.167 N 
ATOM      8  H3  UNL     1      13.346  -0.103  12.434  1.00  0.00     0.186 HD
HETATM    9  C4  UNL     1      14.955  -1.347  13.050  1.00  0.00     0.708 C 
HETATM   10  N4  UNL     1      16.141  -1.006  12.715  1.00  0.00    -0.121 N 
ATOM     11  H4  UNL     1      16.868  -1.713  12.600  1.00  0.00     0.206 HD
HETATM   12  N7  UNL     1      14.676  -2.725  13.257  1.00  0.00    -0.124 N 
ATOM     13  H7  UNL     1      15.128  -3.423  12.666  1.00  0.00     0.197 HD
HETATM   14  C5  UNL     1      13.788  -3.140  14.263  1.00  0.00     0.196 C 
HETATM   15  N8  UNL     1      13.033  -3.487  15.090  1.00  0.00    -0.171 NA
HETATM   16  S3  UNL     1      12.813   1.492  14.892  1.00  0.00    -0.026 SA
ENDROOT
BRANCH  10  17
HETATM   17  N5  UNL     1      16.431   0.341  12.509  1.00  0.00    -0.196 N 
ATOM     18  H5  UNL     1      16.151   1.031  13.206  1.00  0.00     0.202 HD
BRANCH  17  19
HETATM   19  S2  UNL     1      17.267   0.852  11.077  1.00  0.00     0.330 S 
HETATM   20  O1  UNL     1      16.913  -0.022   9.903  1.00  0.00    -0.181 OA
HETATM   21  O2  UNL     1      18.751   0.811  11.286  1.00  0.00    -0.181 OA
BRANCH  19  22
HETATM   22  N6  UNL     1      16.793   2.498  10.789  1.00  0.00    -0.310 N 
ATOM     23  H62 UNL     1      15.855   2.818  10.546  1.00  0.00     0.170 HD
ATOM     24  H61 UNL     1      17.630   3.066  10.911  1.00  0.00     0.170 HD
ENDBRANCH  19  22
ENDBRANCH  17  19
ENDBRANCH  10  17
BRANCH   1  25
HETATM   25  S1  UNL     1      12.879   2.736  17.831  1.00  0.00    -0.108 SA
HETATM   26  C1  UNL     1      11.839   4.058  17.198  1.00  0.00     0.097 C 
ENDBRANCH   1  25
TORSDOF 4
ENDMDL
MODEL 5
REMARK VINA RESULT: -5.020308893      3.204      4.862
REMARK  4 active torsions:
REMARK  status: ('A' for Active; 'I' for Inactive)
REMARK    1  A    between atoms: S1_2  and  C2_3 
REMARK       I    between atoms: N3_9  and  C4_11 
REMARK       I    between atoms: C4_11  and  N7_22 
REMARK    2  A    between atoms: N4_12  and  N5_14 
REMARK    3  A    between atoms: N5_14  and  S2_16 
REMARK    4  A    between atoms: S2_16  and  N6_17 
ROOT
HETATM    1  C2  UNL     1      13.259   0.082  14.795  1.00  0.00     0.129 A 
HETATM    2  N1  UNL     1      13.520  -0.485  13.627  1.00  0.00    -0.286 N 
ATOM      3  H1  UNL     1      12.762  -0.898  13.082  1.00  0.00     0.188 HD
HETATM    4  N2  UNL     1      14.710  -0.518  13.185  1.00  0.00    -0.278 N 
ATOM      5  H2  UNL     1      14.920  -0.954  12.287  1.00  0.00     0.189 HD
HETATM    6  C3  UNL     1      15.681   0.029  13.920  1.00  0.00     0.180 A 
HETATM    7  N3  UNL     1      16.963   0.096  13.639  1.00  0.00    -0.167 N 
ATOM      8  H3  UNL     1      17.617   0.542  14.282  1.00  0.00     0.186 HD
HETATM    9  C4  UNL     1      17.410  -0.466  12.423  1.00  0.00     0.708 C 
HETATM   10  N4  UNL     1      17.695  -1.712  12.380  1.00  0.00    -0.121 N 
ATOM     11  H4  UNL     1      18.019  -2.137  11.510  1.00  0.00     0.206 HD
HETATM   12  N7  UNL     1      17.554   0.306  11.239  1.00  0.00    -0.124 N 
ATOM     13  H7  UNL     1      18.323   0.107  10.599  1.00  0.00     0.197 HD
HETATM   14  C5  UNL     1      16.652   1.340  10.936  1.00  0.00     0.196 C 
HETATM   15  N8  UNL     1      15.911   2.215  10.691  1.00  0.00    -0.171 NA
HETATM   16  S3  UNL     1      14.811   0.596  15.279  1.00  0.00    -0.026 SA
ENDROOT
BRANCH  10  17
HETATM   17  N5  UNL     1      17.560  -2.484  13.531  1.00  0.00    -0.196 N 
ATOM     18  H5  UNL     1      18.114  -2.261  14.357  1.00  0.00     0.202 HD
BRANCH  17  19
HETATM   19  S2  UNL     1      16.454  -3.821  13.569  1.00  0.00     0.330 S 
HETATM   20  O1  UNL     1      15.028  -3.348  13.465  1.00  0.00    -0.181 OA
HETATM   21  O2  UNL     1      16.617  -4.606  14.836  1.00  0.00    -0.181 OA
BRANCH  19  22
HETATM   22  N6  UNL     1      16.867  -4.842  12.227  1.00  0.00    -0.310 N 
ATOM     23  H62 UNL     1      16.516  -4.751  11.273  1.00  0.00     0.170 HD
ATOM     24  H61 UNL     1      17.520  -5.540  12.583  1.00  0.00     0.170 HD
ENDBRANCH  19  22
ENDBRANCH  17  19
ENDBRANCH  10  17
BRANCH   1  25
HETATM   25  S1  UNL     1      11.656   0.248  15.620  1.00  0.00    -0.108 SA
HETATM   26  C1  UNL     1      10.709   1.587  14.886  1.00  0.00     0.097 C 
ENDBRANCH   1  25
TORSDOF 4
ENDMDL
