MODEL 1
REMARK VINA RESULT: -4.839575965      0.000      0.000
REMARK  4 active torsions:
REMARK  status: ('A' for Active; 'I' for Inactive)
REMARK    1  A    between atoms: N1_1  and  C1_4 
REMARK    2  A    between atoms: C2_7  and  N3_8 
REMARK    3  A    between atoms: C7_16  and  C8_17 
REMARK    4  A    between atoms: C9_20  and  N6_21 
ROOT
HETATM    1  C1  UNL     1      17.429  -3.395  15.119  1.00  0.00     0.679 A 
HETATM    2  N2  UNL     1      17.681  -2.806  13.956  1.00  0.00    -0.176 N 
ATOM      3  H2  UNL     1      18.427  -3.137  13.344  1.00  0.00     0.186 HD
HETATM    4  C2  UNL     1      16.896  -1.733  13.611  1.00  0.00     0.138 A 
HETATM    5  C7  UNL     1      15.879  -1.303  14.476  1.00  0.00     0.117 A 
HETATM    6  C9  UNL     1      15.633  -1.920  15.668  1.00  0.00     0.138 A 
HETATM    7  N8  UNL     1      16.470  -2.987  15.929  1.00  0.00    -0.176 N 
ATOM      8  H8  UNL     1      16.338  -3.493  16.805  1.00  0.00     0.186 HD
ENDROOT
BRANCH   4   9
HETATM    9  N3  UNL     1      17.184  -1.129  12.387  1.00  0.00    -0.363 N 
HETATM   10  C3  UNL     1      18.095  -0.030  12.223  1.00  0.00     0.152 C 
HETATM   11  C4  UNL     1      17.365   0.951  11.272  1.00  0.00     0.252 C 
HETATM   12  N4  UNL     1      17.386   0.358   9.964  1.00  0.00    -0.072 N 
HETATM   13  C5  UNL     1      17.123  -1.037   9.940  1.00  0.00     0.252 C 
ATOM     14  H42 UNL     1      16.745   0.850   9.342  1.00  0.00     0.277 HD
ATOM     15  H41 UNL     1      18.271   0.559   9.498  1.00  0.00     0.277 HD
HETATM   16  C6  UNL     1      16.533  -1.606  11.184  1.00  0.00     0.152 C 
ENDBRANCH   4   9
BRANCH   5  17
HETATM   17  C8  UNL     1      15.144  -0.155  14.048  1.00  0.00     0.272 C 
HETATM   18  N5  UNL     1      14.007  -0.190  13.219  1.00  0.00    -0.057 NA
HETATM   19  O1  UNL     1      15.560   0.979  14.451  1.00  0.00    -0.271 OA
ENDBRANCH   5  17
BRANCH   1  20
HETATM   20  N1  UNL     1      18.193  -4.419  15.426  1.00  0.00    -0.234 N 
ATOM     21  H12 UNL     1      19.140  -4.285  15.781  1.00  0.00     0.174 HD
ATOM     22  H11 UNL     1      17.782  -5.342  15.290  1.00  0.00     0.174 HD
ENDBRANCH   1  20
BRANCH   6  23
HETATM   23  N6  UNL     1      14.615  -1.595  16.590  1.00  0.00    -0.363 N 
HETATM   24  C10 UNL     1      13.249  -2.031  16.580  1.00  0.00     0.152 C 
HETATM   25  C11 UNL     1      12.550  -1.560  17.889  1.00  0.00     0.252 C 
HETATM   26  N7  UNL     1      12.615  -0.110  17.786  1.00  0.00    -0.072 N 
HETATM   27  C12 UNL     1      13.969   0.208  18.193  1.00  0.00     0.252 C 
ATOM     28  H72 UNL     1      12.354   0.258  16.870  1.00  0.00     0.277 HD
ATOM     29  H71 UNL     1      11.892   0.382  18.311  1.00  0.00     0.277 HD
HETATM   30  C13 UNL     1      15.027  -0.676  17.670  1.00  0.00     0.152 C 
ENDBRANCH   6  23
TORSDOF 4
ENDMDL
MODEL 2
REMARK VINA RESULT: -4.816061327      2.302      2.909
REMARK  4 active torsions:
REMARK  status: ('A' for Active; 'I' for Inactive)
REMARK    1  A    between atoms: N1_1  and  C1_4 
REMARK    2  A    between atoms: C2_7  and  N3_8 
REMARK    3  A    between atoms: C7_16  and  C8_17 
REMARK    4  A    between atoms: C9_20  and  N6_21 
ROOT
HETATM    1  C1  UNL     1      13.267  -2.905  14.463  1.00  0.00     0.679 A 
HETATM    2  N2  UNL     1      14.298  -2.871  13.627  1.00  0.00    -0.176 N 
ATOM      3  H2  UNL     1      14.677  -3.725  13.217  1.00  0.00     0.186 HD
HETATM    4  C2  UNL     1      14.835  -1.640  13.339  1.00  0.00     0.138 A 
HETATM    5  C7  UNL     1      14.290  -0.486  13.921  1.00  0.00     0.117 A 
HETATM    6  C9  UNL     1      13.229  -0.537  14.778  1.00  0.00     0.138 A 
HETATM    7  N8  UNL     1      12.758  -1.815  15.007  1.00  0.00    -0.176 N 
ATOM      8  H8  UNL     1      11.964  -1.924  15.639  1.00  0.00     0.186 HD
ENDROOT
BRANCH   4   9
HETATM    9  N3  UNL     1      15.920  -1.633  12.462  1.00  0.00    -0.363 N 
HETATM   10  C3  UNL     1      17.291  -1.520  12.876  1.00  0.00     0.152 C 
HETATM   11  C4  UNL     1      17.917  -0.496  11.896  1.00  0.00     0.252 C 
HETATM   12  N4  UNL     1      18.050  -1.159  10.628  1.00  0.00    -0.072 N 
HETATM   13  C5  UNL     1      16.937  -1.960  10.258  1.00  0.00     0.252 C 
ATOM     14  H42 UNL     1      18.258  -0.481   9.895  1.00  0.00     0.277 HD
ATOM     15  H41 UNL     1      18.907  -1.711  10.606  1.00  0.00     0.277 HD
HETATM   16  C6  UNL     1      15.688  -1.731  11.036  1.00  0.00     0.152 C 
ENDBRANCH   4   9
BRANCH   5  17
HETATM   17  C8  UNL     1      14.942   0.742  13.591  1.00  0.00     0.272 C 
HETATM   18  N5  UNL     1      14.760   1.454  12.390  1.00  0.00    -0.057 NA
HETATM   19  O1  UNL     1      15.749   1.218  14.455  1.00  0.00    -0.271 OA
ENDBRANCH   5  17
BRANCH   1  20
HETATM   20  N1  UNL     1      12.771  -4.093  14.722  1.00  0.00    -0.234 N 
ATOM     21  H12 UNL     1      13.169  -4.685  15.452  1.00  0.00     0.174 HD
ATOM     22  H11 UNL     1      11.973  -4.381  14.156  1.00  0.00     0.174 HD
ENDBRANCH   1  20
BRANCH   6  23
HETATM   23  N6  UNL     1      12.584   0.560  15.386  1.00  0.00    -0.363 N 
HETATM   24  C10 UNL     1      11.526   1.365  14.847  1.00  0.00     0.152 C 
HETATM   25  C11 UNL     1      11.016   2.344  15.946  1.00  0.00     0.252 C 
HETATM   26  N7  UNL     1      12.186   3.167  16.213  1.00  0.00    -0.072 N 
HETATM   27  C12 UNL     1      12.999   2.342  17.086  1.00  0.00     0.252 C 
ATOM     28  H72 UNL     1      12.669   3.496  15.376  1.00  0.00     0.277 HD
ATOM     29  H71 UNL     1      11.973   4.092  16.588  1.00  0.00     0.277 HD
HETATM   30  C13 UNL     1      13.094   0.916  16.726  1.00  0.00     0.152 C 
ENDBRANCH   6  23
TORSDOF 4
ENDMDL
MODEL 3
REMARK VINA RESULT: -4.809590759      1.933      5.757
REMARK  4 active torsions:
REMARK  status: ('A' for Active; 'I' for Inactive)
REMARK    1  A    between atoms: N1_1  and  C1_4 
REMARK    2  A    between atoms: C2_7  and  N3_8 
REMARK    3  A    between atoms: C7_16  and  C8_17 
REMARK    4  A    between atoms: C9_20  and  N6_21 
ROOT
HETATM    1  C1  UNL     1      16.637  -3.851  13.108  1.00  0.00     0.679 A 
HETATM    2  N2  UNL     1      16.459  -4.049  14.409  1.00  0.00    -0.176 N 
ATOM      3  H2  UNL     1      16.440  -4.990  14.804  1.00  0.00     0.186 HD
HETATM    4  C2  UNL     1      16.301  -2.938  15.200  1.00  0.00     0.138 A 
HETATM    5  C7  UNL     1      16.331  -1.659  14.624  1.00  0.00     0.117 A 
HETATM    6  C9  UNL     1      16.516  -1.472  13.285  1.00  0.00     0.138 A 
HETATM    7  N8  UNL     1      16.666  -2.645  12.571  1.00  0.00    -0.176 N 
ATOM      8  H8  UNL     1      16.809  -2.575  11.564  1.00  0.00     0.186 HD
ENDROOT
BRANCH   4   9
HETATM    9  N3  UNL     1      16.110  -3.175  16.561  1.00  0.00    -0.363 N 
HETATM   10  C3  UNL     1      14.824  -3.334  17.181  1.00  0.00     0.152 C 
HETATM   11  C4  UNL     1      14.900  -2.484  18.475  1.00  0.00     0.252 C 
HETATM   12  N4  UNL     1      15.753  -3.192  19.389  1.00  0.00    -0.072 N 
HETATM   13  C5  UNL     1      16.915  -3.758  18.800  1.00  0.00     0.252 C 
ATOM     14  H42 UNL     1      16.010  -2.589  20.171  1.00  0.00     0.277 HD
ATOM     15  H41 UNL     1      15.223  -3.908  19.885  1.00  0.00     0.277 HD
HETATM   16  C6  UNL     1      17.259  -3.259  17.440  1.00  0.00     0.152 C 
ENDBRANCH   4   9
BRANCH   5  17
HETATM   17  C8  UNL     1      16.117  -0.569  15.522  1.00  0.00     0.272 C 
HETATM   18  N5  UNL     1      14.860  -0.017  15.832  1.00  0.00    -0.057 NA
HETATM   19  O1  UNL     1      17.148  -0.065  16.075  1.00  0.00    -0.271 OA
ENDBRANCH   5  17
BRANCH   1  20
HETATM   20  N1  UNL     1      16.786  -4.929  12.373  1.00  0.00    -0.234 N 
ATOM     21  H12 UNL     1      17.448  -4.953  11.598  1.00  0.00     0.174 HD
ATOM     22  H11 UNL     1      16.206  -5.729  12.626  1.00  0.00     0.174 HD
ENDBRANCH   1  20
BRANCH   6  23
HETATM   23  N6  UNL     1      16.601  -0.235  12.611  1.00  0.00    -0.363 N 
HETATM   24  C10 UNL     1      15.538   0.687  12.332  1.00  0.00     0.152 C 
HETATM   25  C11 UNL     1      16.136   1.992  11.726  1.00  0.00     0.252 C 
HETATM   26  N7  UNL     1      16.736   1.525  10.485  1.00  0.00    -0.072 N 
HETATM   27  C12 UNL     1      17.994   0.941  10.904  1.00  0.00     0.252 C 
ATOM     28  H72 UNL     1      16.142   0.899   9.941  1.00  0.00     0.277 HD
ATOM     29  H71 UNL     1      16.825   2.243   9.766  1.00  0.00     0.277 HD
HETATM   30  C13 UNL     1      17.951   0.117  12.126  1.00  0.00     0.152 C 
ENDBRANCH   6  23
TORSDOF 4
ENDMDL
MODEL 4
REMARK VINA RESULT: -4.799709946      2.213      5.889
REMARK  4 active torsions:
REMARK  status: ('A' for Active; 'I' for Inactive)
REMARK    1  A    between atoms: N1_1  and  C1_4 
REMARK    2  A    between atoms: C2_7  and  N3_8 
REMARK    3  A    between atoms: C7_16  and  C8_17 
REMARK    4  A    between atoms: C9_20  and  N6_21 
ROOT
HETATM    1  C1  UNL     1      16.751  -0.042  16.556  1.00  0.00     0.679 A 
HETATM    2  N2  UNL     1      16.274  -1.229  16.910  1.00  0.00    -0.176 N 
ATOM      3  H2  UNL     1      16.209  -1.504  17.891  1.00  0.00     0.186 HD
HETATM    4  C2  UNL     1      15.872  -2.072  15.903  1.00  0.00     0.138 A 
HETATM    5  C7  UNL     1      15.975  -1.663  14.566  1.00  0.00     0.117 A 
HETATM    6  C9  UNL     1      16.467  -0.439  14.218  1.00  0.00     0.138 A 
HETATM    7  N8  UNL     1      16.845   0.339  15.295  1.00  0.00    -0.176 N 
ATOM      8  H8  UNL     1      17.220   1.268  15.104  1.00  0.00     0.186 HD
ENDROOT
BRANCH   4   9
HETATM    9  N3  UNL     1      15.380  -3.315  16.302  1.00  0.00    -0.363 N 
HETATM   10  C3  UNL     1      16.187  -4.495  16.445  1.00  0.00     0.152 C 
HETATM   11  C4  UNL     1      15.359  -5.624  15.782  1.00  0.00     0.252 C 
HETATM   12  N4  UNL     1      14.264  -5.912  16.665  1.00  0.00    -0.072 N 
HETATM   13  C5  UNL     1      13.643  -4.768  17.234  1.00  0.00     0.252 C 
ATOM     14  H42 UNL     1      13.571  -6.492  16.191  1.00  0.00     0.277 HD
ATOM     15  H41 UNL     1      14.560  -6.555  17.399  1.00  0.00     0.277 HD
HETATM   16  C6  UNL     1      13.968  -3.467  16.587  1.00  0.00     0.152 C 
ENDBRANCH   4   9
BRANCH   5  17
HETATM   17  C8  UNL     1      15.571  -2.625  13.590  1.00  0.00     0.272 C 
HETATM   18  N5  UNL     1      16.426  -3.563  12.981  1.00  0.00    -0.057 NA
HETATM   19  O1  UNL     1      14.343  -2.622  13.251  1.00  0.00    -0.271 OA
ENDBRANCH   5  17
BRANCH   1  20
HETATM   20  N1  UNL     1      17.127   0.747  17.537  1.00  0.00    -0.234 N 
ATOM     21  H12 UNL     1      17.373   0.372  18.453  1.00  0.00     0.174 HD
ATOM     22  H11 UNL     1      17.159   1.744  17.325  1.00  0.00     0.174 HD
ENDBRANCH   1  20
BRANCH   6  23
HETATM   23  N6  UNL     1      16.578   0.085  12.912  1.00  0.00    -0.363 N 
HETATM   24  C10 UNL     1      17.622  -0.154  11.957  1.00  0.00     0.152 C 
HETATM   25  C11 UNL     1      17.229   0.493  10.596  1.00  0.00     0.252 C 
HETATM   26  N7  UNL     1      17.159   1.910  10.920  1.00  0.00    -0.072 N 
HETATM   27  C12 UNL     1      15.865   2.058  11.557  1.00  0.00     0.252 C 
ATOM     28  H72 UNL     1      17.942   2.253  11.476  1.00  0.00     0.277 HD
ATOM     29  H71 UNL     1      17.308   2.531  10.125  1.00  0.00     0.277 HD
HETATM   30  C13 UNL     1      15.491   1.002  12.516  1.00  0.00     0.152 C 
ENDBRANCH   6  23
TORSDOF 4
ENDMDL
MODEL 5
REMARK VINA RESULT: -4.799636922      1.963      6.348
REMARK  4 active torsions:
REMARK  status: ('A' for Active; 'I' for Inactive)
REMARK    1  A    between atoms: N1_1  and  C1_4 
REMARK    2  A    between atoms: C2_7  and  N3_8 
REMARK    3  A    between atoms: C7_16  and  C8_17 
REMARK    4  A    between atoms: C9_20  and  N6_21 
ROOT
HETATM    1  C1  UNL     1      14.127   0.740  14.431  1.00  0.00     0.679 A 
HETATM    2  N2  UNL     1      14.492   0.193  15.584  1.00  0.00    -0.176 N 
ATOM      3  H2  UNL     1      14.062   0.475  16.465  1.00  0.00     0.186 HD
HETATM    4  C2  UNL     1      15.474  -0.767  15.543  1.00  0.00     0.138 A 
HETATM    5  C7  UNL     1      16.045  -1.132  14.315  1.00  0.00     0.117 A 
HETATM    6  C9  UNL     1      15.658  -0.560  13.138  1.00  0.00     0.138 A 
HETATM    7  N8  UNL     1      14.668   0.393  13.278  1.00  0.00    -0.176 N 
ATOM      8  H8  UNL     1      14.332   0.859  12.434  1.00  0.00     0.186 HD
ENDROOT
BRANCH   4   9
HETATM    9  N3  UNL     1      15.842  -1.322  16.769  1.00  0.00    -0.363 N 
HETATM   10  C3  UNL     1      16.964  -0.881  17.550  1.00  0.00     0.152 C 
HETATM   11  C4  UNL     1      17.663  -2.185  18.011  1.00  0.00     0.252 C 
HETATM   12  N4  UNL     1      16.824  -2.776  19.016  1.00  0.00    -0.072 N 
HETATM   13  C5  UNL     1      15.434  -2.739  18.725  1.00  0.00     0.252 C 
ATOM     14  H42 UNL     1      17.120  -3.733  19.205  1.00  0.00     0.277 HD
ATOM     15  H41 UNL     1      17.006  -2.352  19.925  1.00  0.00     0.277 HD
HETATM   16  C6  UNL     1      15.076  -2.424  17.314  1.00  0.00     0.152 C 
ENDBRANCH   4   9
BRANCH   5  17
HETATM   17  C8  UNL     1      17.085  -2.109  14.380  1.00  0.00     0.272 C 
HETATM   18  N5  UNL     1      18.462  -1.818  14.417  1.00  0.00    -0.057 NA
HETATM   19  O1  UNL     1      16.728  -3.331  14.403  1.00  0.00    -0.271 OA
ENDBRANCH   5  17
BRANCH   1  20
HETATM   20  N1  UNL     1      13.187   1.655  14.497  1.00  0.00    -0.234 N 
ATOM     21  H12 UNL     1      13.387   2.596  14.836  1.00  0.00     0.174 HD
ATOM     22  H11 UNL     1      12.258   1.367  14.188  1.00  0.00     0.174 HD
ENDBRANCH   1  20
BRANCH   6  23
HETATM   23  N6  UNL     1      16.138  -0.878  11.849  1.00  0.00    -0.363 N 
HETATM   24  C10 UNL     1      15.840  -2.041  11.064  1.00  0.00     0.152 C 
HETATM   25  C11 UNL     1      16.457  -1.873   9.644  1.00  0.00     0.252 C 
HETATM   26  N7  UNL     1      17.884  -1.803   9.918  1.00  0.00    -0.072 N 
HETATM   27  C12 UNL     1      18.089  -0.436  10.354  1.00  0.00     0.252 C 
ATOM     28  H72 UNL     1      18.221  -2.508  10.574  1.00  0.00     0.277 HD
ATOM     29  H71 UNL     1      18.476  -2.088   9.137  1.00  0.00     0.277 HD
HETATM   30  C13 UNL     1      17.074   0.109  11.274  1.00  0.00     0.152 C 
ENDBRANCH   6  23
TORSDOF 4
ENDMDL
