MODEL 1
REMARK VINA RESULT: -5.322383816      0.000      0.000
REMARK  7 active torsions:
REMARK  status: ('A' for Active; 'I' for Inactive)
REMARK       I    between atoms: C2_2  and  N1_4 
REMARK    1  A    between atoms: N1_4  and  N2_6 
REMARK    2  A    between atoms: N2_6  and  C3_8 
REMARK    3  A    between atoms: C3_8  and  N3_10 
REMARK    4  A    between atoms: N3_10  and  N4_12 
REMARK       I    between atoms: N4_12  and  C4_14 
REMARK    5  A    between atoms: C4_14  and  C5_16 
REMARK    6  A    between atoms: C5_16  and  N5_17 
REMARK    7  A    between atoms: C6_18  and  O3_19 
ROOT
HETATM    1  N4  UNL     1     -14.705  -1.581 -13.419  1.00  0.00    -0.266 N 
ATOM      2  H4  UNL     1     -15.691  -1.562 -13.681  1.00  0.00     0.190 HD
HETATM    3  C4  UNL     1     -13.883  -0.429 -13.591  1.00  0.00     0.254 C 
HETATM    4  O2  UNL     1     -12.675  -0.375 -13.301  1.00  0.00    -0.270 OA
ENDROOT
BRANCH   1   5
HETATM    5  N3  UNL     1     -14.132  -2.732 -12.886  1.00  0.00    -0.272 N 
ATOM      6  H3  UNL     1     -13.770  -2.732 -11.932  1.00  0.00     0.189 HD
BRANCH   5   7
HETATM    7  C3  UNL     1     -14.056  -3.905 -13.681  1.00  0.00     0.205 C 
HETATM    8  S1  UNL     1     -12.632  -4.396 -14.338  1.00  0.00    -0.038 SA
BRANCH   7   9
HETATM    9  N2  UNL     1     -15.236  -4.664 -13.903  1.00  0.00    -0.273 N 
ATOM     10  H2  UNL     1     -15.775  -5.028 -13.117  1.00  0.00     0.189 HD
BRANCH   9  11
HETATM   11  N1  UNL     1     -15.653  -4.907 -15.236  1.00  0.00    -0.268 N 
HETATM   12  C2  UNL     1     -16.136  -3.845 -16.020  1.00  0.00     0.232 C 
HETATM   13  C1  UNL     1     -16.581  -4.084 -17.429  1.00  0.00     0.119 C 
HETATM   14  O1  UNL     1     -16.194  -2.697 -15.532  1.00  0.00    -0.272 OA
ATOM     15  H1  UNL     1     -15.602  -5.848 -15.625  1.00  0.00     0.190 HD
ENDBRANCH   9  11
ENDBRANCH   7   9
ENDBRANCH   5   7
ENDBRANCH   1   5
BRANCH   3  16
HETATM   16  C5  UNL     1     -14.520   0.784 -14.164  1.00  0.00     0.239 C 
BRANCH  16  17
HETATM   17  N5  UNL     1     -14.854   1.714 -13.054  1.00  0.00    -0.280 N 
HETATM   18  C6  UNL     1     -15.879   1.511 -12.282  1.00  0.00     0.152 A 
HETATM   19  C7  UNL     1     -16.131   2.419 -11.284  1.00  0.00     0.111 A 
HETATM   20  S2  UNL     1     -14.851   3.543 -11.513  1.00  0.00    -0.036 SA
HETATM   21  C8  UNL     1     -14.097   2.793 -12.840  1.00  0.00     0.292 A 
HETATM   22  O4  UNL     1     -13.055   3.155 -13.493  1.00  0.00    -0.259 OA
BRANCH  18  23
HETATM   23  O3  UNL     1     -16.775   0.398 -12.399  1.00  0.00    -0.345 OA
ATOM     24  H3  UNL     1     -17.665   0.386 -12.068  1.00  0.00     0.219 HD
ENDBRANCH  18  23
ENDBRANCH  16  17
ENDBRANCH   3  16
TORSDOF 7
ENDMDL
MODEL 2
REMARK VINA RESULT: -5.252898705      3.084      5.349
REMARK  7 active torsions:
REMARK  status: ('A' for Active; 'I' for Inactive)
REMARK       I    between atoms: C2_2  and  N1_4 
REMARK    1  A    between atoms: N1_4  and  N2_6 
REMARK    2  A    between atoms: N2_6  and  C3_8 
REMARK    3  A    between atoms: C3_8  and  N3_10 
REMARK    4  A    between atoms: N3_10  and  N4_12 
REMARK       I    between atoms: N4_12  and  C4_14 
REMARK    5  A    between atoms: C4_14  and  C5_16 
REMARK    6  A    between atoms: C5_16  and  N5_17 
REMARK    7  A    between atoms: C6_18  and  O3_19 
ROOT
HETATM    1  N4  UNL     1     -14.916  -1.137 -13.334  1.00  0.00    -0.266 N 
ATOM      2  H4  UNL     1     -15.862  -0.757 -13.351  1.00  0.00     0.190 HD
HETATM    3  C4  UNL     1     -14.362  -1.763 -14.489  1.00  0.00     0.254 C 
HETATM    4  O2  UNL     1     -13.221  -2.253 -14.547  1.00  0.00    -0.270 OA
ENDROOT
BRANCH   1   5
HETATM    5  N3  UNL     1     -14.135  -1.055 -12.184  1.00  0.00    -0.272 N 
ATOM      6  H3  UNL     1     -13.132  -1.233 -12.230  1.00  0.00     0.189 HD
BRANCH   5   7
HETATM    7  C3  UNL     1     -14.749  -0.724 -10.949  1.00  0.00     0.205 C 
HETATM    8  S1  UNL     1     -14.068  -1.158  -9.517  1.00  0.00    -0.038 SA
BRANCH   7   9
HETATM    9  N2  UNL     1     -15.971   0.000 -10.959  1.00  0.00    -0.273 N 
ATOM     10  H2  UNL     1     -16.852  -0.472 -11.163  1.00  0.00     0.189 HD
BRANCH   9  11
HETATM   11  N1  UNL     1     -15.945   1.391 -10.682  1.00  0.00    -0.268 N 
HETATM   12  C2  UNL     1     -15.558   2.294 -11.687  1.00  0.00     0.232 C 
HETATM   13  C1  UNL     1     -15.524   3.765 -11.411  1.00  0.00     0.119 C 
HETATM   14  O1  UNL     1     -15.241   1.862 -12.814  1.00  0.00    -0.272 OA
ATOM     15  H1  UNL     1     -16.206   1.734  -9.758  1.00  0.00     0.190 HD
ENDBRANCH   9  11
ENDBRANCH   7   9
ENDBRANCH   5   7
ENDBRANCH   1   5
BRANCH   3  16
HETATM   16  C5  UNL     1     -15.218  -1.837 -15.700  1.00  0.00     0.239 C 
BRANCH  16  17
HETATM   17  N5  UNL     1     -15.094  -0.559 -16.448  1.00  0.00    -0.280 N 
HETATM   18  C6  UNL     1     -15.834   0.470 -16.163  1.00  0.00     0.152 A 
HETATM   19  C7  UNL     1     -15.671   1.614 -16.904  1.00  0.00     0.111 A 
HETATM   20  S2  UNL     1     -14.432   1.139 -17.997  1.00  0.00    -0.036 SA
HETATM   21  C8  UNL     1     -14.213  -0.454 -17.446  1.00  0.00     0.292 A 
HETATM   22  O4  UNL     1     -13.404  -1.355 -17.868  1.00  0.00    -0.259 OA
BRANCH  18  23
HETATM   23  O3  UNL     1     -16.819   0.497 -15.121  1.00  0.00    -0.345 OA
ATOM     24  H3  UNL     1     -17.715   0.791 -15.235  1.00  0.00     0.219 HD
ENDBRANCH  18  23
ENDBRANCH  16  17
ENDBRANCH   3  16
TORSDOF 7
ENDMDL
MODEL 3
REMARK VINA RESULT: -5.219491524      3.082      5.534
REMARK  7 active torsions:
REMARK  status: ('A' for Active; 'I' for Inactive)
REMARK       I    between atoms: C2_2  and  N1_4 
REMARK    1  A    between atoms: N1_4  and  N2_6 
REMARK    2  A    between atoms: N2_6  and  C3_8 
REMARK    3  A    between atoms: C3_8  and  N3_10 
REMARK    4  A    between atoms: N3_10  and  N4_12 
REMARK       I    between atoms: N4_12  and  C4_14 
REMARK    5  A    between atoms: C4_14  and  C5_16 
REMARK    6  A    between atoms: C5_16  and  N5_17 
REMARK    7  A    between atoms: C6_18  and  O3_19 
ROOT
HETATM    1  N4  UNL     1     -14.807  -1.024 -13.377  1.00  0.00    -0.266 N 
ATOM      2  H4  UNL     1     -15.811  -0.840 -13.378  1.00  0.00     0.190 HD
HETATM    3  C4  UNL     1     -14.144  -1.448 -14.565  1.00  0.00     0.254 C 
HETATM    4  O2  UNL     1     -12.928  -1.695 -14.644  1.00  0.00    -0.270 OA
ENDROOT
BRANCH   1   5
HETATM    5  N3  UNL     1     -14.055  -0.865 -12.216  1.00  0.00    -0.272 N 
ATOM      6  H3  UNL     1     -13.037  -0.920 -12.251  1.00  0.00     0.189 HD
BRANCH   5   7
HETATM    7  C3  UNL     1     -14.717  -0.627 -10.984  1.00  0.00     0.205 C 
HETATM    8  S1  UNL     1     -14.077  -1.140  -9.560  1.00  0.00    -0.038 SA
BRANCH   7   9
HETATM    9  N2  UNL     1     -15.954   0.073 -10.991  1.00  0.00    -0.273 N 
ATOM     10  H2  UNL     1     -16.822  -0.410 -11.222  1.00  0.00     0.189 HD
BRANCH   9  11
HETATM   11  N1  UNL     1     -15.961   1.454 -10.672  1.00  0.00    -0.268 N 
HETATM   12  C2  UNL     1     -15.541   2.393 -11.632  1.00  0.00     0.232 C 
HETATM   13  C1  UNL     1     -15.540   3.855 -11.312  1.00  0.00     0.119 C 
HETATM   14  O1  UNL     1     -15.166   1.998 -12.755  1.00  0.00    -0.272 OA
ATOM     15  H1  UNL     1     -16.268   1.766  -9.752  1.00  0.00     0.190 HD
ENDBRANCH   9  11
ENDBRANCH   7   9
ENDBRANCH   5   7
ENDBRANCH   1   5
BRANCH   3  16
HETATM   16  C5  UNL     1     -14.971  -1.610 -15.787  1.00  0.00     0.239 C 
BRANCH  16  17
HETATM   17  N5  UNL     1     -15.006  -0.313 -16.512  1.00  0.00    -0.280 N 
HETATM   18  C6  UNL     1     -14.104  -0.003 -17.394  1.00  0.00     0.152 A 
HETATM   19  C7  UNL     1     -14.195   1.217 -18.016  1.00  0.00     0.111 A 
HETATM   20  S2  UNL     1     -15.607   1.870 -17.283  1.00  0.00    -0.036 SA
HETATM   21  C8  UNL     1     -15.976   0.567 -16.254  1.00  0.00     0.292 A 
HETATM   22  O4  UNL     1     -16.944   0.438 -15.424  1.00  0.00    -0.259 OA
BRANCH  18  23
HETATM   23  O3  UNL     1     -13.009  -0.851 -17.767  1.00  0.00    -0.345 OA
ATOM     24  H3  UNL     1     -12.286  -0.583 -18.322  1.00  0.00     0.219 HD
ENDBRANCH  18  23
ENDBRANCH  16  17
ENDBRANCH   3  16
TORSDOF 7
ENDMDL
MODEL 4
REMARK VINA RESULT: -5.145064922      2.625      6.043
REMARK  7 active torsions:
REMARK  status: ('A' for Active; 'I' for Inactive)
REMARK       I    between atoms: C2_2  and  N1_4 
REMARK    1  A    between atoms: N1_4  and  N2_6 
REMARK    2  A    between atoms: N2_6  and  C3_8 
REMARK    3  A    between atoms: C3_8  and  N3_10 
REMARK    4  A    between atoms: N3_10  and  N4_12 
REMARK       I    between atoms: N4_12  and  C4_14 
REMARK    5  A    between atoms: C4_14  and  C5_16 
REMARK    6  A    between atoms: C5_16  and  N5_17 
REMARK    7  A    between atoms: C6_18  and  O3_19 
ROOT
HETATM    1  N4  UNL     1     -15.029  -0.967 -13.473  1.00  0.00    -0.266 N 
ATOM      2  H4  UNL     1     -16.033  -1.147 -13.441  1.00  0.00     0.190 HD
HETATM    3  C4  UNL     1     -14.385  -0.657 -14.706  1.00  0.00     0.254 C 
HETATM    4  O2  UNL     1     -13.168  -0.429 -14.828  1.00  0.00    -0.270 OA
ENDROOT
BRANCH   1   5
HETATM    5  N3  UNL     1     -14.258  -1.019 -12.315  1.00  0.00    -0.272 N 
ATOM      6  H3  UNL     1     -13.283  -1.316 -12.359  1.00  0.00     0.189 HD
BRANCH   5   7
HETATM    7  C3  UNL     1     -14.841  -0.656 -11.074  1.00  0.00     0.205 C 
HETATM    8  S1  UNL     1     -14.141  -1.078  -9.648  1.00  0.00    -0.038 SA
BRANCH   7   9
HETATM    9  N2  UNL     1     -16.050   0.091 -11.073  1.00  0.00    -0.273 N 
ATOM     10  H2  UNL     1     -16.932  -0.349 -11.338  1.00  0.00     0.189 HD
BRANCH   9  11
HETATM   11  N1  UNL     1     -16.010   1.458 -10.699  1.00  0.00    -0.268 N 
HETATM   12  C2  UNL     1     -15.521   2.414 -11.606  1.00  0.00     0.232 C 
HETATM   13  C1  UNL     1     -15.470   3.862 -11.227  1.00  0.00     0.119 C 
HETATM   14  O1  UNL     1     -15.125   2.049 -12.732  1.00  0.00    -0.272 OA
ATOM     15  H1  UNL     1     -16.335   1.747  -9.777  1.00  0.00     0.190 HD
ENDBRANCH   9  11
ENDBRANCH   7   9
ENDBRANCH   5   7
ENDBRANCH   1   5
BRANCH   3  16
HETATM   16  C5  UNL     1     -15.231  -0.610 -15.925  1.00  0.00     0.239 C 
BRANCH  16  17
HETATM   17  N5  UNL     1     -14.989  -1.844 -16.719  1.00  0.00    -0.280 N 
HETATM   18  C6  UNL     1     -15.543  -2.975 -16.401  1.00  0.00     0.152 A 
HETATM   19  C7  UNL     1     -15.264  -4.075 -17.175  1.00  0.00     0.111 A 
HETATM   20  S2  UNL     1     -14.197  -3.407 -18.346  1.00  0.00    -0.036 SA
HETATM   21  C8  UNL     1     -14.179  -1.804 -17.779  1.00  0.00     0.292 A 
HETATM   22  O4  UNL     1     -13.550  -0.787 -18.240  1.00  0.00    -0.259 OA
BRANCH  18  23
HETATM   23  O3  UNL     1     -16.430  -3.161 -15.290  1.00  0.00    -0.345 OA
ATOM     24  H3  UNL     1     -16.890  -3.970 -15.098  1.00  0.00     0.219 HD
ENDBRANCH  18  23
ENDBRANCH  16  17
ENDBRANCH   3  16
TORSDOF 7
ENDMDL
MODEL 5
REMARK VINA RESULT: -5.042962346      3.363      5.315
REMARK  7 active torsions:
REMARK  status: ('A' for Active; 'I' for Inactive)
REMARK       I    between atoms: C2_2  and  N1_4 
REMARK    1  A    between atoms: N1_4  and  N2_6 
REMARK    2  A    between atoms: N2_6  and  C3_8 
REMARK    3  A    between atoms: C3_8  and  N3_10 
REMARK    4  A    between atoms: N3_10  and  N4_12 
REMARK       I    between atoms: N4_12  and  C4_14 
REMARK    5  A    between atoms: C4_14  and  C5_16 
REMARK    6  A    between atoms: C5_16  and  N5_17 
REMARK    7  A    between atoms: C6_18  and  O3_19 
ROOT
HETATM    1  N4  UNL     1     -13.337  -0.520 -12.795  1.00  0.00    -0.266 N 
ATOM      2  H4  UNL     1     -12.875   0.259 -12.327  1.00  0.00     0.190 HD
HETATM    3  C4  UNL     1     -12.874  -0.989 -14.059  1.00  0.00     0.254 C 
HETATM    4  O2  UNL     1     -13.385  -1.928 -14.693  1.00  0.00    -0.270 OA
ENDROOT
BRANCH   1   5
HETATM    5  N3  UNL     1     -14.435  -1.150 -12.215  1.00  0.00    -0.272 N 
ATOM      6  H3  UNL     1     -14.892  -1.928 -12.690  1.00  0.00     0.189 HD
BRANCH   5   7
HETATM    7  C3  UNL     1     -14.913  -0.698 -10.958  1.00  0.00     0.205 C 
HETATM    8  S1  UNL     1     -14.142  -1.096  -9.562  1.00  0.00    -0.038 SA
BRANCH   7   9
HETATM    9  N2  UNL     1     -16.077   0.116 -10.915  1.00  0.00    -0.273 N 
ATOM     10  H2  UNL     1     -16.999  -0.288 -11.081  1.00  0.00     0.189 HD
BRANCH   9  11
HETATM   11  N1  UNL     1     -15.935   1.499 -10.637  1.00  0.00    -0.268 N 
HETATM   12  C2  UNL     1     -15.452   2.364 -11.635  1.00  0.00     0.232 C 
HETATM   13  C1  UNL     1     -15.296   3.827 -11.359  1.00  0.00     0.119 C 
HETATM   14  O1  UNL     1     -15.154   1.904 -12.756  1.00  0.00    -0.272 OA
ATOM     15  H1  UNL     1     -16.181   1.865  -9.718  1.00  0.00     0.190 HD
ENDBRANCH   9  11
ENDBRANCH   7   9
ENDBRANCH   5   7
ENDBRANCH   1   5
BRANCH   3  16
HETATM   16  C5  UNL     1     -11.702  -0.298 -14.654  1.00  0.00     0.239 C 
BRANCH  16  17
HETATM   17  N5  UNL     1     -12.187   0.872 -15.434  1.00  0.00    -0.280 N 
HETATM   18  C6  UNL     1     -12.409   2.020 -14.868  1.00  0.00     0.152 A 
HETATM   19  C7  UNL     1     -12.866   3.052 -15.649  1.00  0.00     0.111 A 
HETATM   20  S2  UNL     1     -12.953   2.299 -17.193  1.00  0.00    -0.036 SA
HETATM   21  C8  UNL     1     -12.412   0.751 -16.744  1.00  0.00     0.292 A 
HETATM   22  O4  UNL     1     -12.251  -0.294 -17.468  1.00  0.00    -0.259 OA
BRANCH  18  23
HETATM   23  O3  UNL     1     -12.211   2.289 -13.473  1.00  0.00    -0.345 OA
ATOM     24  H3  UNL     1     -12.807   2.020 -12.783  1.00  0.00     0.219 HD
ENDBRANCH  18  23
ENDBRANCH  16  17
ENDBRANCH   3  16
TORSDOF 7
ENDMDL
