MODEL 1
REMARK VINA RESULT: -4.325850992      0.000      0.000
REMARK  2 active torsions:
REMARK  status: ('A' for Active; 'I' for Inactive)
REMARK    1  A    between atoms: C3_3  and  N1_4 
REMARK    2  A    between atoms: N1_4  and  C4_6 
ROOT
HETATM    1  C1  UNL     1      17.920  13.609  55.108  1.00  0.00     0.014 C 
HETATM    2  C2  UNL     1      18.450  14.539  54.544  1.00  0.00    -0.098 C 
HETATM    3  C3  UNL     1      19.075  15.680  53.843  1.00  0.00     0.214 C 
ENDROOT
BRANCH   3   4
HETATM    4  N1  UNL     1      18.755  15.682  52.454  1.00  0.00    -0.366 N 
ATOM      5  H1  UNL     1      19.369  15.149  51.839  1.00  0.00     0.162 HD
BRANCH   4   6
HETATM    6  C4  UNL     1      17.771  16.290  51.904  1.00  0.00     0.101 A 
HETATM    7  C5  UNL     1      17.030  17.276  52.489  1.00  0.00     0.050 A 
HETATM    8  C6  UNL     1      15.985  17.865  51.799  1.00  0.00     0.028 A 
HETATM    9  C7  UNL     1      15.656  17.479  50.507  1.00  0.00     0.060 A 
HETATM   10  C8  UNL     1      14.574  18.081  49.778  1.00  0.00     0.101 C 
HETATM   11  C9  UNL     1      16.432  16.478  49.957  1.00  0.00     0.112 A 
HETATM   12  N2  UNL     1      13.677  18.558  49.189  1.00  0.00    -0.191 NA
HETATM   13  N3  UNL     1      17.446  15.917  50.643  1.00  0.00    -0.351 N 
ATOM     14  H3  UNL     1      17.992  15.182  50.194  1.00  0.00     0.166 HD
ENDBRANCH   4   6
ENDBRANCH   3   4
TORSDOF 2
ENDMDL
MODEL 2
REMARK VINA RESULT: -4.262645080      5.098      7.150
REMARK  2 active torsions:
REMARK  status: ('A' for Active; 'I' for Inactive)
REMARK    1  A    between atoms: C3_3  and  N1_4 
REMARK    2  A    between atoms: N1_4  and  C4_6 
ROOT
HETATM    1  C1  UNL     1      15.124  20.125  57.343  1.00  0.00     0.014 C 
HETATM    2  C2  UNL     1      15.745  19.729  58.303  1.00  0.00    -0.098 C 
HETATM    3  C3  UNL     1      16.515  19.229  59.460  1.00  0.00     0.214 C 
ENDROOT
BRANCH   3   4
HETATM    4  N1  UNL     1      16.576  17.805  59.475  1.00  0.00    -0.366 N 
ATOM      5  H1  UNL     1      16.236  17.337  60.316  1.00  0.00     0.162 HD
BRANCH   4   6
HETATM    6  C4  UNL     1      17.016  17.056  58.534  1.00  0.00     0.101 A 
HETATM    7  C5  UNL     1      18.251  17.158  57.961  1.00  0.00     0.050 A 
HETATM    8  C6  UNL     1      18.623  16.292  56.948  1.00  0.00     0.028 A 
HETATM    9  C7  UNL     1      17.767  15.302  56.484  1.00  0.00     0.060 A 
HETATM   10  C8  UNL     1      18.139  14.396  55.434  1.00  0.00     0.101 C 
HETATM   11  C9  UNL     1      16.529  15.237  57.093  1.00  0.00     0.112 A 
HETATM   12  N2  UNL     1      18.434  13.667  54.561  1.00  0.00    -0.191 NA
HETATM   13  N3  UNL     1      16.185  16.088  58.079  1.00  0.00    -0.351 N 
ATOM     14  H3  UNL     1      15.260  16.000  58.499  1.00  0.00     0.166 HD
ENDBRANCH   4   6
ENDBRANCH   3   4
TORSDOF 2
ENDMDL
MODEL 3
REMARK VINA RESULT: -4.220653001      5.460      7.150
REMARK  2 active torsions:
REMARK  status: ('A' for Active; 'I' for Inactive)
REMARK    1  A    between atoms: C3_3  and  N1_4 
REMARK    2  A    between atoms: N1_4  and  C4_6 
ROOT
HETATM    1  C1  UNL     1      16.079  19.409  61.753  1.00  0.00     0.014 C 
HETATM    2  C2  UNL     1      16.276  19.448  60.560  1.00  0.00    -0.098 C 
HETATM    3  C3  UNL     1      16.493  19.490  59.099  1.00  0.00     0.214 C 
ENDROOT
BRANCH   3   4
HETATM    4  N1  UNL     1      15.805  18.433  58.435  1.00  0.00    -0.366 N 
ATOM      5  H1  UNL     1      14.793  18.392  58.559  1.00  0.00     0.162 HD
BRANCH   4   6
HETATM    6  C4  UNL     1      16.334  17.529  57.699  1.00  0.00     0.101 A 
HETATM    7  C5  UNL     1      17.154  17.764  56.632  1.00  0.00     0.050 A 
HETATM    8  C6  UNL     1      17.671  16.707  55.905  1.00  0.00     0.028 A 
HETATM    9  C7  UNL     1      17.381  15.388  56.227  1.00  0.00     0.060 A 
HETATM   10  C8  UNL     1      17.911  14.281  55.481  1.00  0.00     0.101 C 
HETATM   11  C9  UNL     1      16.548  15.200  57.312  1.00  0.00     0.112 A 
HETATM   12  N2  UNL     1      18.326  13.375  54.860  1.00  0.00    -0.191 NA
HETATM   13  N3  UNL     1      16.054  16.240  58.010  1.00  0.00    -0.351 N 
ATOM     14  H3  UNL     1      15.444  16.050  58.805  1.00  0.00     0.166 HD
ENDBRANCH   4   6
ENDBRANCH   3   4
TORSDOF 2
ENDMDL
MODEL 4
REMARK VINA RESULT: -3.855353429      2.484      5.508
REMARK  2 active torsions:
REMARK  status: ('A' for Active; 'I' for Inactive)
REMARK    1  A    between atoms: C3_3  and  N1_4 
REMARK    2  A    between atoms: N1_4  and  C4_6 
ROOT
HETATM    1  C1  UNL     1      16.786  16.421  49.556  1.00  0.00     0.014 C 
HETATM    2  C2  UNL     1      17.638  16.736  50.355  1.00  0.00    -0.098 C 
HETATM    3  C3  UNL     1      18.689  17.098  51.328  1.00  0.00     0.214 C 
ENDROOT
BRANCH   3   4
HETATM    4  N1  UNL     1      18.983  16.018  52.210  1.00  0.00    -0.366 N 
ATOM      5  H1  UNL     1      19.610  15.293  51.860  1.00  0.00     0.162 HD
BRANCH   4   6
HETATM    6  C4  UNL     1      18.535  15.869  53.401  1.00  0.00     0.101 A 
HETATM    7  C5  UNL     1      18.385  14.672  54.041  1.00  0.00     0.050 A 
HETATM    8  C6  UNL     1      17.889  14.629  55.331  1.00  0.00     0.028 A 
HETATM    9  C7  UNL     1      17.531  15.783  56.014  1.00  0.00     0.060 A 
HETATM   10  C8  UNL     1      17.015  15.754  57.354  1.00  0.00     0.101 C 
HETATM   11  C9  UNL     1      17.699  16.969  55.327  1.00  0.00     0.112 A 
HETATM   12  N2  UNL     1      16.574  15.730  58.443  1.00  0.00    -0.191 NA
HETATM   13  N3  UNL     1      18.184  16.993  54.071  1.00  0.00    -0.351 N 
ATOM     14  H3  UNL     1      18.291  17.894  53.605  1.00  0.00     0.166 HD
ENDBRANCH   4   6
ENDBRANCH   3   4
TORSDOF 2
ENDMDL
MODEL 5
REMARK VINA RESULT: -3.813544185      0.803      1.415
REMARK  2 active torsions:
REMARK  status: ('A' for Active; 'I' for Inactive)
REMARK    1  A    between atoms: C3_3  and  N1_4 
REMARK    2  A    between atoms: N1_4  and  C4_6 
ROOT
HETATM    1  C1  UNL     1      17.984  13.797  55.026  1.00  0.00     0.014 C 
HETATM    2  C2  UNL     1      18.318  14.779  54.405  1.00  0.00    -0.098 C 
HETATM    3  C3  UNL     1      18.704  15.979  53.632  1.00  0.00     0.214 C 
ENDROOT
BRANCH   3   4
HETATM    4  N1  UNL     1      18.431  15.818  52.242  1.00  0.00    -0.366 N 
ATOM      5  H1  UNL     1      19.035  15.179  51.725  1.00  0.00     0.162 HD
BRANCH   4   6
HETATM    6  C4  UNL     1      17.502  16.399  51.580  1.00  0.00     0.101 A 
HETATM    7  C5  UNL     1      17.226  16.187  50.260  1.00  0.00     0.050 A 
HETATM    8  C6  UNL     1      16.194  16.872  49.645  1.00  0.00     0.028 A 
HETATM    9  C7  UNL     1      15.413  17.789  50.336  1.00  0.00     0.060 A 
HETATM   10  C8  UNL     1      14.338  18.508  49.709  1.00  0.00     0.101 C 
HETATM   11  C9  UNL     1      15.729  17.971  51.667  1.00  0.00     0.112 A 
HETATM   12  N2  UNL     1      13.473  19.112  49.194  1.00  0.00    -0.191 NA
HETATM   13  N3  UNL     1      16.737  17.294  52.250  1.00  0.00    -0.351 N 
ATOM     14  H3  UNL     1      16.931  17.462  53.238  1.00  0.00     0.166 HD
ENDBRANCH   4   6
ENDBRANCH   3   4
TORSDOF 2
ENDMDL
