MODEL 1
REMARK VINA RESULT: -8.064892479      0.000      0.000
REMARK  12 active torsions:
REMARK  status: ('A' for Active; 'I' for Inactive)
REMARK    1  A    between atoms: C2_2  and  C4_4 
REMARK    2  A    between atoms: C4_4  and  C5_5 
REMARK    3  A    between atoms: C7_7  and  O1_8 
REMARK    4  A    between atoms: C9_12  and  C10_13 
REMARK    5  A    between atoms: C10_13  and  C11_14 
REMARK    6  A    between atoms: C14_17  and  O2_18 
REMARK    7  A    between atoms: C15_22  and  C16_23 
REMARK    8  A    between atoms: C16_23  and  C17_24 
REMARK    9  A    between atoms: C21_31  and  C22_32 
REMARK   10  A    between atoms: C22_32  and  C23_33 
REMARK   11  A    between atoms: C23_33  and  C24_34 
REMARK   12  A    between atoms: C24_34  and  N4_35 
ROOT
HETATM    1  C5  UNL     1      12.802 -16.272  20.768  1.00  0.00     0.092 C 
HETATM    2  C6  UNL     1      13.313 -15.048  20.042  1.00  0.00     0.108 C 
HETATM    3  C7  UNL     1      12.986 -13.812  20.779  1.00  0.00     0.115 C 
HETATM    4  N1  UNL     1      13.664 -12.612  20.862  1.00  0.00    -0.357 N 
HETATM    5  C8  UNL     1      13.593 -11.936  22.182  1.00  0.00     0.152 C 
HETATM    6  C9  UNL     1      14.408 -11.875  19.851  1.00  0.00     0.160 C 
HETATM    7  C14 UNL     1      15.834 -11.782  20.245  1.00  0.00     0.135 C 
HETATM    8  N2  UNL     1      16.893 -12.658  20.169  1.00  0.00    -0.359 N 
ATOM      9  H2  UNL     1      17.656 -12.298  19.596  1.00  0.00     0.162 HD
HETATM   10  C15 UNL     1      17.175 -13.950  20.704  1.00  0.00     0.175 C 
HETATM   11  C20 UNL     1      16.687 -14.163  22.099  1.00  0.00     0.241 C 
HETATM   12  O3  UNL     1      16.926 -13.179  22.883  1.00  0.00    -0.271 OA
HETATM   13  N3  UNL     1      16.032 -15.257  22.635  1.00  0.00    -0.347 N 
ATOM     14  H3  UNL     1      15.223 -15.074  23.229  1.00  0.00     0.163 HD
HETATM   15  C21 UNL     1      16.411 -16.680  22.413  1.00  0.00     0.164 C 
HETATM   16  C26 UNL     1      15.200 -17.495  22.700  1.00  0.00     0.238 C 
HETATM   17  O4  UNL     1      14.889 -17.685  23.910  1.00  0.00    -0.285 OA
HETATM   18  C27 UNL     1      14.330 -18.100  21.693  1.00  0.00     0.289 C 
HETATM   19  O5  UNL     1      14.088 -19.368  21.747  1.00  0.00    -0.264 OA
HETATM   20  N7  UNL     1      13.703 -17.404  20.626  1.00  0.00    -0.349 N 
ATOM     21  H7  UNL     1      13.901 -17.726  19.679  1.00  0.00     0.163 HD
ENDROOT
BRANCH  15  22
HETATM   22  C22 UNL     1      17.446 -16.950  23.457  1.00  0.00     0.035 C 
BRANCH  22  23
HETATM   23  C23 UNL     1      18.831 -17.222  23.078  1.00  0.00     0.022 C 
BRANCH  23  24
HETATM   24  C24 UNL     1      19.147 -17.894  21.789  1.00  0.00     0.122 C 
BRANCH  24  25
HETATM   25  N4  UNL     1      20.538 -17.530  21.428  1.00  0.00    -0.367 N 
HETATM   26  C25 UNL     1      21.233 -18.232  20.605  1.00  0.00     0.196 C 
HETATM   27  N5  UNL     1      22.554 -17.797  20.327  1.00  0.00    -0.067 NA
HETATM   28  N6  UNL     1      20.764 -19.403  19.964  1.00  0.00    -0.067 NA
ATOM     29  H4  UNL     1      20.956 -16.699  21.845  1.00  0.00     0.161 HD
ENDBRANCH  24  25
ENDBRANCH  23  24
ENDBRANCH  22  23
ENDBRANCH  15  22
BRANCH  10  30
HETATM   30  C16 UNL     1      18.626 -14.309  20.756  1.00  0.00     0.038 C 
BRANCH  30  31
HETATM   31  C17 UNL     1      19.646 -13.272  20.892  1.00  0.00    -0.020 C 
HETATM   32  C18 UNL     1      20.397 -12.954  19.636  1.00  0.00     0.009 C 
HETATM   33  C19 UNL     1      20.737 -13.717  21.903  1.00  0.00     0.009 C 
ENDBRANCH  30  31
ENDBRANCH  10  30
BRANCH   1  34
HETATM   34  C4  UNL     1      11.408 -16.650  20.265  1.00  0.00     0.029 C 
BRANCH  34  35
HETATM   35  C2  UNL     1      11.415 -17.057  18.821  1.00  0.00    -0.021 C 
HETATM   36  C1  UNL     1      10.250 -16.328  18.157  1.00  0.00     0.009 C 
HETATM   37  C3  UNL     1      11.233 -18.529  18.618  1.00  0.00     0.009 C 
ENDBRANCH  34  35
ENDBRANCH   1  34
BRANCH   7  38
HETATM   38  O2  UNL     1      16.122 -10.619  20.769  1.00  0.00    -0.348 OA
ATOM     39  H2  UNL     1      17.057 -10.509  20.899  1.00  0.00     0.219 HD
ENDBRANCH   7  38
BRANCH   6  40
HETATM   40  C10 UNL     1      14.080 -12.264  18.471  1.00  0.00     0.037 C 
BRANCH  40  41
HETATM   41  C11 UNL     1      15.097 -12.161  17.407  1.00  0.00    -0.020 C 
HETATM   42  C12 UNL     1      14.880 -11.310  16.233  1.00  0.00     0.009 C 
HETATM   43  C13 UNL     1      15.468 -13.560  16.848  1.00  0.00     0.009 C 
ENDBRANCH  40  41
ENDBRANCH   6  40
BRANCH   3  44
HETATM   44  O1  UNL     1      11.875 -13.894  21.450  1.00  0.00    -0.349 OA
ATOM     45  H1  UNL     1      11.322 -13.127  21.355  1.00  0.00     0.219 HD
ENDBRANCH   3  44
TORSDOF 12
ENDMDL
MODEL 2
REMARK VINA RESULT: -8.018151730      1.646      2.067
REMARK  12 active torsions:
REMARK  status: ('A' for Active; 'I' for Inactive)
REMARK    1  A    between atoms: C2_2  and  C4_4 
REMARK    2  A    between atoms: C4_4  and  C5_5 
REMARK    3  A    between atoms: C7_7  and  O1_8 
REMARK    4  A    between atoms: C9_12  and  C10_13 
REMARK    5  A    between atoms: C10_13  and  C11_14 
REMARK    6  A    between atoms: C14_17  and  O2_18 
REMARK    7  A    between atoms: C15_22  and  C16_23 
REMARK    8  A    between atoms: C16_23  and  C17_24 
REMARK    9  A    between atoms: C21_31  and  C22_32 
REMARK   10  A    between atoms: C22_32  and  C23_33 
REMARK   11  A    between atoms: C23_33  and  C24_34 
REMARK   12  A    between atoms: C24_34  and  N4_35 
ROOT
HETATM    1  C5  UNL     1      12.871 -16.330  20.789  1.00  0.00     0.092 C 
HETATM    2  C6  UNL     1      13.366 -15.107  20.052  1.00  0.00     0.108 C 
HETATM    3  C7  UNL     1      13.012 -13.868  20.771  1.00  0.00     0.115 C 
HETATM    4  N1  UNL     1      13.669 -12.655  20.844  1.00  0.00    -0.357 N 
HETATM    5  C8  UNL     1      13.575 -11.964  22.155  1.00  0.00     0.152 C 
HETATM    6  C9  UNL     1      14.408 -11.919  19.829  1.00  0.00     0.160 C 
HETATM    7  C14 UNL     1      15.829 -11.796  20.234  1.00  0.00     0.135 C 
HETATM    8  N2  UNL     1      16.904 -12.654  20.178  1.00  0.00    -0.359 N 
ATOM      9  H2  UNL     1      17.665 -12.289  19.606  1.00  0.00     0.162 HD
HETATM   10  C15 UNL     1      17.203 -13.935  20.732  1.00  0.00     0.175 C 
HETATM   11  C20 UNL     1      16.708 -14.139  22.125  1.00  0.00     0.241 C 
HETATM   12  O3  UNL     1      16.923 -13.141  22.898  1.00  0.00    -0.271 OA
HETATM   13  N3  UNL     1      16.066 -15.237  22.669  1.00  0.00    -0.347 N 
ATOM     14  H3  UNL     1      15.250 -15.060  23.254  1.00  0.00     0.163 HD
HETATM   15  C21 UNL     1      16.471 -16.656  22.469  1.00  0.00     0.164 C 
HETATM   16  C26 UNL     1      15.273 -17.488  22.756  1.00  0.00     0.238 C 
HETATM   17  O4  UNL     1      14.955 -17.668  23.966  1.00  0.00    -0.285 OA
HETATM   18  C27 UNL     1      14.422 -18.120  21.750  1.00  0.00     0.289 C 
HETATM   19  O5  UNL     1      14.201 -19.392  21.818  1.00  0.00    -0.264 OA
HETATM   20  N7  UNL     1      13.791 -17.449  20.669  1.00  0.00    -0.349 N 
ATOM     21  H7  UNL     1      14.003 -17.779  19.728  1.00  0.00     0.163 HD
ENDROOT
BRANCH  15  22
HETATM   22  C22 UNL     1      17.503 -16.895  23.525  1.00  0.00     0.035 C 
BRANCH  22  23
HETATM   23  C23 UNL     1      18.905 -17.094  23.163  1.00  0.00     0.022 C 
BRANCH  23  24
HETATM   24  C24 UNL     1      19.989 -16.785  24.134  1.00  0.00     0.122 C 
BRANCH  24  25
HETATM   25  N4  UNL     1      19.647 -15.499  24.787  1.00  0.00    -0.367 N 
HETATM   26  C25 UNL     1      20.515 -14.819  25.446  1.00  0.00     0.196 C 
HETATM   27  N5  UNL     1      20.085 -13.601  26.033  1.00  0.00    -0.067 NA
HETATM   28  N6  UNL     1      21.865 -15.207  25.621  1.00  0.00    -0.067 NA
ATOM     29  H4  UNL     1      18.694 -15.144  24.711  1.00  0.00     0.161 HD
ENDBRANCH  24  25
ENDBRANCH  23  24
ENDBRANCH  22  23
ENDBRANCH  15  22
BRANCH  10  30
HETATM   30  C16 UNL     1      18.659 -14.268  20.799  1.00  0.00     0.038 C 
BRANCH  30  31
HETATM   31  C17 UNL     1      19.664 -13.210  20.881  1.00  0.00    -0.020 C 
HETATM   32  C18 UNL     1      20.384 -12.920  19.601  1.00  0.00     0.009 C 
HETATM   33  C19 UNL     1      20.782 -13.602  21.884  1.00  0.00     0.009 C 
ENDBRANCH  30  31
ENDBRANCH  10  30
BRANCH   1  34
HETATM   34  C4  UNL     1      11.487 -16.739  20.280  1.00  0.00     0.029 C 
BRANCH  34  35
HETATM   35  C2  UNL     1      11.489 -17.045  18.811  1.00  0.00    -0.021 C 
HETATM   36  C1  UNL     1      10.272 -16.340  18.217  1.00  0.00     0.009 C 
HETATM   37  C3  UNL     1      11.387 -18.507  18.509  1.00  0.00     0.009 C 
ENDBRANCH  34  35
ENDBRANCH   1  34
BRANCH   7  38
HETATM   38  O2  UNL     1      16.093 -10.622  20.746  1.00  0.00    -0.348 OA
ATOM     39  H2  UNL     1      16.717 -10.677  21.460  1.00  0.00     0.219 HD
ENDBRANCH   7  38
BRANCH   6  40
HETATM   40  C10 UNL     1      14.099 -12.330  18.452  1.00  0.00     0.037 C 
BRANCH  40  41
HETATM   41  C11 UNL     1      15.128 -12.239  17.399  1.00  0.00    -0.020 C 
HETATM   42  C12 UNL     1      14.946 -11.364  16.237  1.00  0.00     0.009 C 
HETATM   43  C13 UNL     1      15.464 -13.639  16.821  1.00  0.00     0.009 C 
ENDBRANCH  40  41
ENDBRANCH   6  40
BRANCH   3  44
HETATM   44  O1  UNL     1      11.897 -13.960  21.434  1.00  0.00    -0.349 OA
ATOM     45  H1  UNL     1      11.478 -13.121  21.582  1.00  0.00     0.219 HD
ENDBRANCH   3  44
TORSDOF 12
ENDMDL
MODEL 3
REMARK VINA RESULT: -7.819621355      1.792      2.308
REMARK  12 active torsions:
REMARK  status: ('A' for Active; 'I' for Inactive)
REMARK    1  A    between atoms: C2_2  and  C4_4 
REMARK    2  A    between atoms: C4_4  and  C5_5 
REMARK    3  A    between atoms: C7_7  and  O1_8 
REMARK    4  A    between atoms: C9_12  and  C10_13 
REMARK    5  A    between atoms: C10_13  and  C11_14 
REMARK    6  A    between atoms: C14_17  and  O2_18 
REMARK    7  A    between atoms: C15_22  and  C16_23 
REMARK    8  A    between atoms: C16_23  and  C17_24 
REMARK    9  A    between atoms: C21_31  and  C22_32 
REMARK   10  A    between atoms: C22_32  and  C23_33 
REMARK   11  A    between atoms: C23_33  and  C24_34 
REMARK   12  A    between atoms: C24_34  and  N4_35 
ROOT
HETATM    1  C5  UNL     1      13.430 -16.470  19.263  1.00  0.00     0.092 C 
HETATM    2  C6  UNL     1      14.089 -15.201  18.771  1.00  0.00     0.108 C 
HETATM    3  C7  UNL     1      13.402 -14.004  19.292  1.00  0.00     0.115 C 
HETATM    4  N1  UNL     1      13.896 -12.753  19.610  1.00  0.00    -0.357 N 
HETATM    5  C8  UNL     1      13.256 -12.100  20.779  1.00  0.00     0.152 C 
HETATM    6  C9  UNL     1      14.919 -11.949  18.958  1.00  0.00     0.160 C 
HETATM    7  C14 UNL     1      16.061 -11.746  19.881  1.00  0.00     0.135 C 
HETATM    8  N2  UNL     1      17.129 -12.533  20.249  1.00  0.00    -0.359 N 
ATOM      9  H2  UNL     1      18.026 -12.107  20.016  1.00  0.00     0.162 HD
HETATM   10  C15 UNL     1      17.276 -13.804  20.880  1.00  0.00     0.175 C 
HETATM   11  C20 UNL     1      16.295 -14.070  21.974  1.00  0.00     0.241 C 
HETATM   12  O3  UNL     1      16.127 -13.079  22.766  1.00  0.00    -0.271 OA
HETATM   13  N3  UNL     1      15.569 -15.219  22.231  1.00  0.00    -0.347 N 
ATOM     14  H3  UNL     1      14.580 -15.108  22.453  1.00  0.00     0.163 HD
HETATM   15  C21 UNL     1      16.114 -16.604  22.208  1.00  0.00     0.164 C 
HETATM   16  C26 UNL     1      14.956 -17.517  22.012  1.00  0.00     0.238 C 
HETATM   17  O4  UNL     1      14.207 -17.744  23.005  1.00  0.00    -0.285 OA
HETATM   18  C27 UNL     1      14.605 -18.179  20.757  1.00  0.00     0.289 C 
HETATM   19  O5  UNL     1      14.461 -19.463  20.739  1.00  0.00    -0.264 OA
HETATM   20  N7  UNL     1      14.398 -17.525  19.514  1.00  0.00    -0.349 N 
ATOM     21  H7  UNL     1      14.979 -17.820  18.730  1.00  0.00     0.163 HD
ENDROOT
BRANCH  15  22
HETATM   22  C22 UNL     1      16.670 -16.802  23.582  1.00  0.00     0.035 C 
BRANCH  22  23
HETATM   23  C23 UNL     1      18.114 -16.796  23.808  1.00  0.00     0.022 C 
BRANCH  23  24
HETATM   24  C24 UNL     1      18.714 -15.929  24.857  1.00  0.00     0.122 C 
BRANCH  24  25
HETATM   25  N4  UNL     1      20.110 -15.639  24.449  1.00  0.00    -0.367 N 
HETATM   26  C25 UNL     1      20.638 -14.479  24.609  1.00  0.00     0.196 C 
HETATM   27  N5  UNL     1      21.981 -14.307  24.185  1.00  0.00    -0.067 NA
HETATM   28  N6  UNL     1      19.968 -13.370  25.180  1.00  0.00    -0.067 NA
ATOM     29  H4  UNL     1      20.666 -16.383  24.029  1.00  0.00     0.161 HD
ENDBRANCH  24  25
ENDBRANCH  23  24
ENDBRANCH  22  23
ENDBRANCH  15  22
BRANCH  10  30
HETATM   30  C16 UNL     1      18.611 -14.046  21.508  1.00  0.00     0.038 C 
BRANCH  30  31
HETATM   31  C17 UNL     1      19.801 -14.240  20.681  1.00  0.00    -0.020 C 
HETATM   32  C18 UNL     1      20.574 -15.490  20.968  1.00  0.00     0.009 C 
HETATM   33  C19 UNL     1      20.813 -13.087  20.912  1.00  0.00     0.009 C 
ENDBRANCH  30  31
ENDBRANCH  10  30
BRANCH   1  34
HETATM   34  C4  UNL     1      12.382 -16.954  18.259  1.00  0.00     0.029 C 
BRANCH  34  35
HETATM   35  C2  UNL     1      11.126 -17.427  18.931  1.00  0.00    -0.021 C 
HETATM   36  C1  UNL     1       9.975 -16.648  18.302  1.00  0.00     0.009 C 
HETATM   37  C3  UNL     1      11.115 -17.183  20.408  1.00  0.00     0.009 C 
ENDBRANCH  34  35
ENDBRANCH   1  34
BRANCH   7  38
HETATM   38  O2  UNL     1      16.027 -10.569  20.451  1.00  0.00    -0.348 OA
ATOM     39  H2  UNL     1      15.273 -10.062  20.175  1.00  0.00     0.219 HD
ENDBRANCH   7  38
BRANCH   6  40
HETATM   40  C10 UNL     1      15.195 -12.348  17.570  1.00  0.00     0.037 C 
BRANCH  40  41
HETATM   41  C11 UNL     1      15.732 -11.369  16.606  1.00  0.00    -0.020 C 
HETATM   42  C12 UNL     1      15.143 -11.219  15.272  1.00  0.00     0.009 C 
HETATM   43  C13 UNL     1      17.250 -11.587  16.373  1.00  0.00     0.009 C 
ENDBRANCH  40  41
ENDBRANCH   6  40
BRANCH   3  44
HETATM   44  O1  UNL     1      12.126 -14.181  19.472  1.00  0.00    -0.349 OA
ATOM     45  H1  UNL     1      11.793 -13.752  20.251  1.00  0.00     0.219 HD
ENDBRANCH   3  44
TORSDOF 12
ENDMDL
MODEL 4
REMARK VINA RESULT: -7.766761153      1.136      1.362
REMARK  12 active torsions:
REMARK  status: ('A' for Active; 'I' for Inactive)
REMARK    1  A    between atoms: C2_2  and  C4_4 
REMARK    2  A    between atoms: C4_4  and  C5_5 
REMARK    3  A    between atoms: C7_7  and  O1_8 
REMARK    4  A    between atoms: C9_12  and  C10_13 
REMARK    5  A    between atoms: C10_13  and  C11_14 
REMARK    6  A    between atoms: C14_17  and  O2_18 
REMARK    7  A    between atoms: C15_22  and  C16_23 
REMARK    8  A    between atoms: C16_23  and  C17_24 
REMARK    9  A    between atoms: C21_31  and  C22_32 
REMARK   10  A    between atoms: C22_32  and  C23_33 
REMARK   11  A    between atoms: C23_33  and  C24_34 
REMARK   12  A    between atoms: C24_34  and  N4_35 
ROOT
HETATM    1  C5  UNL     1      13.458 -16.407  19.231  1.00  0.00     0.092 C 
HETATM    2  C6  UNL     1      14.161 -15.165  18.731  1.00  0.00     0.108 C 
HETATM    3  C7  UNL     1      13.536 -13.942  19.270  1.00  0.00     0.115 C 
HETATM    4  N1  UNL     1      14.089 -12.715  19.583  1.00  0.00    -0.357 N 
HETATM    5  C8  UNL     1      13.499 -12.041  20.766  1.00  0.00     0.152 C 
HETATM    6  C9  UNL     1      15.133 -11.952  18.915  1.00  0.00     0.160 C 
HETATM    7  C14 UNL     1      16.299 -11.802  19.817  1.00  0.00     0.135 C 
HETATM    8  N2  UNL     1      17.339 -12.635  20.162  1.00  0.00    -0.359 N 
ATOM      9  H2  UNL     1      18.249 -12.246  19.913  1.00  0.00     0.162 HD
HETATM   10  C15 UNL     1      17.444 -13.915  20.786  1.00  0.00     0.175 C 
HETATM   11  C20 UNL     1      16.473 -14.144  21.896  1.00  0.00     0.241 C 
HETATM   12  O3  UNL     1      16.362 -13.149  22.695  1.00  0.00    -0.271 OA
HETATM   13  N3  UNL     1      15.703 -15.262  22.163  1.00  0.00    -0.347 N 
ATOM     14  H3  UNL     1      14.724 -15.110  22.404  1.00  0.00     0.163 HD
HETATM   15  C21 UNL     1      16.188 -16.669  22.125  1.00  0.00     0.164 C 
HETATM   16  C26 UNL     1      14.990 -17.531  21.947  1.00  0.00     0.238 C 
HETATM   17  O4  UNL     1      14.251 -17.730  22.952  1.00  0.00    -0.285 OA
HETATM   18  C27 UNL     1      14.588 -18.172  20.696  1.00  0.00     0.289 C 
HETATM   19  O5  UNL     1      14.389 -19.448  20.676  1.00  0.00    -0.264 OA
HETATM   20  N7  UNL     1      14.386 -17.503  19.460  1.00  0.00    -0.349 N 
ATOM     21  H7  UNL     1      14.939 -17.819  18.663  1.00  0.00     0.163 HD
ENDROOT
BRANCH  15  22
HETATM   22  C22 UNL     1      16.761 -16.896  23.487  1.00  0.00     0.035 C 
BRANCH  22  23
HETATM   23  C23 UNL     1      18.194 -17.122  23.663  1.00  0.00     0.022 C 
BRANCH  23  24
HETATM   24  C24 UNL     1      19.008 -17.718  22.569  1.00  0.00     0.122 C 
BRANCH  24  25
HETATM   25  N4  UNL     1      20.425 -17.691  23.005  1.00  0.00    -0.367 N 
HETATM   26  C25 UNL     1      21.373 -17.334  22.214  1.00  0.00     0.196 C 
HETATM   27  N5  UNL     1      22.694 -17.342  22.730  1.00  0.00    -0.067 NA
HETATM   28  N6  UNL     1      21.181 -16.934  20.870  1.00  0.00    -0.067 NA
ATOM     29  H4  UNL     1      20.654 -17.964  23.961  1.00  0.00     0.161 HD
ENDBRANCH  24  25
ENDBRANCH  23  24
ENDBRANCH  22  23
ENDBRANCH  15  22
BRANCH  10  30
HETATM   30  C16 UNL     1      18.779 -14.216  21.387  1.00  0.00     0.038 C 
BRANCH  30  31
HETATM   31  C17 UNL     1      19.804 -13.178  21.485  1.00  0.00    -0.020 C 
HETATM   32  C18 UNL     1      20.514 -12.867  20.204  1.00  0.00     0.009 C 
HETATM   33  C19 UNL     1      20.927 -13.619  22.462  1.00  0.00     0.009 C 
ENDBRANCH  30  31
ENDBRANCH  10  30
BRANCH   1  34
HETATM   34  C4  UNL     1      12.373 -16.842  18.245  1.00  0.00     0.029 C 
BRANCH  34  35
HETATM   35  C2  UNL     1      11.137 -17.335  18.940  1.00  0.00    -0.021 C 
HETATM   36  C1  UNL     1       9.960 -16.589  18.318  1.00  0.00     0.009 C 
HETATM   37  C3  UNL     1      11.141 -17.073  20.414  1.00  0.00     0.009 C 
ENDBRANCH  34  35
ENDBRANCH   1  34
BRANCH   7  38
HETATM   38  O2  UNL     1      16.326 -10.627  20.392  1.00  0.00    -0.348 OA
ATOM     39  H2  UNL     1      15.624 -10.524  21.024  1.00  0.00     0.219 HD
ENDBRANCH   7  38
BRANCH   6  40
HETATM   40  C10 UNL     1      15.366 -12.357  17.521  1.00  0.00     0.037 C 
BRANCH  40  41
HETATM   41  C11 UNL     1      15.822 -11.369  16.525  1.00  0.00    -0.020 C 
HETATM   42  C12 UNL     1      15.258 -11.340  15.172  1.00  0.00     0.009 C 
HETATM   43  C13 UNL     1      17.361 -11.432  16.338  1.00  0.00     0.009 C 
ENDBRANCH  40  41
ENDBRANCH   6  40
BRANCH   3  44
HETATM   44  O1  UNL     1      12.257 -14.066  19.473  1.00  0.00    -0.349 OA
ATOM     45  H1  UNL     1      11.754 -13.325  19.158  1.00  0.00     0.219 HD
ENDBRANCH   3  44
TORSDOF 12
ENDMDL
MODEL 5
REMARK VINA RESULT: -7.752193126      1.951      2.564
REMARK  12 active torsions:
REMARK  status: ('A' for Active; 'I' for Inactive)
REMARK    1  A    between atoms: C2_2  and  C4_4 
REMARK    2  A    between atoms: C4_4  and  C5_5 
REMARK    3  A    between atoms: C7_7  and  O1_8 
REMARK    4  A    between atoms: C9_12  and  C10_13 
REMARK    5  A    between atoms: C10_13  and  C11_14 
REMARK    6  A    between atoms: C14_17  and  O2_18 
REMARK    7  A    between atoms: C15_22  and  C16_23 
REMARK    8  A    between atoms: C16_23  and  C17_24 
REMARK    9  A    between atoms: C21_31  and  C22_32 
REMARK   10  A    between atoms: C22_32  and  C23_33 
REMARK   11  A    between atoms: C23_33  and  C24_34 
REMARK   12  A    between atoms: C24_34  and  N4_35 
ROOT
HETATM    1  C5  UNL     1      13.416 -16.384  19.259  1.00  0.00     0.092 C 
HETATM    2  C6  UNL     1      14.121 -15.147  18.748  1.00  0.00     0.108 C 
HETATM    3  C7  UNL     1      13.527 -13.921  19.313  1.00  0.00     0.115 C 
HETATM    4  N1  UNL     1      14.104 -12.704  19.619  1.00  0.00    -0.357 N 
HETATM    5  C8  UNL     1      13.557 -12.031  20.824  1.00  0.00     0.152 C 
HETATM    6  C9  UNL     1      15.139 -11.949  18.928  1.00  0.00     0.160 C 
HETATM    7  C14 UNL     1      16.332 -11.820  19.797  1.00  0.00     0.135 C 
HETATM    8  N2  UNL     1      17.371 -12.669  20.106  1.00  0.00    -0.359 N 
ATOM      9  H2  UNL     1      18.278 -12.290  19.835  1.00  0.00     0.162 HD
HETATM   10  C15 UNL     1      17.476 -13.955  20.717  1.00  0.00     0.175 C 
HETATM   11  C20 UNL     1      16.534 -14.180  21.853  1.00  0.00     0.241 C 
HETATM   12  O3  UNL     1      16.459 -13.190  22.663  1.00  0.00    -0.271 OA
HETATM   13  N3  UNL     1      15.758 -15.290  22.133  1.00  0.00    -0.347 N 
ATOM     14  H3  UNL     1      14.788 -15.128  22.404  1.00  0.00     0.163 HD
HETATM   15  C21 UNL     1      16.224 -16.703  22.071  1.00  0.00     0.164 C 
HETATM   16  C26 UNL     1      15.009 -17.548  21.921  1.00  0.00     0.238 C 
HETATM   17  O4  UNL     1      14.297 -17.746  22.946  1.00  0.00    -0.285 OA
HETATM   18  C27 UNL     1      14.564 -18.174  20.677  1.00  0.00     0.289 C 
HETATM   19  O5  UNL     1      14.348 -19.448  20.653  1.00  0.00    -0.264 OA
HETATM   20  N7  UNL     1      14.336 -17.494  19.452  1.00  0.00    -0.349 N 
ATOM     21  H7  UNL     1      14.862 -17.810  18.638  1.00  0.00     0.163 HD
ENDROOT
BRANCH  15  22
HETATM   22  C22 UNL     1      16.832 -16.948  23.415  1.00  0.00     0.035 C 
BRANCH  22  23
HETATM   23  C23 UNL     1      18.265 -17.200  23.548  1.00  0.00     0.022 C 
BRANCH  23  24
HETATM   24  C24 UNL     1      18.892 -17.325  24.892  1.00  0.00     0.122 C 
BRANCH  24  25
HETATM   25  N4  UNL     1      19.596 -16.050  25.172  1.00  0.00    -0.367 N 
HETATM   26  C25 UNL     1      19.245 -15.277  26.137  1.00  0.00     0.196 C 
HETATM   27  N5  UNL     1      19.985 -14.081  26.320  1.00  0.00    -0.067 NA
HETATM   28  N6  UNL     1      18.174 -15.545  27.023  1.00  0.00    -0.067 NA
ATOM     29  H4  UNL     1      20.382 -15.778  24.581  1.00  0.00     0.161 HD
ENDBRANCH  24  25
ENDBRANCH  23  24
ENDBRANCH  22  23
ENDBRANCH  15  22
BRANCH  10  30
HETATM   30  C16 UNL     1      18.824 -14.277  21.279  1.00  0.00     0.038 C 
BRANCH  30  31
HETATM   31  C17 UNL     1      19.778 -13.214  21.586  1.00  0.00    -0.020 C 
HETATM   32  C18 UNL     1      20.586 -12.732  20.421  1.00  0.00     0.009 C 
HETATM   33  C19 UNL     1      20.828 -13.711  22.616  1.00  0.00     0.009 C 
ENDBRANCH  30  31
ENDBRANCH  10  30
BRANCH   1  34
HETATM   34  C4  UNL     1      12.298 -16.797  18.301  1.00  0.00     0.029 C 
BRANCH  34  35
HETATM   35  C2  UNL     1      11.045 -17.193  19.026  1.00  0.00    -0.021 C 
HETATM   36  C1  UNL     1      10.969 -18.716  18.964  1.00  0.00     0.009 C 
HETATM   37  C3  UNL     1       9.801 -16.629  18.413  1.00  0.00     0.009 C 
ENDBRANCH  34  35
ENDBRANCH   1  34
BRANCH   7  38
HETATM   38  O2  UNL     1      16.390 -10.650  20.380  1.00  0.00    -0.348 OA
ATOM     39  H2  UNL     1      16.156 -10.699  21.300  1.00  0.00     0.219 HD
ENDBRANCH   7  38
BRANCH   6  40
HETATM   40  C10 UNL     1      15.327 -12.345  17.524  1.00  0.00     0.037 C 
BRANCH  40  41
HETATM   41  C11 UNL     1      15.786 -11.360  16.528  1.00  0.00    -0.020 C 
HETATM   42  C12 UNL     1      15.204 -11.316  15.182  1.00  0.00     0.009 C 
HETATM   43  C13 UNL     1      17.321 -11.448  16.318  1.00  0.00     0.009 C 
ENDBRANCH  40  41
ENDBRANCH   6  40
BRANCH   3  44
HETATM   44  O1  UNL     1      12.253 -14.030  19.551  1.00  0.00    -0.349 OA
ATOM     45  H1  UNL     1      11.994 -14.905  19.816  1.00  0.00     0.219 HD
ENDBRANCH   3  44
TORSDOF 12
ENDMDL
