MODEL 1
REMARK VINA RESULT: -5.180238215      0.000      0.000
REMARK  1 active torsions:
REMARK  status: ('A' for Active; 'I' for Inactive)
REMARK    1  A    between atoms: N2_5  and  O2_6 
ROOT
HETATM    1  O1  UNL     1     -94.207   5.456 -19.505  1.00  0.00    -0.266 OA
HETATM    2  C1  UNL     1     -94.689   6.616 -19.638  1.00  0.00     0.272 A 
HETATM    3  N1  UNL     1     -96.020   6.758 -19.774  1.00  0.00    -0.240 N 
ATOM      4  H1  UNL     1     -96.643   5.950 -19.773  1.00  0.00     0.193 HD
HETATM    5  N2  UNL     1     -96.485   7.989 -19.910  1.00  0.00    -0.171 N 
HETATM    6  C2  UNL     1     -95.681   9.066 -19.916  1.00  0.00     0.155 A 
HETATM    7  C3  UNL     1     -94.313   8.959 -19.778  1.00  0.00    -0.001 A 
HETATM    8  C4  UNL     1     -93.456  10.009 -19.777  1.00  0.00     0.014 A 
HETATM    9  C5  UNL     1     -92.088   9.808 -19.633  1.00  0.00     0.001 A 
HETATM   10  C6  UNL     1     -91.557   8.538 -19.486  1.00  0.00     0.001 A 
HETATM   11  C7  UNL     1     -92.445   7.488 -19.492  1.00  0.00     0.018 A 
HETATM   12  C8  UNL     1     -93.808   7.677 -19.634  1.00  0.00     0.045 A 
ENDROOT
BRANCH   5  13
HETATM   13  O2  UNL     1     -97.834   8.148 -20.050  1.00  0.00    -0.268 OA
ATOM     14  H2  UNL     1     -98.197   9.013 -19.897  1.00  0.00     0.247 HD
ENDBRANCH   5  13
TORSDOF 1
ENDMDL
MODEL 2
REMARK VINA RESULT: -4.637159502      2.342      3.164
REMARK  1 active torsions:
REMARK  status: ('A' for Active; 'I' for Inactive)
REMARK    1  A    between atoms: N2_5  and  O2_6 
ROOT
HETATM    1  O1  UNL     1     -93.916  10.828 -19.287  1.00  0.00    -0.266 OA
HETATM    2  C1  UNL     1     -94.945  10.129 -19.506  1.00  0.00     0.272 A 
HETATM    3  N1  UNL     1     -96.137  10.740 -19.621  1.00  0.00    -0.240 N 
ATOM      4  H1  UNL     1     -96.226  11.753 -19.535  1.00  0.00     0.193 HD
HETATM    5  N2  UNL     1     -97.190   9.972 -19.850  1.00  0.00    -0.171 N 
HETATM    6  C2  UNL     1     -97.096   8.636 -19.966  1.00  0.00     0.155 A 
HETATM    7  C3  UNL     1     -95.890   7.976 -19.853  1.00  0.00    -0.001 A 
HETATM    8  C4  UNL     1     -95.736   6.633 -19.960  1.00  0.00     0.014 A 
HETATM    9  C5  UNL     1     -94.481   6.050 -19.832  1.00  0.00     0.001 A 
HETATM   10  C6  UNL     1     -93.351   6.815 -19.594  1.00  0.00     0.001 A 
HETATM   11  C7  UNL     1     -93.532   8.174 -19.488  1.00  0.00     0.018 A 
HETATM   12  C8  UNL     1     -94.777   8.764 -19.614  1.00  0.00     0.045 A 
ENDROOT
BRANCH   5  13
HETATM   13  O2  UNL     1     -98.408  10.579 -19.969  1.00  0.00    -0.268 OA
ATOM     14  H2  UNL     1     -99.033  10.462 -19.263  1.00  0.00     0.247 HD
ENDBRANCH   5  13
TORSDOF 1
ENDMDL
MODEL 3
REMARK VINA RESULT: -4.361708994      2.040      3.185
REMARK  1 active torsions:
REMARK  status: ('A' for Active; 'I' for Inactive)
REMARK    1  A    between atoms: N2_5  and  O2_6 
ROOT
HETATM    1  O1  UNL     1     -97.765   8.331 -19.957  1.00  0.00    -0.266 OA
HETATM    2  C1  UNL     1     -96.663   8.936 -19.841  1.00  0.00     0.272 A 
HETATM    3  N1  UNL     1     -96.657  10.280 -19.807  1.00  0.00    -0.240 N 
ATOM      4  H1  UNL     1     -97.521  10.818 -19.873  1.00  0.00     0.193 HD
HETATM    5  N2  UNL     1     -95.482  10.876 -19.685  1.00  0.00    -0.171 N 
HETATM    6  C2  UNL     1     -94.330  10.187 -19.599  1.00  0.00     0.155 A 
HETATM    7  C3  UNL     1     -94.299   8.809 -19.631  1.00  0.00    -0.001 A 
HETATM    8  C4  UNL     1     -93.169   8.064 -19.548  1.00  0.00     0.014 A 
HETATM    9  C5  UNL     1     -93.230   6.676 -19.589  1.00  0.00     0.001 A 
HETATM   10  C6  UNL     1     -94.437   6.010 -19.714  1.00  0.00     0.001 A 
HETATM   11  C7  UNL     1     -95.570   6.786 -19.798  1.00  0.00     0.018 A 
HETATM   12  C8  UNL     1     -95.520   8.168 -19.757  1.00  0.00     0.045 A 
ENDROOT
BRANCH   5  13
HETATM   13  O2  UNL     1     -95.460  12.241 -19.649  1.00  0.00    -0.268 OA
ATOM     14  H2  UNL     1     -94.618  12.669 -19.544  1.00  0.00     0.247 HD
ENDBRANCH   5  13
TORSDOF 1
ENDMDL
MODEL 4
REMARK VINA RESULT: -4.326879699      1.649      2.663
REMARK  1 active torsions:
REMARK  status: ('A' for Active; 'I' for Inactive)
REMARK    1  A    between atoms: N2_5  and  O2_6 
ROOT
HETATM    1  O1  UNL     1     -94.717  11.424 -19.668  1.00  0.00    -0.266 OA
HETATM    2  C1  UNL     1     -95.061  10.210 -19.717  1.00  0.00     0.272 A 
HETATM    3  N1  UNL     1     -96.365   9.906 -19.846  1.00  0.00    -0.240 N 
ATOM      4  H1  UNL     1     -97.077  10.633 -19.904  1.00  0.00     0.193 HD
HETATM    5  N2  UNL     1     -96.685   8.623 -19.894  1.00  0.00    -0.171 N 
HETATM    6  C2  UNL     1     -95.762   7.647 -19.817  1.00  0.00     0.155 A 
HETATM    7  C3  UNL     1     -94.417   7.922 -19.684  1.00  0.00    -0.001 A 
HETATM    8  C4  UNL     1     -93.445   6.981 -19.601  1.00  0.00     0.014 A 
HETATM    9  C5  UNL     1     -92.111   7.348 -19.468  1.00  0.00     0.001 A 
HETATM   10  C6  UNL     1     -91.731   8.678 -19.416  1.00  0.00     0.001 A 
HETATM   11  C7  UNL     1     -92.734   9.615 -19.500  1.00  0.00     0.018 A 
HETATM   12  C8  UNL     1     -94.064   9.260 -19.633  1.00  0.00     0.045 A 
ENDROOT
BRANCH   5  13
HETATM   13  O2  UNL     1     -98.005   8.299 -20.024  1.00  0.00    -0.268 OA
ATOM     14  H2  UNL     1     -98.476   8.031 -19.243  1.00  0.00     0.247 HD
ENDBRANCH   5  13
TORSDOF 1
ENDMDL
MODEL 5
REMARK VINA RESULT: -4.243562515      1.429      1.751
REMARK  1 active torsions:
REMARK  status: ('A' for Active; 'I' for Inactive)
REMARK    1  A    between atoms: N2_5  and  O2_6 
ROOT
HETATM    1  O1  UNL     1     -96.440   6.629 -19.687  1.00  0.00    -0.266 OA
HETATM    2  C1  UNL     1     -96.093   7.796 -20.022  1.00  0.00     0.272 A 
HETATM    3  N1  UNL     1     -97.033   8.659 -20.447  1.00  0.00    -0.240 N 
ATOM      4  H1  UNL     1     -98.015   8.390 -20.504  1.00  0.00     0.193 HD
HETATM    5  N2  UNL     1     -96.629   9.872 -20.788  1.00  0.00    -0.171 N 
HETATM    6  C2  UNL     1     -95.340  10.247 -20.722  1.00  0.00     0.155 A 
HETATM    7  C3  UNL     1     -94.350   9.389 -20.291  1.00  0.00    -0.001 A 
HETATM    8  C4  UNL     1     -93.037   9.713 -20.205  1.00  0.00     0.014 A 
HETATM    9  C5  UNL     1     -92.104   8.783 -19.759  1.00  0.00     0.001 A 
HETATM   10  C6  UNL     1     -92.481   7.503 -19.390  1.00  0.00     0.001 A 
HETATM   11  C7  UNL     1     -93.818   7.197 -19.487  1.00  0.00     0.018 A 
HETATM   12  C8  UNL     1     -94.755   8.115 -19.929  1.00  0.00     0.045 A 
ENDROOT
BRANCH   5  13
HETATM   13  O2  UNL     1     -97.572  10.759 -21.222  1.00  0.00    -0.268 OA
ATOM     14  H2  UNL     1     -98.297  10.421 -21.736  1.00  0.00     0.247 HD
ENDBRANCH   5  13
TORSDOF 1
ENDMDL
