MODEL 1
REMARK VINA RESULT: -3.807425410      0.000      0.000
REMARK  3 active torsions:
REMARK  status: ('A' for Active; 'I' for Inactive)
REMARK    1  A    between atoms: C2_2  and  N1_3 
REMARK    2  A    between atoms: N1_3  and  C3_5 
REMARK    3  A    between atoms: N2_7  and  O1_8 
ROOT
HETATM    1  C3  UNL     1     -95.117   8.888 -17.918  1.00  0.00     0.119 A 
HETATM    2  C4  UNL     1     -96.249   9.221 -18.632  1.00  0.00     0.170 A 
HETATM    3  N2  UNL     1     -96.762   8.489 -19.635  1.00  0.00    -0.242 N 
HETATM    4  C5  UNL     1     -96.107   7.347 -19.954  1.00  0.00     0.147 A 
HETATM    5  C6  UNL     1     -94.972   6.965 -19.275  1.00  0.00     0.025 A 
HETATM    6  C7  UNL     1     -94.297   5.704 -19.667  1.00  0.00     0.070 C 
HETATM    7  N3  UNL     1     -94.506   7.723 -18.292  1.00  0.00    -0.344 N 
ATOM      8  H3  UNL     1     -93.665   7.427 -17.798  1.00  0.00     0.167 HD
ENDROOT
BRANCH   1   9
HETATM    9  N1  UNL     1     -94.721   9.649 -16.992  1.00  0.00    -0.376 N 
ATOM     10  H1  UNL     1     -94.593  10.629 -17.247  1.00  0.00     0.161 HD
BRANCH   9  11
HETATM   11  C2  UNL     1     -94.431   9.320 -15.644  1.00  0.00     0.116 C 
HETATM   12  C1  UNL     1     -95.681   8.987 -14.849  1.00  0.00     0.026 C 
ENDBRANCH   9  11
ENDBRANCH   1   9
BRANCH   3  13
HETATM   13  O1  UNL     1     -97.907   8.877 -20.318  1.00  0.00    -0.284 OA
ATOM     14  H1  UNL     1     -98.482   8.246 -20.735  1.00  0.00     0.245 HD
ENDBRANCH   3  13
TORSDOF 3
ENDMDL
MODEL 2
REMARK VINA RESULT: -3.782166139      2.309      3.111
REMARK  3 active torsions:
REMARK  status: ('A' for Active; 'I' for Inactive)
REMARK    1  A    between atoms: C2_2  and  N1_3 
REMARK    2  A    between atoms: N1_3  and  C3_5 
REMARK    3  A    between atoms: N2_7  and  O1_8 
ROOT
HETATM    1  C3  UNL     1     -94.603   9.560 -19.697  1.00  0.00     0.119 A 
HETATM    2  C4  UNL     1     -95.976   9.584 -19.826  1.00  0.00     0.170 A 
HETATM    3  N2  UNL     1     -96.756   8.492 -19.890  1.00  0.00    -0.242 N 
HETATM    4  C5  UNL     1     -96.132   7.292 -19.822  1.00  0.00     0.147 A 
HETATM    5  C6  UNL     1     -94.764   7.208 -19.693  1.00  0.00     0.025 A 
HETATM    6  C7  UNL     1     -94.135   5.866 -19.623  1.00  0.00     0.070 C 
HETATM    7  N3  UNL     1     -94.039   8.317 -19.634  1.00  0.00    -0.344 N 
ATOM      8  H3  UNL     1     -93.027   8.239 -19.538  1.00  0.00     0.167 HD
ENDROOT
BRANCH   1   9
HETATM    9  N1  UNL     1     -93.966  10.648 -19.646  1.00  0.00    -0.376 N 
ATOM     10  H1  UNL     1     -94.258  11.301 -18.918  1.00  0.00     0.161 HD
BRANCH   9  11
HETATM   11  C2  UNL     1     -92.895  11.082 -20.469  1.00  0.00     0.116 C 
HETATM   12  C1  UNL     1     -93.270  11.105 -21.940  1.00  0.00     0.026 C 
ENDBRANCH   9  11
ENDBRANCH   1   9
BRANCH   3  13
HETATM   13  O1  UNL     1     -98.135   8.580 -20.019  1.00  0.00    -0.284 OA
ATOM     14  H1  UNL     1     -98.647   7.894 -20.432  1.00  0.00     0.245 HD
ENDBRANCH   3  13
TORSDOF 3
ENDMDL
MODEL 3
REMARK VINA RESULT: -3.734479817      1.840      2.019
REMARK  3 active torsions:
REMARK  status: ('A' for Active; 'I' for Inactive)
REMARK    1  A    between atoms: C2_2  and  N1_3 
REMARK    2  A    between atoms: N1_3  and  C3_5 
REMARK    3  A    between atoms: N2_7  and  O1_8 
ROOT
HETATM    1  C3  UNL     1     -94.558   9.462 -19.670  1.00  0.00     0.119 A 
HETATM    2  C4  UNL     1     -95.929   9.515 -19.807  1.00  0.00     0.170 A 
HETATM    3  N2  UNL     1     -96.733   8.441 -19.874  1.00  0.00    -0.242 N 
HETATM    4  C5  UNL     1     -96.136   7.228 -19.800  1.00  0.00     0.147 A 
HETATM    5  C6  UNL     1     -94.771   7.114 -19.662  1.00  0.00     0.025 A 
HETATM    6  C7  UNL     1     -94.173   5.758 -19.586  1.00  0.00     0.070 C 
HETATM    7  N3  UNL     1     -94.022   8.206 -19.601  1.00  0.00    -0.344 N 
ATOM      8  H3  UNL     1     -93.012   8.105 -19.498  1.00  0.00     0.167 HD
ENDROOT
BRANCH   1   9
HETATM    9  N1  UNL     1     -93.896  10.535 -19.617  1.00  0.00    -0.376 N 
ATOM     10  H1  UNL     1     -94.078  11.205 -20.365  1.00  0.00     0.161 HD
BRANCH   9  11
HETATM   11  C2  UNL     1     -92.934  10.932 -18.654  1.00  0.00     0.116 C 
HETATM   12  C1  UNL     1     -93.518  11.012 -17.254  1.00  0.00     0.026 C 
ENDBRANCH   9  11
ENDBRANCH   1   9
BRANCH   3  13
HETATM   13  O1  UNL     1     -98.109   8.559 -20.012  1.00  0.00    -0.284 OA
ATOM     14  H1  UNL     1     -98.525   8.631 -20.863  1.00  0.00     0.245 HD
ENDBRANCH   3  13
TORSDOF 3
ENDMDL
MODEL 4
REMARK VINA RESULT: -3.662856481      2.468      3.597
REMARK  3 active torsions:
REMARK  status: ('A' for Active; 'I' for Inactive)
REMARK    1  A    between atoms: C2_2  and  N1_3 
REMARK    2  A    between atoms: N1_3  and  C3_5 
REMARK    3  A    between atoms: N2_7  and  O1_8 
ROOT
HETATM    1  C3  UNL     1     -94.266   8.506 -19.503  1.00  0.00     0.119 A 
HETATM    2  C4  UNL     1     -95.576   8.076 -19.491  1.00  0.00     0.170 A 
HETATM    3  N2  UNL     1     -96.600   8.726 -20.069  1.00  0.00    -0.242 N 
HETATM    4  C5  UNL     1     -96.305   9.885 -20.704  1.00  0.00     0.147 A 
HETATM    5  C6  UNL     1     -95.014  10.363 -20.749  1.00  0.00     0.025 A 
HETATM    6  C7  UNL     1     -94.751  11.639 -21.460  1.00  0.00     0.070 C 
HETATM    7  N3  UNL     1     -94.040   9.683 -20.162  1.00  0.00    -0.344 N 
ATOM      8  H3  UNL     1     -93.089  10.049 -20.204  1.00  0.00     0.167 HD
ENDROOT
BRANCH   1   9
HETATM    9  N1  UNL     1     -93.380   7.816 -18.927  1.00  0.00    -0.376 N 
ATOM     10  H1  UNL     1     -93.612   7.490 -17.989  1.00  0.00     0.161 HD
BRANCH   9  11
HETATM   11  C2  UNL     1     -92.104   7.435 -19.415  1.00  0.00     0.116 C 
HETATM   12  C1  UNL     1     -90.980   7.862 -18.487  1.00  0.00     0.026 C 
ENDBRANCH   9  11
ENDBRANCH   1   9
BRANCH   3  13
HETATM   13  O1  UNL     1     -97.899   8.242 -20.022  1.00  0.00    -0.284 OA
ATOM     14  H1  UNL     1     -98.635   8.740 -20.359  1.00  0.00     0.245 HD
ENDBRANCH   3  13
TORSDOF 3
ENDMDL
MODEL 5
REMARK VINA RESULT: -3.615842573      2.182      3.861
REMARK  3 active torsions:
REMARK  status: ('A' for Active; 'I' for Inactive)
REMARK    1  A    between atoms: C2_2  and  N1_3 
REMARK    2  A    between atoms: N1_3  and  C3_5 
REMARK    3  A    between atoms: N2_7  and  O1_8 
ROOT
HETATM    1  C3  UNL     1     -96.979   9.256 -19.517  1.00  0.00     0.119 A 
HETATM    2  C4  UNL     1     -96.619   8.150 -20.257  1.00  0.00     0.170 A 
HETATM    3  N2  UNL     1     -95.589   7.338 -19.968  1.00  0.00    -0.242 N 
HETATM    4  C5  UNL     1     -94.862   7.644 -18.867  1.00  0.00     0.147 A 
HETATM    5  C6  UNL     1     -95.176   8.736 -18.089  1.00  0.00     0.025 A 
HETATM    6  C7  UNL     1     -94.344   9.022 -16.894  1.00  0.00     0.070 C 
HETATM    7  N3  UNL     1     -96.204   9.506 -18.418  1.00  0.00    -0.344 N 
ATOM      8  H3  UNL     1     -96.424  10.311 -17.832  1.00  0.00     0.167 HD
ENDROOT
BRANCH   1   9
HETATM    9  N1  UNL     1     -97.968   9.951 -19.879  1.00  0.00    -0.376 N 
ATOM     10  H1  UNL     1     -98.780   9.430 -20.210  1.00  0.00     0.161 HD
BRANCH   9  11
HETATM   11  C2  UNL     1     -98.098  11.363 -19.884  1.00  0.00     0.116 C 
HETATM   12  C1  UNL     1     -97.352  12.007 -21.040  1.00  0.00     0.026 C 
ENDBRANCH   9  11
ENDBRANCH   1   9
BRANCH   3  13
HETATM   13  O1  UNL     1     -95.276   6.238 -20.754  1.00  0.00    -0.284 OA
ATOM     14  H1  UNL     1     -95.919   5.821 -21.316  1.00  0.00     0.245 HD
ENDBRANCH   3  13
TORSDOF 3
ENDMDL
