MODEL 1
REMARK VINA RESULT: -7.231177637      0.000      0.000
REMARK  2 active torsions:
REMARK  status: ('A' for Active; 'I' for Inactive)
REMARK    1  A    between atoms: C2_3  and  C3_4 
REMARK       I    between atoms: C3_4  and  N2_6 
REMARK    2  A    between atoms: N2_6  and  C4_8 
ROOT
HETATM    1  N1  UNL     1      12.719  28.847  23.188  1.00  0.00    -0.192 NA
HETATM    2  C1  UNL     1      13.788  28.741  23.595  1.00  0.00     0.124 C 
HETATM    3  C2  UNL     1      15.198  28.646  24.119  1.00  0.00     0.286 C 
HETATM    4  N7  UNL     1      15.971  29.783  23.544  1.00  0.00    -0.296 N 
ATOM      5  H7  UNL     1      16.268  30.711  23.847  1.00  0.00     0.168 HD
HETATM    6  C5  UNL     1      16.100  29.000  22.411  1.00  0.00     0.322 C 
HETATM    7  O2  UNL     1      16.283  29.062  21.137  1.00  0.00    -0.247 OA
HETATM    8  N8  UNL     1      15.963  27.818  23.309  1.00  0.00    -0.296 N 
ATOM      9  H8  UNL     1      16.284  26.850  23.323  1.00  0.00     0.168 HD
ENDROOT
BRANCH   3  10
HETATM   10  C3  UNL     1      15.170  28.692  25.578  1.00  0.00     0.289 C 
HETATM   11  O1  UNL     1      14.581  29.624  26.153  1.00  0.00    -0.267 OA
HETATM   12  N2  UNL     1      15.836  27.686  26.359  1.00  0.00    -0.292 N 
ATOM     13  H2  UNL     1      16.572  27.145  25.904  1.00  0.00     0.172 HD
BRANCH  12  14
HETATM   14  C4  UNL     1      15.581  27.425  27.551  1.00  0.00     0.218 A 
HETATM   15  N3  UNL     1      14.404  27.262  28.183  1.00  0.00    -0.254 N 
HETATM   16  N4  UNL     1      14.562  27.089  29.473  1.00  0.00    -0.225 N 
ATOM     17  H3  UNL     1      13.497  27.273  27.715  1.00  0.00     0.191 HD
HETATM   18  N5  UNL     1      15.834  27.128  29.751  1.00  0.00    -0.225 N 
ATOM     19  H4  UNL     1      13.812  26.947  30.148  1.00  0.00     0.210 HD
HETATM   20  N6  UNL     1      16.492  27.333  28.590  1.00  0.00    -0.254 N 
ATOM     21  H5  UNL     1      16.255  27.023  30.675  1.00  0.00     0.210 HD
ATOM     22  H6  UNL     1      17.505  27.407  28.493  1.00  0.00     0.191 HD
ENDBRANCH  12  14
ENDBRANCH   3  10
TORSDOF 2
ENDMDL
MODEL 2
REMARK VINA RESULT: -7.176940507      2.395      6.036
REMARK  2 active torsions:
REMARK  status: ('A' for Active; 'I' for Inactive)
REMARK    1  A    between atoms: C2_3  and  C3_4 
REMARK       I    between atoms: C3_4  and  N2_6 
REMARK    2  A    between atoms: N2_6  and  C4_8 
ROOT
HETATM    1  N1  UNL     1      19.415  27.581  26.242  1.00  0.00    -0.192 NA
HETATM    2  C1  UNL     1      18.277  27.696  26.138  1.00  0.00     0.124 C 
HETATM    3  C2  UNL     1      16.785  27.883  26.028  1.00  0.00     0.286 C 
HETATM    4  N7  UNL     1      16.343  28.690  27.200  1.00  0.00    -0.296 N 
ATOM      5  H7  UNL     1      16.124  29.667  27.392  1.00  0.00     0.168 HD
HETATM    6  C5  UNL     1      16.368  27.501  27.909  1.00  0.00     0.322 C 
HETATM    7  O2  UNL     1      16.499  27.017  29.095  1.00  0.00    -0.247 OA
HETATM    8  N8  UNL     1      16.116  26.815  26.609  1.00  0.00    -0.296 N 
ATOM      9  H8  UNL     1      15.662  25.958  26.293  1.00  0.00     0.168 HD
ENDROOT
BRANCH   3  10
HETATM   10  C3  UNL     1      16.478  28.550  24.766  1.00  0.00     0.289 C 
HETATM   11  O1  UNL     1      15.960  29.680  24.777  1.00  0.00    -0.267 OA
HETATM   12  N2  UNL     1      16.745  27.906  23.509  1.00  0.00    -0.292 N 
ATOM     13  H2  UNL     1      16.844  26.891  23.510  1.00  0.00     0.172 HD
BRANCH  12  14
HETATM   14  C4  UNL     1      16.865  28.496  22.417  1.00  0.00     0.218 A 
HETATM   15  N3  UNL     1      16.487  28.136  21.177  1.00  0.00    -0.254 N 
HETATM   16  N4  UNL     1      16.884  29.001  20.275  1.00  0.00    -0.225 N 
ATOM     17  H3  UNL     1      15.956  27.291  20.963  1.00  0.00     0.191 HD
HETATM   18  N5  UNL     1      17.533  29.962  20.868  1.00  0.00    -0.225 N 
ATOM     19  H4  UNL     1      16.711  28.933  19.272  1.00  0.00     0.210 HD
HETATM   20  N6  UNL     1      17.540  29.684  22.190  1.00  0.00    -0.254 N 
ATOM     21  H5  UNL     1      17.957  30.774  20.418  1.00  0.00     0.210 HD
ATOM     22  H6  UNL     1      17.976  30.260  22.910  1.00  0.00     0.191 HD
ENDBRANCH  12  14
ENDBRANCH   3  10
TORSDOF 2
ENDMDL
MODEL 3
REMARK VINA RESULT: -7.123227369      1.446      1.758
REMARK  2 active torsions:
REMARK  status: ('A' for Active; 'I' for Inactive)
REMARK    1  A    between atoms: C2_3  and  C3_4 
REMARK       I    between atoms: C3_4  and  N2_6 
REMARK    2  A    between atoms: N2_6  and  C4_8 
ROOT
HETATM    1  N1  UNL     1      13.809  29.138  23.886  1.00  0.00    -0.192 NA
HETATM    2  C1  UNL     1      14.894  28.769  23.809  1.00  0.00     0.124 C 
HETATM    3  C2  UNL     1      16.332  28.328  23.704  1.00  0.00     0.286 C 
HETATM    4  N7  UNL     1      17.093  29.422  23.037  1.00  0.00    -0.296 N 
ATOM      5  H7  UNL     1      17.692  30.195  23.325  1.00  0.00     0.168 HD
HETATM    6  C5  UNL     1      16.612  28.904  21.847  1.00  0.00     0.322 C 
HETATM    7  O2  UNL     1      16.331  29.221  20.631  1.00  0.00    -0.247 OA
HETATM    8  N8  UNL     1      16.531  27.589  22.546  1.00  0.00    -0.296 N 
ATOM      9  H8  UNL     1      16.593  26.604  22.291  1.00  0.00     0.168 HD
ENDROOT
BRANCH   3  10
HETATM   10  C3  UNL     1      16.845  28.048  25.041  1.00  0.00     0.289 C 
HETATM   11  O1  UNL     1      18.069  28.110  25.257  1.00  0.00    -0.267 OA
HETATM   12  N2  UNL     1      15.957  27.678  26.109  1.00  0.00    -0.292 N 
ATOM     13  H2  UNL     1      15.041  27.310  25.855  1.00  0.00     0.172 HD
BRANCH  12  14
HETATM   14  C4  UNL     1      16.224  27.774  27.324  1.00  0.00     0.218 A 
HETATM   15  N3  UNL     1      17.246  28.381  27.954  1.00  0.00    -0.254 N 
HETATM   16  N4  UNL     1      17.216  28.170  29.247  1.00  0.00    -0.225 N 
ATOM     17  H3  UNL     1      17.959  28.939  27.481  1.00  0.00     0.191 HD
HETATM   18  N5  UNL     1      16.187  27.424  29.530  1.00  0.00    -0.225 N 
ATOM     19  H4  UNL     1      17.890  28.532  29.922  1.00  0.00     0.210 HD
HETATM   20  N6  UNL     1      15.552  27.161  28.368  1.00  0.00    -0.254 N 
ATOM     21  H5  UNL     1      15.912  27.099  30.458  1.00  0.00     0.210 HD
ATOM     22  H6  UNL     1      14.707  26.598  28.274  1.00  0.00     0.191 HD
ENDBRANCH  12  14
ENDBRANCH   3  10
TORSDOF 2
ENDMDL
MODEL 4
REMARK VINA RESULT: -7.010773282      2.242      5.737
REMARK  2 active torsions:
REMARK  status: ('A' for Active; 'I' for Inactive)
REMARK    1  A    between atoms: C2_3  and  C3_4 
REMARK       I    between atoms: C3_4  and  N2_6 
REMARK    2  A    between atoms: N2_6  and  C4_8 
ROOT
HETATM    1  N1  UNL     1      14.219  27.189  27.210  1.00  0.00    -0.192 NA
HETATM    2  C1  UNL     1      15.189  27.666  26.821  1.00  0.00     0.124 C 
HETATM    3  C2  UNL     1      16.477  28.250  26.300  1.00  0.00     0.286 C 
HETATM    4  N7  UNL     1      17.509  27.175  26.337  1.00  0.00    -0.296 N 
ATOM      5  H7  UNL     1      17.922  26.515  25.678  1.00  0.00     0.168 HD
HETATM    6  C5  UNL     1      17.648  27.485  27.679  1.00  0.00     0.322 C 
HETATM    7  O2  UNL     1      18.007  26.992  28.813  1.00  0.00    -0.247 OA
HETATM    8  N8  UNL     1      17.186  28.859  27.327  1.00  0.00    -0.296 N 
ATOM      9  H8  UNL     1      17.326  29.806  27.677  1.00  0.00     0.168 HD
ENDROOT
BRANCH   3  10
HETATM   10  C3  UNL     1      16.264  28.748  24.944  1.00  0.00     0.289 C 
HETATM   11  O1  UNL     1      15.611  29.792  24.767  1.00  0.00    -0.267 OA
HETATM   12  N2  UNL     1      16.779  28.035  23.808  1.00  0.00    -0.292 N 
ATOM     13  H2  UNL     1      17.004  27.048  23.932  1.00  0.00     0.172 HD
BRANCH  12  14
HETATM   14  C4  UNL     1      16.972  28.534  22.681  1.00  0.00     0.218 A 
HETATM   15  N3  UNL     1      17.541  29.699  22.321  1.00  0.00    -0.254 N 
HETATM   16  N4  UNL     1      17.466  29.899  21.028  1.00  0.00    -0.225 N 
ATOM     17  H3  UNL     1      17.978  30.349  22.976  1.00  0.00     0.191 HD
HETATM   18  N5  UNL     1      16.854  28.889  20.479  1.00  0.00    -0.225 N 
ATOM     19  H4  UNL     1      17.829  30.713  20.532  1.00  0.00     0.210 HD
HETATM   20  N6  UNL     1      16.535  28.028  21.468  1.00  0.00    -0.254 N 
ATOM     21  H5  UNL     1      16.652  28.772  19.485  1.00  0.00     0.210 HD
ATOM     22  H6  UNL     1      16.049  27.141  21.342  1.00  0.00     0.191 HD
ENDBRANCH  12  14
ENDBRANCH   3  10
TORSDOF 2
ENDMDL
MODEL 5
REMARK VINA RESULT: -6.894539127      2.272      5.889
REMARK  2 active torsions:
REMARK  status: ('A' for Active; 'I' for Inactive)
REMARK    1  A    between atoms: C2_3  and  C3_4 
REMARK       I    between atoms: C3_4  and  N2_6 
REMARK    2  A    between atoms: N2_6  and  C4_8 
ROOT
HETATM    1  N1  UNL     1      16.955  30.404  26.928  1.00  0.00    -0.192 NA
HETATM    2  C1  UNL     1      16.650  29.398  26.464  1.00  0.00     0.124 C 
HETATM    3  C2  UNL     1      16.209  28.085  25.870  1.00  0.00     0.286 C 
HETATM    4  N7  UNL     1      14.972  27.658  26.586  1.00  0.00    -0.296 N 
ATOM      5  H7  UNL     1      13.966  27.697  26.423  1.00  0.00     0.168 HD
HETATM    6  C5  UNL     1      15.819  27.185  27.573  1.00  0.00     0.322 C 
HETATM    7  O2  UNL     1      15.877  26.914  28.830  1.00  0.00    -0.247 OA
HETATM    8  N8  UNL     1      16.846  27.026  26.503  1.00  0.00    -0.296 N 
ATOM      9  H8  UNL     1      17.645  26.420  26.320  1.00  0.00     0.168 HD
ENDROOT
BRANCH   3  10
HETATM   10  C3  UNL     1      15.973  28.260  24.441  1.00  0.00     0.289 C 
HETATM   11  O1  UNL     1      14.815  28.437  24.024  1.00  0.00    -0.267 OA
HETATM   12  N2  UNL     1      17.062  28.209  23.504  1.00  0.00    -0.292 N 
ATOM     13  H2  UNL     1      17.919  27.742  23.800  1.00  0.00     0.172 HD
BRANCH  12  14
HETATM   14  C4  UNL     1      17.036  28.692  22.354  1.00  0.00     0.218 A 
HETATM   15  N3  UNL     1      16.511  28.213  21.211  1.00  0.00    -0.254 N 
HETATM   16  N4  UNL     1      16.780  28.989  20.189  1.00  0.00    -0.225 N 
ATOM     17  H3  UNL     1      15.969  27.350  21.148  1.00  0.00     0.191 HD
HETATM   18  N5  UNL     1      17.485  30.003  20.601  1.00  0.00    -0.225 N 
ATOM     19  H4  UNL     1      16.484  28.824  19.226  1.00  0.00     0.210 HD
HETATM   20  N6  UNL     1      17.661  29.853  21.932  1.00  0.00    -0.254 N 
ATOM     21  H5  UNL     1      17.838  30.768  20.026  1.00  0.00     0.210 HD
ATOM     22  H6  UNL     1      18.175  30.497  22.533  1.00  0.00     0.191 HD
ENDBRANCH  12  14
ENDBRANCH   3  10
TORSDOF 2
ENDMDL
