MODEL 1
REMARK VINA RESULT: -7.891118659      0.000      0.000
REMARK  1 active torsions:
REMARK  status: ('A' for Active; 'I' for Inactive)
REMARK       I    between atoms: C1_2  and  N1_3 
REMARK    1  A    between atoms: C1_2  and  C4_13 
ROOT
HETATM    1  O1  UNL     1     -33.093 -23.983 -52.194  1.00  0.00    -0.265 OA
HETATM    2  C1  UNL     1     -32.902 -23.100 -53.060  1.00  0.00     0.293 C 
HETATM    3  N1  UNL     1     -33.388 -21.812 -52.863  1.00  0.00    -0.152 N 
ATOM      4  H1  UNL     1     -32.953 -21.257 -52.125  1.00  0.00     0.187 HD
HETATM    5  C2  UNL     1     -34.339 -21.259 -53.532  1.00  0.00     0.700 A 
HETATM    6  N2  UNL     1     -34.778 -20.007 -53.307  1.00  0.00    -0.185 N 
ATOM      7  H2  UNL     1     -34.408 -19.377 -52.595  1.00  0.00     0.185 HD
HETATM    8  C3  UNL     1     -35.776 -19.708 -54.160  1.00  0.00     0.215 A 
HETATM    9  N3  UNL     1     -35.948 -20.822 -54.932  1.00  0.00    -0.281 N 
ATOM     10  H3  UNL     1     -36.629 -20.933 -55.683  1.00  0.00     0.188 HD
HETATM   11  N4  UNL     1     -35.075 -21.729 -54.531  1.00  0.00    -0.131 N 
ATOM     12  H4  UNL     1     -34.979 -22.662 -54.934  1.00  0.00     0.205 HD
ENDROOT
BRANCH   2  13
HETATM   13  C4  UNL     1     -32.169 -23.459 -54.256  1.00  0.00     0.185 A 
HETATM   14  N5  UNL     1     -32.479 -24.620 -54.864  1.00  0.00    -0.287 N 
HETATM   15  N6  UNL     1     -31.818 -24.942 -55.942  1.00  0.00    -0.251 N 
ATOM     16  H5  UNL     1     -33.208 -25.229 -54.492  1.00  0.00     0.187 HD
HETATM   17  C5  UNL     1     -30.858 -24.142 -56.434  1.00  0.00     0.341 A 
ATOM     18  H6  UNL     1     -32.035 -25.817 -56.419  1.00  0.00     0.191 HD
HETATM   19  O2  UNL     1     -30.229 -24.480 -57.486  1.00  0.00    -0.245 OA
HETATM   20  N7  UNL     1     -30.528 -22.983 -55.854  1.00  0.00    -0.272 N 
HETATM   21  C6  UNL     1     -31.187 -22.624 -54.746  1.00  0.00     0.283 A 
ATOM     22  H7  UNL     1     -29.795 -22.391 -56.244  1.00  0.00     0.174 HD
HETATM   23  O3  UNL     1     -30.913 -21.528 -54.151  1.00  0.00    -0.265 OA
ENDBRANCH   2  13
TORSDOF 1
ENDMDL
MODEL 2
REMARK VINA RESULT: -7.125300559      1.618      2.308
REMARK  1 active torsions:
REMARK  status: ('A' for Active; 'I' for Inactive)
REMARK       I    between atoms: C1_2  and  N1_3 
REMARK    1  A    between atoms: C1_2  and  C4_13 
ROOT
HETATM    1  O1  UNL     1     -32.651 -21.536 -52.879  1.00  0.00    -0.265 OA
HETATM    2  C1  UNL     1     -33.153 -21.901 -53.965  1.00  0.00     0.293 C 
HETATM    3  N1  UNL     1     -34.401 -21.428 -54.352  1.00  0.00    -0.152 N 
ATOM      4  H1  UNL     1     -34.471 -20.438 -54.592  1.00  0.00     0.187 HD
HETATM    5  C2  UNL     1     -35.478 -22.131 -54.434  1.00  0.00     0.700 A 
HETATM    6  N2  UNL     1     -36.667 -21.630 -54.815  1.00  0.00    -0.185 N 
ATOM      7  H2  UNL     1     -36.836 -20.658 -55.073  1.00  0.00     0.185 HD
HETATM    8  C3  UNL     1     -37.601 -22.601 -54.804  1.00  0.00     0.215 A 
HETATM    9  N3  UNL     1     -36.951 -23.733 -54.402  1.00  0.00    -0.281 N 
ATOM     10  H3  UNL     1     -37.369 -24.656 -54.287  1.00  0.00     0.188 HD
HETATM   11  N4  UNL     1     -35.685 -23.418 -54.189  1.00  0.00    -0.131 N 
ATOM     12  H4  UNL     1     -34.967 -24.074 -53.880  1.00  0.00     0.205 HD
ENDROOT
BRANCH   2  13
HETATM   13  C4  UNL     1     -32.401 -22.821 -54.793  1.00  0.00     0.185 A 
HETATM   14  N5  UNL     1     -31.758 -22.326 -55.867  1.00  0.00    -0.287 N 
HETATM   15  N6  UNL     1     -31.081 -23.155 -56.613  1.00  0.00    -0.251 N 
ATOM     16  H5  UNL     1     -31.800 -21.331 -56.092  1.00  0.00     0.187 HD
HETATM   17  C5  UNL     1     -31.024 -24.465 -56.320  1.00  0.00     0.341 A 
ATOM     18  H6  UNL     1     -30.586 -22.803 -57.432  1.00  0.00     0.191 HD
HETATM   19  O2  UNL     1     -30.357 -25.252 -57.064  1.00  0.00    -0.245 OA
HETATM   20  N7  UNL     1     -31.651 -24.987 -55.261  1.00  0.00    -0.272 N 
HETATM   21  C6  UNL     1     -32.354 -24.162 -54.475  1.00  0.00     0.283 A 
ATOM     22  H7  UNL     1     -31.595 -25.985 -55.057  1.00  0.00     0.174 HD
HETATM   23  O3  UNL     1     -32.972 -24.608 -53.451  1.00  0.00    -0.265 OA
ENDBRANCH   2  13
TORSDOF 1
ENDMDL
MODEL 3
REMARK VINA RESULT: -6.976430758      1.852      4.950
REMARK  1 active torsions:
REMARK  status: ('A' for Active; 'I' for Inactive)
REMARK       I    between atoms: C1_2  and  N1_3 
REMARK    1  A    between atoms: C1_2  and  C4_13 
ROOT
HETATM    1  O1  UNL     1     -33.195 -24.750 -52.693  1.00  0.00    -0.265 OA
HETATM    2  C1  UNL     1     -33.262 -24.234 -53.831  1.00  0.00     0.293 C 
HETATM    3  N1  UNL     1     -32.629 -24.838 -54.911  1.00  0.00    -0.152 N 
ATOM      4  H1  UNL     1     -33.006 -25.728 -55.235  1.00  0.00     0.187 HD
HETATM    5  C2  UNL     1     -31.606 -24.369 -55.538  1.00  0.00     0.700 A 
HETATM    6  N2  UNL     1     -31.024 -24.988 -56.581  1.00  0.00    -0.185 N 
ATOM      7  H2  UNL     1     -31.327 -25.878 -56.976  1.00  0.00     0.185 HD
HETATM    8  C3  UNL     1     -29.982 -24.260 -57.027  1.00  0.00     0.215 A 
HETATM    9  N3  UNL     1     -29.932 -23.157 -56.222  1.00  0.00    -0.281 N 
ATOM     10  H3  UNL     1     -29.256 -22.396 -56.288  1.00  0.00     0.188 HD
HETATM   11  N4  UNL     1     -30.915 -23.252 -55.344  1.00  0.00    -0.131 N 
ATOM     12  H4  UNL     1     -31.116 -22.564 -54.619  1.00  0.00     0.205 HD
ENDROOT
BRANCH   2  13
HETATM   13  C4  UNL     1     -34.012 -23.004 -53.982  1.00  0.00     0.185 A 
HETATM   14  N5  UNL     1     -35.202 -23.061 -54.610  1.00  0.00    -0.287 N 
HETATM   15  N6  UNL     1     -35.876 -21.952 -54.746  1.00  0.00    -0.251 N 
ATOM     16  H5  UNL     1     -35.565 -23.944 -54.968  1.00  0.00     0.187 HD
HETATM   17  C5  UNL     1     -35.402 -20.787 -54.275  1.00  0.00     0.341 A 
ATOM     18  H6  UNL     1     -36.780 -21.971 -55.218  1.00  0.00     0.191 HD
HETATM   19  O2  UNL     1     -36.079 -19.721 -54.421  1.00  0.00    -0.245 OA
HETATM   20  N7  UNL     1     -34.224 -20.698 -53.648  1.00  0.00    -0.272 N 
HETATM   21  C6  UNL     1     -33.507 -21.818 -53.491  1.00  0.00     0.283 A 
ATOM     22  H7  UNL     1     -33.882 -19.803 -53.298  1.00  0.00     0.174 HD
HETATM   23  O3  UNL     1     -32.377 -21.790 -52.900  1.00  0.00    -0.265 OA
ENDBRANCH   2  13
TORSDOF 1
ENDMDL
MODEL 4
REMARK VINA RESULT: -6.767511059      2.030      5.208
REMARK  1 active torsions:
REMARK  status: ('A' for Active; 'I' for Inactive)
REMARK       I    between atoms: C1_2  and  N1_3 
REMARK    1  A    between atoms: C1_2  and  C4_13 
ROOT
HETATM    1  O1  UNL     1     -33.285 -24.059 -52.066  1.00  0.00    -0.265 OA
HETATM    2  C1  UNL     1     -33.478 -23.811 -53.277  1.00  0.00     0.293 C 
HETATM    3  N1  UNL     1     -32.925 -24.630 -54.255  1.00  0.00    -0.152 N 
ATOM      4  H1  UNL     1     -33.295 -25.577 -54.335  1.00  0.00     0.187 HD
HETATM    5  C2  UNL     1     -31.984 -24.294 -55.069  1.00  0.00     0.700 A 
HETATM    6  N2  UNL     1     -31.478 -25.120 -56.002  1.00  0.00    -0.185 N 
ATOM      7  H2  UNL     1     -31.781 -26.082 -56.159  1.00  0.00     0.185 HD
HETATM    8  C3  UNL     1     -30.512 -24.492 -56.699  1.00  0.00     0.215 A 
HETATM    9  N3  UNL     1     -30.431 -23.237 -56.167  1.00  0.00    -0.281 N 
ATOM     10  H3  UNL     1     -29.795 -22.498 -56.466  1.00  0.00     0.188 HD
HETATM   11  N4  UNL     1     -31.324 -23.151 -55.196  1.00  0.00    -0.131 N 
ATOM     12  H4  UNL     1     -31.482 -22.321 -54.624  1.00  0.00     0.205 HD
ENDROOT
BRANCH   2  13
HETATM   13  C4  UNL     1     -34.287 -22.660 -53.621  1.00  0.00     0.185 A 
HETATM   14  N5  UNL     1     -33.926 -21.461 -53.125  1.00  0.00    -0.287 N 
HETATM   15  N6  UNL     1     -34.655 -20.425 -53.435  1.00  0.00    -0.251 N 
ATOM     16  H5  UNL     1     -33.107 -21.367 -52.524  1.00  0.00     0.187 HD
HETATM   17  C5  UNL     1     -35.734 -20.546 -54.226  1.00  0.00     0.341 A 
ATOM     18  H6  UNL     1     -34.402 -19.507 -53.071  1.00  0.00     0.191 HD
HETATM   19  O2  UNL     1     -36.429 -19.520 -54.513  1.00  0.00    -0.245 OA
HETATM   20  N7  UNL     1     -36.119 -21.722 -54.734  1.00  0.00    -0.272 N 
HETATM   21  C6  UNL     1     -35.391 -22.805 -54.434  1.00  0.00     0.283 A 
ATOM     22  H7  UNL     1     -36.942 -21.792 -55.332  1.00  0.00     0.174 HD
HETATM   23  O3  UNL     1     -35.712 -23.952 -54.892  1.00  0.00    -0.265 OA
ENDBRANCH   2  13
TORSDOF 1
ENDMDL
MODEL 5
REMARK VINA RESULT: -6.698644218      1.456      1.627
REMARK  1 active torsions:
REMARK  status: ('A' for Active; 'I' for Inactive)
REMARK       I    between atoms: C1_2  and  N1_3 
REMARK    1  A    between atoms: C1_2  and  C4_13 
ROOT
HETATM    1  O1  UNL     1     -32.764 -23.270 -52.368  1.00  0.00    -0.265 OA
HETATM    2  C1  UNL     1     -33.067 -22.974 -53.545  1.00  0.00     0.293 C 
HETATM    3  N1  UNL     1     -34.205 -22.219 -53.805  1.00  0.00    -0.152 N 
ATOM      4  H1  UNL     1     -34.197 -21.244 -53.506  1.00  0.00     0.187 HD
HETATM    5  C2  UNL     1     -35.270 -22.646 -54.393  1.00  0.00     0.700 A 
HETATM    6  N2  UNL     1     -36.351 -21.880 -54.624  1.00  0.00    -0.185 N 
ATOM      7  H2  UNL     1     -36.438 -20.898 -54.363  1.00  0.00     0.185 HD
HETATM    8  C3  UNL     1     -37.301 -22.600 -55.251  1.00  0.00     0.215 A 
HETATM    9  N3  UNL     1     -36.774 -23.850 -55.405  1.00  0.00    -0.281 N 
ATOM     10  H3  UNL     1     -37.235 -24.646 -55.845  1.00  0.00     0.188 HD
HETATM   11  N4  UNL     1     -35.560 -23.845 -54.882  1.00  0.00    -0.131 N 
ATOM     12  H4  UNL     1     -34.934 -24.650 -54.858  1.00  0.00     0.205 HD
ENDROOT
BRANCH   2  13
HETATM   13  C4  UNL     1     -32.204 -23.436 -54.613  1.00  0.00     0.185 A 
HETATM   14  N5  UNL     1     -32.279 -24.731 -54.972  1.00  0.00    -0.287 N 
HETATM   15  N6  UNL     1     -31.501 -25.146 -55.934  1.00  0.00    -0.251 N 
ATOM     16  H5  UNL     1     -32.925 -25.369 -54.506  1.00  0.00     0.187 HD
HETATM   17  C5  UNL     1     -30.650 -24.310 -56.550  1.00  0.00     0.341 A 
ATOM     18  H6  UNL     1     -31.541 -26.123 -56.223  1.00  0.00     0.191 HD
HETATM   19  O2  UNL     1     -29.902 -24.740 -57.483  1.00  0.00    -0.245 OA
HETATM   20  N7  UNL     1     -30.552 -23.018 -56.215  1.00  0.00    -0.272 N 
HETATM   21  C6  UNL     1     -31.337 -22.561 -55.232  1.00  0.00     0.283 A 
ATOM     22  H7  UNL     1     -29.898 -22.400 -56.696  1.00  0.00     0.174 HD
HETATM   23  O3  UNL     1     -31.284 -21.337 -54.873  1.00  0.00    -0.265 OA
ENDBRANCH   2  13
TORSDOF 1
ENDMDL
